@<TRIPOS>MOLECULE
*****
 30 34 0 0 0
SMALL
GASTEIGER

@<TRIPOS>ATOM
      1 C         -10.1646  -19.5612   19.7143 C.3     1  UNL1        0.0294
      2 C         -10.8064  -18.2215   19.9228 C.3     1  UNL1        0.0666
      3 S         -10.9741  -17.6782   21.3108 S.3     1  UNL1       -0.0756
      4 C          -8.2897  -16.0244   23.5746 C.ar    1  UNL1        0.2029
      5 N          -8.0420  -15.3235   22.2718 N.ar    1  UNL1       -0.1250
      6 N          -9.0174  -15.8577   21.2652 N.ar    1  UNL1       -0.1220
      7 C          -9.8680  -16.8888   21.9459 C.ar    1  UNL1        0.1933
      8 N          -9.4183  -16.9918   23.3732 N.ar    1  UNL1       -0.2860
      9 C          -9.9958  -17.9024   24.4160 C.3     1  UNL1        0.1341
     10 C          -5.0971  -15.4045   23.8440 C.3     1  UNL1        0.0556
     11 C          -6.0730  -15.5128   24.9780 C.ar    1  UNL1        0.1001
     12 N          -5.7528  -15.3551   26.4349 N.ar    1  UNL1       -0.2085
     13 C          -7.0223  -15.5426   27.2115 C.ar    1  UNL1        0.2849
     14 O          -8.1272  -15.8162   26.2346 O.2     1  UNL1       -0.4283
     15 C          -7.5405  -15.7977   24.8542 C.ar    1  UNL1        0.1964
     16 C          -8.7771  -19.6487   19.1512 C.3     1  UNL1        0.0731
     17 N          -7.5913  -19.4087   20.0379 N.3     1  UNL1       -0.2712
     18 C          -7.5843  -19.4702   21.5367 C.3     1  UNL1        0.0738
     19 C          -6.1930  -19.1646   22.0066 C.3     1  UNL1        0.0372
     20 C          -5.3287  -19.0137   23.2233 C.3     1  UNL1        0.0245
     21 C          -3.9417  -18.6701   22.7670 C.3     1  UNL1        0.0909
     22 N          -3.9488  -18.6086   21.2682 N.pl3   1  UNL1       -0.3077
     23 C          -5.3401  -18.9142   20.7983 C.3     1  UNL1        0.0901
     24 C          -6.2043  -19.0651   19.5816 C.3     1  UNL1        0.0921
     25 C          -2.7712  -18.2964   20.3930 C.ar    1  UNL1        0.0478
     26 C          -2.9804  -17.9578   18.9468 C.ar    1  UNL1        0.0145
     27 C          -1.8029  -17.6456   18.0717 C.ar    1  UNL1        0.0013
     28 C          -0.4161  -17.6718   18.6428 C.ar    1  UNL1        0.0001
     29 C          -0.2069  -18.0104   20.0890 C.ar    1  UNL1        0.0013
     30 C          -1.3844  -18.3226   20.9642 C.ar    1  UNL1        0.0145
@<TRIPOS>BOND
     1    10    11    1
     2    11    12   ar
     3    12    13   ar
     4    13    14   ar
     5    14    15   ar
     6    15     4    1
     7     4     5   ar
     8     5     6   ar
     9     6     7   ar
    10     7     3    1
    11     3     2    1
    12     2     1    1
    13     1    16    1
    14    16    17    1
    15    17    18    1
    16    18    19    1
    17    19    20    1
    18    20    21    1
    19    21    22    1
    20    22    25    1
    21    25    26   ar
    22    26    27   ar
    23    27    28   ar
    24    28    29   ar
    25    29    30   ar
    26    22    23    1
    27    23    24    1
    28     7     8   ar
    29     8     9    1
    30    15    11   ar
    31     8     4   ar
    32    24    17    1
    33    23    19    1
    34    30    25   ar
@<TRIPOS>MOLECULE
*****
 30 34 0 0 0
SMALL
GASTEIGER

@<TRIPOS>ATOM
      1 C          -3.1606  -18.3752   22.8430 C.3     1  UNL1        0.0294
      2 C          -2.7329  -19.0195   21.5577 C.3     1  UNL1        0.0666
      3 S          -3.7021  -19.8614   20.7819 S.3     1  UNL1       -0.0756
      4 C          -7.5328  -19.4024   21.2076 C.ar    1  UNL1        0.2029
      5 N          -7.2402  -18.4074   20.1238 N.ar    1  UNL1       -0.1250
      6 N          -5.7697  -18.4583   19.8325 N.ar    1  UNL1       -0.1220
      7 C          -5.1533  -19.4847   20.7362 C.ar    1  UNL1        0.1933
      8 N          -6.2429  -20.0682   21.5860 N.ar    1  UNL1       -0.2860
      9 C          -6.0727  -21.1309   22.6308 C.3     1  UNL1        0.1341
     10 C         -10.3488  -19.6385   19.5754 C.3     1  UNL1        0.0556
     11 C         -10.1732  -19.7910   21.0573 C.ar    1  UNL1        0.1001
     12 N         -11.2610  -20.0788   22.0491 N.ar    1  UNL1       -0.2085
     13 C         -10.6390  -20.1481   23.4123 C.ar    1  UNL1        0.2849
     14 O          -9.1666  -19.9032   23.2630 O.2     1  UNL1       -0.4283
     15 C          -8.8788  -19.6825   21.8075 C.ar    1  UNL1        0.1964
     16 C          -3.6225  -16.9481   22.8493 C.3     1  UNL1        0.0731
     17 N          -4.9210  -16.5829   23.5056 N.3     1  UNL1       -0.2712
     18 C          -5.0895  -16.0865   24.9110 C.3     1  UNL1        0.0738
     19 C          -6.5515  -15.8469   25.1457 C.3     1  UNL1        0.0372
     20 C          -7.5592  -15.3920   26.1594 C.3     1  UNL1        0.0245
     21 C          -8.9171  -15.4591   25.5256 C.3     1  UNL1        0.0909
     22 N          -8.7485  -15.9555   24.1201 N.pl3   1  UNL1       -0.3077
     23 C          -7.2865  -16.1951   23.8854 C.3     1  UNL1        0.0901
     24 C          -6.2788  -16.6500   22.8717 C.3     1  UNL1        0.0921
     25 C          -9.8488  -16.1738   23.1242 C.ar    1  UNL1        0.0478
     26 C          -9.6048  -15.9120   21.6676 C.ar    1  UNL1        0.0145
     27 C         -10.7051  -16.1304   20.6717 C.ar    1  UNL1        0.0013
     28 C         -12.0494  -16.6106   21.1325 C.ar    1  UNL1        0.0001
     29 C         -12.2934  -16.8724   22.5893 C.ar    1  UNL1        0.0013
     30 C         -11.1931  -16.6541   23.5851 C.ar    1  UNL1        0.0145
@<TRIPOS>BOND
     1    10    11    1
     2    11    12   ar
     3    12    13   ar
     4    13    14   ar
     5    14    15   ar
     6    15     4    1
     7     4     5   ar
     8     5     6   ar
     9     6     7   ar
    10     7     3    1
    11     3     2    1
    12     2     1    1
    13     1    16    1
    14    16    17    1
    15    17    18    1
    16    18    19    1
    17    19    20    1
    18    20    21    1
    19    21    22    1
    20    22    25    1
    21    25    26   ar
    22    26    27   ar
    23    27    28   ar
    24    28    29   ar
    25    29    30   ar
    26    22    23    1
    27    23    24    1
    28     7     8   ar
    29     8     9    1
    30    15    11   ar
    31     8     4   ar
    32    24    17    1
    33    23    19    1
    34    30    25   ar
@<TRIPOS>MOLECULE
*****
 30 34 0 0 0
SMALL
GASTEIGER

@<TRIPOS>ATOM
      1 C          -6.6819  -14.8864   26.9689 C.3     1  UNL1        0.0294
      2 C          -5.8029  -15.7972   26.1639 C.3     1  UNL1        0.0666
      3 S          -5.4599  -15.4482   24.7460 S.3     1  UNL1       -0.0756
      4 C          -5.9482  -18.1441   21.9966 C.ar    1  UNL1        0.2029
      5 N          -7.1827  -17.3126   21.8098 N.ar    1  UNL1       -0.1250
      6 N          -7.1500  -16.2015   22.8170 N.ar    1  UNL1       -0.1220
      7 C          -5.8953  -16.3463   23.6263 C.ar    1  UNL1        0.1933
      8 N          -5.1526  -17.5468   23.1193 N.ar    1  UNL1       -0.2860
      9 C          -3.8440  -18.0601   23.6429 C.3     1  UNL1        0.1341
     10 C          -3.3098  -18.4605   20.1023 C.3     1  UNL1        0.0556
     11 C          -4.3623  -19.5048   20.3298 C.ar    1  UNL1        0.1001
     12 N          -4.3868  -20.8779   19.7265 N.ar    1  UNL1       -0.2085
     13 C          -5.6146  -21.5811   20.2243 C.ar    1  UNL1        0.2849
     14 O          -6.3490  -20.6426   21.1353 O.2     1  UNL1       -0.4283
     15 C          -5.5750  -19.3594   21.2005 C.ar    1  UNL1        0.1964
     16 C          -8.1506  -15.1693   27.0828 C.3     1  UNL1        0.0731
     17 N          -8.7637  -16.2835   26.2875 N.3     1  UNL1       -0.2712
     18 C          -8.9259  -17.7043   26.7401 C.3     1  UNL1        0.0738
     19 C          -9.5847  -18.4714   25.6322 C.3     1  UNL1        0.0372
     20 C         -10.0921  -19.8236   25.2273 C.3     1  UNL1        0.0245
     21 C         -10.6508  -19.7127   23.8395 C.3     1  UNL1        0.0909
     22 N         -10.4886  -18.2918   23.3869 N.pl3   1  UNL1       -0.3077
     23 C          -9.8297  -17.5247   24.4948 C.3     1  UNL1        0.0901
     24 C          -9.3223  -16.1725   24.8998 C.3     1  UNL1        0.0921
     25 C         -10.9111  -17.7357   22.0594 C.ar    1  UNL1        0.0478
     26 C         -11.7396  -16.4868   21.9988 C.ar    1  UNL1        0.0145
     27 C         -12.1621  -15.9307   20.6713 C.ar    1  UNL1        0.0013
     28 C         -11.7560  -16.6235   19.4044 C.ar    1  UNL1        0.0001
     29 C         -10.9275  -17.8724   19.4649 C.ar    1  UNL1        0.0013
     30 C         -10.5050  -18.4285   20.7924 C.ar    1  UNL1        0.0145
@<TRIPOS>BOND
     1    10    11    1
     2    11    12   ar
     3    12    13   ar
     4    13    14   ar
     5    14    15   ar
     6    15     4    1
     7     4     5   ar
     8     5     6   ar
     9     6     7   ar
    10     7     3    1
    11     3     2    1
    12     2     1    1
    13     1    16    1
    14    16    17    1
    15    17    18    1
    16    18    19    1
    17    19    20    1
    18    20    21    1
    19    21    22    1
    20    22    25    1
    21    25    26   ar
    22    26    27   ar
    23    27    28   ar
    24    28    29   ar
    25    29    30   ar
    26    22    23    1
    27    23    24    1
    28     7     8   ar
    29     8     9    1
    30    15    11   ar
    31     8     4   ar
    32    24    17    1
    33    23    19    1
    34    30    25   ar
@<TRIPOS>MOLECULE
*****
 30 34 0 0 0
SMALL
GASTEIGER

@<TRIPOS>ATOM
      1 C          -5.5260  -15.4479   25.7384 C.3     1  UNL1        0.0294
      2 C          -4.5620  -15.8851   24.6756 C.3     1  UNL1        0.0666
      3 S          -4.1648  -17.3278   24.5708 S.3     1  UNL1       -0.0756
      4 C          -3.1126  -18.2397   20.9477 C.ar    1  UNL1        0.2029
      5 N          -3.8185  -19.4944   21.3691 N.ar    1  UNL1       -0.1250
      6 N          -4.2985  -19.3055   22.7776 N.ar    1  UNL1       -0.1220
      7 C          -3.8894  -17.9341   23.2267 C.ar    1  UNL1        0.1933
      8 N          -3.1565  -17.2753   22.0958 N.ar    1  UNL1       -0.2860
      9 C          -2.5703  -15.8947   22.1104 C.3     1  UNL1        0.1341
     10 C           0.0845  -18.3394   20.3012 C.3     1  UNL1        0.0556
     11 C          -1.0054  -18.0386   19.3155 C.ar    1  UNL1        0.1001
     12 N          -0.8171  -17.7308   17.8595 N.ar    1  UNL1       -0.2085
     13 C          -2.1703  -17.4947   17.2569 C.ar    1  UNL1        0.2849
     14 O          -3.1949  -17.6567   18.3404 O.2     1  UNL1       -0.4283
     15 C          -2.4750  -17.9928   19.6126 C.ar    1  UNL1        0.1964
     16 C          -6.9399  -15.1050   25.3735 C.3     1  UNL1        0.0731
     17 N          -7.8861  -16.1857   24.9414 N.3     1  UNL1       -0.2712
     18 C          -8.9729  -16.7927   25.7785 C.3     1  UNL1        0.0738
     19 C          -9.6701  -17.8313   24.9508 C.3     1  UNL1        0.0372
     20 C         -10.7726  -18.8483   24.9565 C.3     1  UNL1        0.0245
     21 C         -10.7983  -19.5119   23.6115 C.3     1  UNL1        0.0909
     22 N          -9.7115  -18.9049   22.7744 N.pl3   1  UNL1       -0.3077
     23 C          -9.0143  -17.8663   23.6022 C.3     1  UNL1        0.0901
     24 C          -7.9117  -16.8493   23.5964 C.3     1  UNL1        0.0921
     25 C          -9.3801  -19.2721   21.3583 C.ar    1  UNL1        0.0478
     26 C         -10.4811  -19.5530   20.3791 C.ar    1  UNL1        0.0145
     27 C         -10.1498  -19.9202   18.9630 C.ar    1  UNL1        0.0013
     28 C          -8.7175  -20.0066   18.5261 C.ar    1  UNL1        0.0001
     29 C          -7.6164  -19.7257   19.5053 C.ar    1  UNL1        0.0013
     30 C          -7.9477  -19.3585   20.9214 C.ar    1  UNL1        0.0145
@<TRIPOS>BOND
     1    10    11    1
     2    11    12   ar
     3    12    13   ar
     4    13    14   ar
     5    14    15   ar
     6    15     4    1
     7     4     5   ar
     8     5     6   ar
     9     6     7   ar
    10     7     3    1
    11     3     2    1
    12     2     1    1
    13     1    16    1
    14    16    17    1
    15    17    18    1
    16    18    19    1
    17    19    20    1
    18    20    21    1
    19    21    22    1
    20    22    25    1
    21    25    26   ar
    22    26    27   ar
    23    27    28   ar
    24    28    29   ar
    25    29    30   ar
    26    22    23    1
    27    23    24    1
    28     7     8   ar
    29     8     9    1
    30    15    11   ar
    31     8     4   ar
    32    24    17    1
    33    23    19    1
    34    30    25   ar
@<TRIPOS>MOLECULE
*****
 30 34 0 0 0
SMALL
GASTEIGER

@<TRIPOS>ATOM
      1 C          -5.3771  -15.5237   26.0811 C.3     1  UNL1        0.0294
      2 C          -4.9963  -16.0255   24.7197 C.3     1  UNL1        0.0666
      3 S          -4.0917  -17.2143   24.5845 S.3     1  UNL1       -0.0756
      4 C          -3.1433  -18.1748   20.9453 C.ar    1  UNL1        0.2029
      5 N          -3.8854  -19.4020   21.3850 N.ar    1  UNL1       -0.1250
      6 N          -4.3309  -19.1916   22.8017 N.ar    1  UNL1       -0.1220
      7 C          -3.8643  -17.8343   23.2377 C.ar    1  UNL1        0.1933
      8 N          -3.1303  -17.2058   22.0904 N.ar    1  UNL1       -0.2860
      9 C          -2.4948  -15.8471   22.0884 C.3     1  UNL1        0.1341
     10 C           0.0423  -18.3212   20.2524 C.3     1  UNL1        0.0556
     11 C          -1.0589  -18.0224   19.2788 C.ar    1  UNL1        0.1001
     12 N          -0.8893  -17.7383   17.8158 N.ar    1  UNL1       -0.2085
     13 C          -2.2486  -17.4955   17.2300 C.ar    1  UNL1        0.2849
     14 O          -3.2585  -17.6294   18.3310 O.2     1  UNL1       -0.4283
     15 C          -2.5232  -17.9550   19.5972 C.ar    1  UNL1        0.1964
     16 C          -6.8142  -15.2350   26.3992 C.3     1  UNL1        0.0731
     17 N          -7.8988  -16.0859   25.8080 N.3     1  UNL1       -0.2712
     18 C          -8.4863  -17.3203   26.4255 C.3     1  UNL1        0.0738
     19 C          -9.5369  -17.8491   25.4946 C.3     1  UNL1        0.0372
     20 C         -10.5494  -18.9388   25.3008 C.3     1  UNL1        0.0245
     21 C         -11.2370  -18.7048   23.9884 C.3     1  UNL1        0.0909
     22 N         -10.6494  -17.4703   23.3710 N.pl3   1  UNL1       -0.3077
     23 C          -9.5988  -16.9416   24.3018 C.3     1  UNL1        0.0901
     24 C          -8.5864  -15.8519   24.4956 C.3     1  UNL1        0.0921
     25 C         -11.0434  -16.8702   22.0539 C.ar    1  UNL1        0.0478
     26 C         -12.4322  -17.0704   21.5240 C.ar    1  UNL1        0.0145
     27 C         -12.8262  -16.4702   20.2069 C.ar    1  UNL1        0.0013
     28 C         -11.8313  -15.6698   19.4198 C.ar    1  UNL1        0.0001
     29 C         -10.4423  -15.4696   19.9498 C.ar    1  UNL1        0.0013
     30 C         -10.0484  -16.0698   21.2668 C.ar    1  UNL1        0.0145
@<TRIPOS>BOND
     1    10    11    1
     2    11    12   ar
     3    12    13   ar
     4    13    14   ar
     5    14    15   ar
     6    15     4    1
     7     4     5   ar
     8     5     6   ar
     9     6     7   ar
    10     7     3    1
    11     3     2    1
    12     2     1    1
    13     1    16    1
    14    16    17    1
    15    17    18    1
    16    18    19    1
    17    19    20    1
    18    20    21    1
    19    21    22    1
    20    22    25    1
    21    25    26   ar
    22    26    27   ar
    23    27    28   ar
    24    28    29   ar
    25    29    30   ar
    26    22    23    1
    27    23    24    1
    28     7     8   ar
    29     8     9    1
    30    15    11   ar
    31     8     4   ar
    32    24    17    1
    33    23    19    1
    34    30    25   ar
@<TRIPOS>MOLECULE
*****
 30 34 0 0 0
SMALL
GASTEIGER

@<TRIPOS>ATOM
      1 C           0.3520    2.9051   19.0851 C.3     1  UNL1        0.0294
      2 C           1.4999    2.0996   18.5527 C.3     1  UNL1        0.0666
      3 S           1.4135    0.6025   18.5188 S.3     1  UNL1       -0.0756
      4 C           4.5145   -1.7140   18.8083 C.ar    1  UNL1        0.2029
      5 N           4.6367   -1.2419   17.3898 N.ar    1  UNL1       -0.1250
      6 N           3.4900   -0.3167   17.1087 N.ar    1  UNL1       -0.1220
      7 C           2.6590   -0.2170   18.3535 C.ar    1  UNL1        0.1933
      8 N           3.2921   -1.0805   19.4039 N.ar    1  UNL1       -0.2860
      9 C           2.7909   -1.2763   20.8041 C.3     1  UNL1        0.1341
     10 C           3.9986   -4.8925   19.3382 C.3     1  UNL1        0.0556
     11 C           5.2131   -4.1154   19.7519 C.ar    1  UNL1        0.1001
     12 N           6.4037   -4.6629   20.4818 N.ar    1  UNL1       -0.2085
     13 C           7.3767   -3.5402   20.6893 C.ar    1  UNL1        0.2849
     14 O           6.7874   -2.2990   20.0877 O.2     1  UNL1       -0.4283
     15 C           5.4502   -2.6545   19.5083 C.ar    1  UNL1        0.1964
     16 C          -0.5683    3.6164   18.1379 C.3     1  UNL1        0.0731
     17 N          -2.0273    3.7424   18.4624 N.3     1  UNL1       -0.2712
     18 C          -3.1443    3.8633   17.4685 C.3     1  UNL1        0.0738
     19 C          -4.4329    3.9652   18.2296 C.3     1  UNL1        0.0372
     20 C          -5.9196    4.1029   18.0857 C.3     1  UNL1        0.0245
     21 C          -6.5179    4.1302   19.4610 C.3     1  UNL1        0.0909
     22 N          -5.4008    4.0093   20.4549 N.pl3   1  UNL1       -0.3077
     23 C          -4.1123    3.9074   19.6938 C.3     1  UNL1        0.0901
     24 C          -2.6255    3.7697   19.8376 C.3     1  UNL1        0.0921
     25 C          -5.5468    3.9933   21.9476 C.ar    1  UNL1        0.0478
     26 C          -6.6988    4.7018   22.5963 C.ar    1  UNL1        0.0145
     27 C          -6.8447    4.6857   24.0891 C.ar    1  UNL1        0.0013
     28 C          -5.8386    3.9611   24.9332 C.ar    1  UNL1        0.0001
     29 C          -4.6865    3.2525   24.2846 C.ar    1  UNL1        0.0013
     30 C          -4.5406    3.2686   22.7918 C.ar    1  UNL1        0.0145
@<TRIPOS>BOND
     1    10    11    1
     2    11    12   ar
     3    12    13   ar
     4    13    14   ar
     5    14    15   ar
     6    15     4    1
     7     4     5   ar
     8     5     6   ar
     9     6     7   ar
    10     7     3    1
    11     3     2    1
    12     2     1    1
    13     1    16    1
    14    16    17    1
    15    17    18    1
    16    18    19    1
    17    19    20    1
    18    20    21    1
    19    21    22    1
    20    22    25    1
    21    25    26   ar
    22    26    27   ar
    23    27    28   ar
    24    28    29   ar
    25    29    30   ar
    26    22    23    1
    27    23    24    1
    28     7     8   ar
    29     8     9    1
    30    15    11   ar
    31     8     4   ar
    32    24    17    1
    33    23    19    1
    34    30    25   ar
@<TRIPOS>MOLECULE
*****
 30 34 0 0 0
SMALL
GASTEIGER

@<TRIPOS>ATOM
      1 C           0.3030    2.4230   24.9160 C.3     1  UNL1        0.0294
      2 C          -1.0475    2.4822   25.5662 C.3     1  UNL1        0.0666
      3 S          -1.1573    2.6145   27.0563 S.3     1  UNL1       -0.0756
      4 C           0.9284    0.2376   29.3070 C.ar    1  UNL1        0.2029
      5 N          -0.4091   -0.4411   29.3297 N.ar    1  UNL1       -0.1250
      6 N          -1.3532    0.3667   28.4894 N.ar    1  UNL1       -0.1220
      7 C          -0.5992    1.5447   27.9473 C.ar    1  UNL1        0.1933
      8 N           0.8109    1.4649   28.4526 N.ar    1  UNL1       -0.2860
      9 C           1.9105    2.4410   28.1556 C.3     1  UNL1        0.1341
     10 C           3.6460   -0.8767   27.8849 C.3     1  UNL1        0.0556
     11 C           3.4152   -0.7412   29.3608 C.ar    1  UNL1        0.1001
     12 N           4.3929   -1.0941   30.4422 N.ar    1  UNL1       -0.2085
     13 C           3.7481   -0.8000   31.7643 C.ar    1  UNL1        0.2849
     14 O           2.3718   -0.2654   31.4999 O.2     1  UNL1       -0.4283
     15 C           2.1661   -0.2290   30.0145 C.ar    1  UNL1        0.1964
     16 C           0.7863    1.1406   24.3063 C.3     1  UNL1        0.0731
     17 N           0.9867    1.0441   22.8228 N.3     1  UNL1       -0.2712
     18 C           0.2771    1.8590   21.7825 C.3     1  UNL1        0.0738
     19 C           0.7837    1.4343   20.4360 C.3     1  UNL1        0.0372
     20 C           0.6583    1.6755   18.9608 C.3     1  UNL1        0.0245
     21 C           1.6035    0.7472   18.2573 C.3     1  UNL1        0.0909
     22 N           2.3132   -0.0677   19.2978 N.pl3   1  UNL1       -0.3077
     23 C           1.8065    0.3570   20.6442 C.3     1  UNL1        0.0901
     24 C           1.9320    0.1158   22.1194 C.3     1  UNL1        0.0921
     25 C           3.3478   -1.1221   19.0374 C.ar    1  UNL1        0.0478
     26 C           4.5170   -0.8219   18.1470 C.ar    1  UNL1        0.0145
     27 C           5.5516   -1.8763   17.8866 C.ar    1  UNL1        0.0013
     28 C           5.4171   -3.2309   18.5167 C.ar    1  UNL1        0.0001
     29 C           4.2479   -3.5311   19.4072 C.ar    1  UNL1        0.0013
     30 C           3.2132   -2.4767   19.6675 C.ar    1  UNL1        0.0145
@<TRIPOS>BOND
     1    10    11    1
     2    11    12   ar
     3    12    13   ar
     4    13    14   ar
     5    14    15   ar
     6    15     4    1
     7     4     5   ar
     8     5     6   ar
     9     6     7   ar
    10     7     3    1
    11     3     2    1
    12     2     1    1
    13     1    16    1
    14    16    17    1
    15    17    18    1
    16    18    19    1
    17    19    20    1
    18    20    21    1
    19    21    22    1
    20    22    25    1
    21    25    26   ar
    22    26    27   ar
    23    27    28   ar
    24    28    29   ar
    25    29    30   ar
    26    22    23    1
    27    23    24    1
    28     7     8   ar
    29     8     9    1
    30    15    11   ar
    31     8     4   ar
    32    24    17    1
    33    23    19    1
    34    30    25   ar
@<TRIPOS>MOLECULE
*****
 30 34 0 0 0
SMALL
GASTEIGER

@<TRIPOS>ATOM
      1 C           7.1049   -3.0748   24.8176 C.3     1  UNL1        0.0294
      2 C           6.3074   -3.8871   23.8407 C.3     1  UNL1        0.0666
      3 S           6.5666   -3.7567   22.3691 S.3     1  UNL1       -0.0756
      4 C           3.6953   -2.3312   20.1805 C.ar    1  UNL1        0.2029
      5 N           3.6705   -3.7780   19.7850 N.ar    1  UNL1       -0.1250
      6 N           4.7430   -4.4880   20.5567 N.ar    1  UNL1       -0.1220
      7 C           5.4308   -3.4801   21.4291 C.ar    1  UNL1        0.1933
      8 N           4.7833   -2.1472   21.1967 N.ar    1  UNL1       -0.2860
      9 C           5.1580   -0.8567   21.8633 C.3     1  UNL1        0.1341
     10 C           4.3300   -0.3564   17.6612 C.3     1  UNL1        0.0556
     11 C           3.0828   -0.3494   18.4945 C.ar    1  UNL1        0.1001
     12 N           1.9083    0.5664   18.3163 N.ar    1  UNL1       -0.2085
     13 C           0.8908    0.2248   19.3640 C.ar    1  UNL1        0.2849
     14 O           1.4364   -0.9023   20.1899 O.2     1  UNL1       -0.4283
     15 C           2.7911   -1.2572   19.6525 C.ar    1  UNL1        0.1964
     16 C           6.4339   -2.4728   26.0165 C.3     1  UNL1        0.0731
     17 N           6.5622   -3.1321   27.3577 N.3     1  UNL1       -0.2712
     18 C           6.9361   -4.5637   27.6043 C.3     1  UNL1        0.0738
     19 C           6.9441   -4.7919   29.0868 C.3     1  UNL1        0.0372
     20 C           7.1801   -5.8177   30.1554 C.3     1  UNL1        0.0245
     21 C           6.9571   -5.1612   31.4856 C.3     1  UNL1        0.0909
     22 N           6.5832   -3.7296   31.2390 N.pl3   1  UNL1       -0.3077
     23 C           6.5752   -3.5014   29.7565 C.3     1  UNL1        0.0901
     24 C           6.3391   -2.4755   28.6878 C.3     1  UNL1        0.0921
     25 C           6.2719   -2.7059   32.2903 C.ar    1  UNL1        0.0478
     26 C           4.9219   -2.6886   32.9438 C.ar    1  UNL1        0.0145
     27 C           4.6107   -1.6650   33.9952 C.ar    1  UNL1        0.0013
     28 C           5.6495   -0.6587   34.3930 C.ar    1  UNL1        0.0001
     29 C           6.9996   -0.6760   33.7395 C.ar    1  UNL1        0.0013
     30 C           7.3108   -1.6996   32.6881 C.ar    1  UNL1        0.0145
@<TRIPOS>BOND
     1    10    11    1
     2    11    12   ar
     3    12    13   ar
     4    13    14   ar
     5    14    15   ar
     6    15     4    1
     7     4     5   ar
     8     5     6   ar
     9     6     7   ar
    10     7     3    1
    11     3     2    1
    12     2     1    1
    13     1    16    1
    14    16    17    1
    15    17    18    1
    16    18    19    1
    17    19    20    1
    18    20    21    1
    19    21    22    1
    20    22    25    1
    21    25    26   ar
    22    26    27   ar
    23    27    28   ar
    24    28    29   ar
    25    29    30   ar
    26    22    23    1
    27    23    24    1
    28     7     8   ar
    29     8     9    1
    30    15    11   ar
    31     8     4   ar
    32    24    17    1
    33    23    19    1
    34    30    25   ar
@<TRIPOS>MOLECULE
*****
 30 34 0 0 0
SMALL
GASTEIGER

@<TRIPOS>ATOM
      1 C           5.4871   -0.7990   25.7174 C.3     1  UNL1        0.0294
      2 C           4.2893   -0.3010   26.4707 C.3     1  UNL1        0.0666
      3 S           3.5381   -1.2263   27.3814 S.3     1  UNL1       -0.0756
      4 C           3.7096   -0.3613   31.1613 C.ar    1  UNL1        0.2029
      5 N           2.2455   -0.1817   30.8890 N.ar    1  UNL1       -0.1250
      6 N           2.0030   -0.4839   29.4399 N.ar    1  UNL1       -0.1220
      7 C           3.3173   -0.8503   28.8166 C.ar    1  UNL1        0.1933
      8 N           4.3720   -0.7745   29.8805 N.ar    1  UNL1       -0.2860
      9 C           5.8327   -1.0616   29.6959 C.3     1  UNL1        0.1341
     10 C           4.3235   -2.6826   33.3714 C.3     1  UNL1        0.0556
     11 C           4.6737   -1.2296   33.4984 C.ar    1  UNL1        0.1001
     12 N           5.3676   -0.5885   34.6634 N.ar    1  UNL1       -0.2085
     13 C           5.5143    0.8748   34.3677 C.ar    1  UNL1        0.2849
     14 O           4.9110    1.1379   33.0198 O.2     1  UNL1       -0.4283
     15 C           4.3916   -0.1626   32.4825 C.ar    1  UNL1        0.1964
     16 C           5.5011   -2.1950   25.1689 C.3     1  UNL1        0.0731
     17 N           5.0349   -2.4548   23.7671 N.3     1  UNL1       -0.2712
     18 C           5.3456   -3.6708   22.9457 C.3     1  UNL1        0.0738
     19 C           4.6789   -3.5116   21.6115 C.3     1  UNL1        0.0372
     20 C           4.4588   -4.1648   20.2792 C.3     1  UNL1        0.0245
     21 C           3.6002   -3.2541   19.4525 C.3     1  UNL1        0.0909
     22 N           3.2895   -2.0380   20.2740 N.pl3   1  UNL1       -0.3077
     23 C           3.9562   -2.1972   21.6082 C.3     1  UNL1        0.0901
     24 C           4.1763   -1.5440   22.9405 C.3     1  UNL1        0.0921
     25 C           2.4582   -0.8681   19.8378 C.ar    1  UNL1        0.0478
     26 C           2.9356    0.0181   18.7257 C.ar    1  UNL1        0.0145
     27 C           2.1042    1.1879   18.2895 C.ar    1  UNL1        0.0013
     28 C           0.7955    1.4716   18.9653 C.ar    1  UNL1        0.0001
     29 C           0.3181    0.5854   20.0774 C.ar    1  UNL1        0.0013
     30 C           1.1494   -0.5845   20.5136 C.ar    1  UNL1        0.0145
@<TRIPOS>BOND
     1    10    11    1
     2    11    12   ar
     3    12    13   ar
     4    13    14   ar
     5    14    15   ar
     6    15     4    1
     7     4     5   ar
     8     5     6   ar
     9     6     7   ar
    10     7     3    1
    11     3     2    1
    12     2     1    1
    13     1    16    1
    14    16    17    1
    15    17    18    1
    16    18    19    1
    17    19    20    1
    18    20    21    1
    19    21    22    1
    20    22    25    1
    21    25    26   ar
    22    26    27   ar
    23    27    28   ar
    24    28    29   ar
    25    29    30   ar
    26    22    23    1
    27    23    24    1
    28     7     8   ar
    29     8     9    1
    30    15    11   ar
    31     8     4   ar
    32    24    17    1
    33    23    19    1
    34    30    25   ar
