@<TRIPOS>MOLECULE
*****
 36 40 0 0 0
SMALL
GASTEIGER

@<TRIPOS>ATOM
      1 C           3.3611    0.0028   22.3599 C.ar    1  UNL1        0.0884
      2 C           3.1753    0.7935   23.6209 C.ar    1  UNL1        0.0846
      3 N           1.9947    1.7072   23.7662 N.ar    1  UNL1       -0.2897
      4 C           0.9997    1.8302   22.6504 C.ar    1  UNL1        0.2641
      5 O          -0.1810    2.7440   22.7958 O.2     1  UNL1       -0.2669
      6 C           1.1854    1.0395   21.3894 C.ar    1  UNL1        0.0944
      7 C           0.3762    0.9552   20.1292 C.ar    1  UNL1        0.1263
      8 N           1.0568   -0.0106   19.2051 N.ar    1  UNL1       -0.1676
      9 N           2.2867   -0.5232   19.8941 N.ar    1  UNL1       -0.2524
     10 C           2.3661    0.1258   21.2441 C.ar    1  UNL1        0.0897
     11 C           3.2652   -1.5113   19.3319 C.3     1  UNL1        0.1079
     12 C           4.4358   -1.0318   18.5258 C.3     1  UNL1        0.0415
     13 C           5.4144   -2.0199   17.9635 C.3     1  UNL1        0.0706
     14 N           5.2223   -3.4874   18.2073 N.3     1  UNL1       -0.2974
     15 C           4.0516   -3.9668   19.0134 C.3     1  UNL1        0.0706
     16 C           3.0731   -2.9788   19.5756 C.3     1  UNL1        0.0415
     17 H           6.0621   -3.8195   18.6814 H       1  UNL1        0.1232
     18 O           5.7656   -0.4445   21.4831 O.2     1  UNL1       -0.2697
     19 C           4.5418   -0.9109   22.2146 C.2     1  UNL1        0.2524
     20 N           4.4988   -2.2909   22.8008 N.am    1  UNL1       -0.2802
     21 H           3.6957   -2.5970   23.2810 H       1  UNL1        0.1552
     22 C           5.6796   -3.2045   22.6555 C.ar    1  UNL1        0.0537
     23 C           6.1902   -3.9648   23.8435 C.ar    1  UNL1        0.0353
     24 C           7.3710   -4.8785   23.6982 C.ar    1  UNL1        0.1002
     25 N           8.0411   -5.0318   22.3650 N.ar    1  UNL1       -0.2422
     26 C           7.5304   -4.2715   21.1771 C.ar    1  UNL1        0.1002
     27 C           6.3497   -3.3579   21.3223 C.ar    1  UNL1        0.0353
     28 C           1.8089    2.4979   25.0274 C.3     1  UNL1        0.1358
     29 C           0.9648    1.9492   26.1392 C.ar    1  UNL1        0.0014
     30 C          -0.4864    2.3175   26.2309 C.ar    1  UNL1       -0.0015
     31 C          -1.3306    1.7686   27.3429 C.ar    1  UNL1        0.0120
     32 C          -0.7236    0.8516   28.3629 C.ar    1  UNL1        0.0682
     33 CL         -1.5677    0.3028   29.4748 Cl      1  UNL1       -0.0814
     34 C           0.7277    0.4834   28.2711 C.ar    1  UNL1        0.0679
     35 CL          1.3347   -0.4337   29.2912 Cl      1  UNL1       -0.0814
     36 C           1.5719    1.0321   27.1593 C.ar    1  UNL1        0.0099
@<TRIPOS>BOND
     1    18    19    2
     2    19    20   am
     3    20    22    1
     4    22    23   ar
     5    23    24   ar
     6    24    25   ar
     7    25    26   ar
     8    26    27   ar
     9    19     1    1
    10     1     2   ar
    11     2     3   ar
    12     3    28    1
    13    28    29    1
    14    29    30   ar
    15    30    31   ar
    16    31    32   ar
    17    32    33    1
    18    32    34   ar
    19    34    35    1
    20    34    36   ar
    21     3     4   ar
    22     4     5    2
    23     4     6   ar
    24     6     7   ar
    25     7     8   ar
    26     8     9   ar
    27     9    11    1
    28    11    12    1
    29    12    13    1
    30    13    14    1
    31    14    15    1
    32    15    16    1
    33     9    10   ar
    34    27    22   ar
    35    10     1   ar
    36    36    29   ar
    37    10     6   ar
    38    16    11    1
    39    20    21    1
    40    14    17    1
@<TRIPOS>MOLECULE
*****
 36 40 0 0 0
SMALL
GASTEIGER

@<TRIPOS>ATOM
      1 C           5.2414   -1.8581   23.4752 C.ar    1  UNL1        0.0884
      2 C           5.0265   -1.3028   24.8520 C.ar    1  UNL1        0.0846
      3 N           5.6303   -1.9902   26.0405 N.ar    1  UNL1       -0.2897
      4 C           6.4491   -3.2329   25.8524 C.ar    1  UNL1        0.2641
      5 O           7.0529   -3.9203   27.0412 O.2     1  UNL1       -0.2669
      6 C           6.6640   -3.7881   24.4757 C.ar    1  UNL1        0.0944
      7 C           7.4182   -4.9878   23.9838 C.ar    1  UNL1        0.1263
      8 N           7.2805   -5.0418   22.4911 N.ar    1  UNL1       -0.1676
      9 N           6.4412   -3.8755   22.0605 N.ar    1  UNL1       -0.2524
     10 C           6.0602   -3.1007   23.2871 C.ar    1  UNL1        0.0897
     11 C           6.0513   -3.5426   20.6508 C.3     1  UNL1        0.1079
     12 C           4.7832   -4.0971   20.0725 C.3     1  UNL1        0.0415
     13 C           4.3933   -3.7641   18.6628 C.3     1  UNL1        0.0706
     14 N           5.2715   -2.8768   17.8315 N.3     1  UNL1       -0.2974
     15 C           6.5397   -2.3223   18.4098 C.3     1  UNL1        0.0706
     16 C           6.9296   -2.6552   19.8194 C.3     1  UNL1        0.0415
     17 H           4.7021   -2.0784   17.5509 H       1  UNL1        0.1232
     18 O           5.4565   -0.2045   21.4827 O.2     1  UNL1       -0.2697
     19 C           4.6375   -1.1706   22.2866 C.2     1  UNL1        0.2524
     20 N           3.2148   -1.4493   21.9017 N.am    1  UNL1       -0.2802
     21 H           2.6773   -2.0833   22.4293 H       1  UNL1        0.1552
     22 C           2.6110   -0.7618   20.7131 C.ar    1  UNL1        0.0537
     23 C           1.2186   -0.2096   20.7933 C.ar    1  UNL1        0.0353
     24 C           0.6148    0.4779   19.6047 C.ar    1  UNL1        0.1002
     25 N           1.4033    0.6132   18.3359 N.ar    1  UNL1       -0.2422
     26 C           2.7957    0.0609   18.2557 C.ar    1  UNL1        0.1002
     27 C           3.3995   -0.6265   19.4442 C.ar    1  UNL1        0.0353
     28 C           5.4153   -1.4349   27.4174 C.3     1  UNL1        0.1358
     29 C           4.3322   -0.4256   27.6583 C.ar    1  UNL1        0.0014
     30 C           4.6096    1.0347   27.4571 C.ar    1  UNL1       -0.0015
     31 C           3.5264    2.0441   27.6981 C.ar    1  UNL1        0.0120
     32 C           2.1659    1.5930   28.1403 C.ar    1  UNL1        0.0682
     33 CL          1.0827    2.6023   28.3813 Cl      1  UNL1       -0.0814
     34 C           1.8885    0.1326   28.3415 C.ar    1  UNL1        0.0679
     35 CL          0.5280   -0.3184   28.7837 Cl      1  UNL1       -0.0814
     36 C           2.9717   -0.8767   28.1005 C.ar    1  UNL1        0.0099
@<TRIPOS>BOND
     1    18    19    2
     2    19    20   am
     3    20    22    1
     4    22    23   ar
     5    23    24   ar
     6    24    25   ar
     7    25    26   ar
     8    26    27   ar
     9    19     1    1
    10     1     2   ar
    11     2     3   ar
    12     3    28    1
    13    28    29    1
    14    29    30   ar
    15    30    31   ar
    16    31    32   ar
    17    32    33    1
    18    32    34   ar
    19    34    35    1
    20    34    36   ar
    21     3     4   ar
    22     4     5    2
    23     4     6   ar
    24     6     7   ar
    25     7     8   ar
    26     8     9   ar
    27     9    11    1
    28    11    12    1
    29    12    13    1
    30    13    14    1
    31    14    15    1
    32    15    16    1
    33     9    10   ar
    34    27    22   ar
    35    10     1   ar
    36    36    29   ar
    37    10     6   ar
    38    16    11    1
    39    20    21    1
    40    14    17    1
@<TRIPOS>MOLECULE
*****
 36 40 0 0 0
SMALL
GASTEIGER

@<TRIPOS>ATOM
      1 C           8.2561   -4.2441   26.3202 C.ar    1  UNL1        0.0884
      2 C           8.2633   -3.7793   24.8941 C.ar    1  UNL1        0.0846
      3 N           8.2927   -4.7817   23.7787 N.ar    1  UNL1       -0.2897
      4 C           8.3149   -6.2491   24.0894 C.ar    1  UNL1        0.2641
      5 O           8.3443   -7.2515   22.9739 O.2     1  UNL1       -0.2669
      6 C           8.3077   -6.7139   25.5155 C.ar    1  UNL1        0.0944
      7 C           8.3250   -8.0846   26.1245 C.ar    1  UNL1        0.1263
      8 N           8.3063   -7.9292   27.6163 N.ar    1  UNL1       -0.1676
      9 N           8.2774   -6.4625   27.9293 N.ar    1  UNL1       -0.2524
     10 C           8.2783   -5.7114   26.6310 C.ar    1  UNL1        0.0897
     11 C           8.2521   -5.8538   29.3001 C.3     1  UNL1        0.1079
     12 C           9.5351   -5.4568   29.9681 C.3     1  UNL1        0.0415
     13 C           9.5099   -4.8481   31.3389 C.3     1  UNL1        0.0706
     14 N           8.2017   -4.6365   32.0415 N.3     1  UNL1       -0.2974
     15 C           6.9187   -5.0335   31.3734 C.3     1  UNL1        0.0706
     16 C           6.9439   -5.6422   30.0027 C.3     1  UNL1        0.0415
     17 H           8.1330   -3.6387   32.2416 H       1  UNL1        0.1232
     18 O           9.5001   -2.8474   28.1236 O.2     1  UNL1       -0.2697
     19 C           8.2267   -3.2416   27.4356 C.2     1  UNL1        0.2524
     20 N           6.9239   -2.6333   27.8632 N.am    1  UNL1       -0.2802
     21 H           6.0881   -2.8920   27.4117 H       1  UNL1        0.1552
     22 C           6.8946   -1.6308   28.9786 C.ar    1  UNL1        0.0537
     23 C           7.5327   -0.2858   28.7951 C.ar    1  UNL1        0.0353
     24 C           7.5035    0.7168   29.9104 C.ar    1  UNL1        0.1002
     25 N           6.8361    0.3743   31.2094 N.ar    1  UNL1       -0.2422
     26 C           6.1979   -0.9707   31.3929 C.ar    1  UNL1        0.1002
     27 C           6.2272   -1.9732   30.2776 C.ar    1  UNL1        0.0353
     28 C           8.2999   -4.3169   22.3525 C.3     1  UNL1        0.1358
     29 C           7.0176   -3.9071   21.6908 C.ar    1  UNL1        0.0014
     30 C           5.7492   -3.8423   22.4887 C.ar    1  UNL1       -0.0015
     31 C           4.4669   -3.4325   21.8269 C.ar    1  UNL1        0.0120
     32 C           4.4531   -3.0875   20.3673 C.ar    1  UNL1        0.0682
     33 CL          3.1710   -2.6777   19.7054 Cl      1  UNL1       -0.0814
     34 C           5.7217   -3.1523   19.5692 C.ar    1  UNL1        0.0679
     35 CL          5.7079   -2.8073   18.1095 Cl      1  UNL1       -0.0814
     36 C           7.0039   -3.5621   20.2310 C.ar    1  UNL1        0.0099
@<TRIPOS>BOND
     1    18    19    2
     2    19    20   am
     3    20    22    1
     4    22    23   ar
     5    23    24   ar
     6    24    25   ar
     7    25    26   ar
     8    26    27   ar
     9    19     1    1
    10     1     2   ar
    11     2     3   ar
    12     3    28    1
    13    28    29    1
    14    29    30   ar
    15    30    31   ar
    16    31    32   ar
    17    32    33    1
    18    32    34   ar
    19    34    35    1
    20    34    36   ar
    21     3     4   ar
    22     4     5    2
    23     4     6   ar
    24     6     7   ar
    25     7     8   ar
    26     8     9   ar
    27     9    11    1
    28    11    12    1
    29    12    13    1
    30    13    14    1
    31    14    15    1
    32    15    16    1
    33     9    10   ar
    34    27    22   ar
    35    10     1   ar
    36    36    29   ar
    37    10     6   ar
    38    16    11    1
    39    20    21    1
    40    14    17    1
@<TRIPOS>MOLECULE
*****
 36 40 0 0 0
SMALL
GASTEIGER

@<TRIPOS>ATOM
      1 C           5.1163   -1.3545   21.8494 C.ar    1  UNL1        0.0884
      2 C           6.2359   -1.8476   22.7173 C.ar    1  UNL1        0.0846
      3 N           7.0135   -3.0664   22.3179 N.ar    1  UNL1       -0.2897
      4 C           6.6715   -3.7923   21.0505 C.ar    1  UNL1        0.2641
      5 O           7.4492   -5.0112   20.6511 O.2     1  UNL1       -0.2669
      6 C           5.5518   -3.2992   20.1826 C.ar    1  UNL1        0.0944
      7 C           4.9895   -3.8037   18.8867 C.ar    1  UNL1        0.1263
      8 N           3.8644   -2.8966   18.4853 N.ar    1  UNL1       -0.1676
      9 N           3.7313   -1.8315   19.5331 N.ar    1  UNL1       -0.2524
     10 C           4.7742   -2.0803   20.5821 C.ar    1  UNL1        0.0897
     11 C           2.7309   -0.7138   19.5320 C.3     1  UNL1        0.1079
     12 C           1.4322   -0.8690   20.2662 C.3     1  UNL1        0.0415
     13 C           0.4317    0.2487   20.2652 C.3     1  UNL1        0.0706
     14 N           0.7301    1.5216   19.5300 N.3     1  UNL1       -0.2974
     15 C           2.0290    1.6768   18.7957 C.3     1  UNL1        0.0706
     16 C           3.0294    0.5592   18.7968 C.3     1  UNL1        0.0415
     17 H           0.6880    2.2749   20.2164 H       1  UNL1        0.1232
     18 O           4.6006    1.1767   21.5710 O.2     1  UNL1       -0.2697
     19 C           4.3387   -0.1356   22.2489 C.2     1  UNL1        0.2524
     20 N           3.2991   -0.2289   23.3262 N.am    1  UNL1       -0.2802
     21 H           3.1272   -1.0901   23.7711 H       1  UNL1        0.1552
     22 C           2.5215    0.9901   23.7257 C.ar    1  UNL1        0.0537
     23 C           3.2257    2.1566   24.3529 C.ar    1  UNL1        0.0353
     24 C           2.4482    3.3756   24.7524 C.ar    1  UNL1        0.1002
     25 N           0.9665    3.4281   24.5245 N.ar    1  UNL1       -0.2422
     26 C           0.2624    2.2616   23.8972 C.ar    1  UNL1        0.1002
     27 C           1.0399    1.0427   23.4978 C.ar    1  UNL1        0.0353
     28 C           8.1333   -3.5595   23.1858 C.3     1  UNL1        0.1358
     29 C           7.9322   -4.7637   24.0573 C.ar    1  UNL1        0.0014
     30 C           8.4510   -6.1013   23.6195 C.ar    1  UNL1       -0.0015
     31 C           8.2499   -7.3055   24.4911 C.ar    1  UNL1        0.0120
     32 C           7.5301   -7.1721   25.8002 C.ar    1  UNL1        0.0682
     33 CL          7.3290   -8.3762   26.6718 Cl      1  UNL1       -0.0814
     34 C           7.0113   -5.8344   26.2380 C.ar    1  UNL1        0.0679
     35 CL          6.2915   -5.7010   27.5472 Cl      1  UNL1       -0.0814
     36 C           7.2124   -4.6302   25.3665 C.ar    1  UNL1        0.0099
@<TRIPOS>BOND
     1    18    19    2
     2    19    20   am
     3    20    22    1
     4    22    23   ar
     5    23    24   ar
     6    24    25   ar
     7    25    26   ar
     8    26    27   ar
     9    19     1    1
    10     1     2   ar
    11     2     3   ar
    12     3    28    1
    13    28    29    1
    14    29    30   ar
    15    30    31   ar
    16    31    32   ar
    17    32    33    1
    18    32    34   ar
    19    34    35    1
    20    34    36   ar
    21     3     4   ar
    22     4     5    2
    23     4     6   ar
    24     6     7   ar
    25     7     8   ar
    26     8     9   ar
    27     9    11    1
    28    11    12    1
    29    12    13    1
    30    13    14    1
    31    14    15    1
    32    15    16    1
    33     9    10   ar
    34    27    22   ar
    35    10     1   ar
    36    36    29   ar
    37    10     6   ar
    38    16    11    1
    39    20    21    1
    40    14    17    1
@<TRIPOS>MOLECULE
*****
 36 40 0 0 0
SMALL
GASTEIGER

@<TRIPOS>ATOM
      1 C           6.5148   -3.7896   26.2680 C.ar    1  UNL1        0.0884
      2 C           6.4655   -4.0405   27.7460 C.ar    1  UNL1        0.0846
      3 N           6.9620   -5.3418   28.3027 N.ar    1  UNL1       -0.2897
      4 C           7.5079   -6.3922   27.3815 C.ar    1  UNL1        0.2641
      5 O           8.0045   -7.6936   27.9383 O.2     1  UNL1       -0.2669
      6 C           7.5572   -6.1413   25.9034 C.ar    1  UNL1        0.0944
      7 C           8.0374   -6.9824   24.7581 C.ar    1  UNL1        0.1263
      8 N           7.8376   -6.2008   23.4934 N.ar    1  UNL1       -0.1676
      9 N           7.2339   -4.8768   23.8572 N.ar    1  UNL1       -0.2524
     10 C           7.0606   -4.8399   25.3467 C.ar    1  UNL1        0.0897
     11 C           6.8679   -3.7818   22.8996 C.3     1  UNL1        0.1079
     12 C           5.4820   -3.7162   22.3296 C.3     1  UNL1        0.0415
     13 C           5.1158   -2.6212   21.3720 C.3     1  UNL1        0.0706
     14 N           6.1356   -1.5918   20.9844 N.3     1  UNL1       -0.2974
     15 C           7.5216   -1.6574   21.5545 C.3     1  UNL1        0.0706
     16 C           7.8877   -2.7523   22.5120 C.3     1  UNL1        0.0415
     17 H           5.7519   -0.6839   21.2468 H       1  UNL1        0.1232
     18 O           6.9946   -1.4202   25.3160 O.2     1  UNL1       -0.2697
     19 C           6.0182   -2.4882   25.7113 C.2     1  UNL1        0.2524
     20 N           4.5453   -2.2549   25.5497 N.am    1  UNL1       -0.2802
     21 H           3.9045   -2.9558   25.8091 H       1  UNL1        0.1552
     22 C           4.0488   -0.9535   24.9930 C.ar    1  UNL1        0.0537
     23 C           3.3220   -0.9276   23.6811 C.ar    1  UNL1        0.0353
     24 C           2.8255    0.3737   23.1243 C.ar    1  UNL1        0.1002
     25 N           3.0558    1.6492   23.8794 N.ar    1  UNL1       -0.2422
     26 C           3.7826    1.6232   25.1913 C.ar    1  UNL1        0.1002
     27 C           4.2791    0.3220   25.7480 C.ar    1  UNL1        0.0353
     28 C           6.9128   -5.5928   29.7809 C.3     1  UNL1        0.1358
     29 C           7.4619   -4.5725   30.7335 C.ar    1  UNL1        0.0014
     30 C           8.9379   -4.5060   30.9924 C.ar    1  UNL1       -0.0015
     31 C           9.4869   -3.4857   31.9451 C.ar    1  UNL1        0.0120
     32 C           8.5601   -2.5321   32.6389 C.ar    1  UNL1        0.0682
     33 CL          9.1091   -1.5118   33.5916 Cl      1  UNL1       -0.0814
     34 C           7.0840   -2.5987   32.3800 C.ar    1  UNL1        0.0679
     35 CL          6.1572   -1.6450   33.0739 Cl      1  UNL1       -0.0814
     36 C           6.5349   -3.6189   31.4273 C.ar    1  UNL1        0.0099
@<TRIPOS>BOND
     1    18    19    2
     2    19    20   am
     3    20    22    1
     4    22    23   ar
     5    23    24   ar
     6    24    25   ar
     7    25    26   ar
     8    26    27   ar
     9    19     1    1
    10     1     2   ar
    11     2     3   ar
    12     3    28    1
    13    28    29    1
    14    29    30   ar
    15    30    31   ar
    16    31    32   ar
    17    32    33    1
    18    32    34   ar
    19    34    35    1
    20    34    36   ar
    21     3     4   ar
    22     4     5    2
    23     4     6   ar
    24     6     7   ar
    25     7     8   ar
    26     8     9   ar
    27     9    11    1
    28    11    12    1
    29    12    13    1
    30    13    14    1
    31    14    15    1
    32    15    16    1
    33     9    10   ar
    34    27    22   ar
    35    10     1   ar
    36    36    29   ar
    37    10     6   ar
    38    16    11    1
    39    20    21    1
    40    14    17    1
@<TRIPOS>MOLECULE
*****
 36 40 0 0 0
SMALL
GASTEIGER

@<TRIPOS>ATOM
      1 C          -2.2283    3.5782   20.6178 C.ar    1  UNL1        0.0884
      2 C          -0.9640    3.1415   21.2965 C.ar    1  UNL1        0.0846
      3 N           0.3126    3.0466   20.5148 N.ar    1  UNL1       -0.2897
      4 C           0.3250    3.3884   19.0542 C.ar    1  UNL1        0.2641
      5 O           1.6017    3.2934   18.2725 O.2     1  UNL1       -0.2669
      6 C          -0.9394    3.8250   18.3755 C.ar    1  UNL1        0.0944
      7 C          -1.2323    4.2231   16.9593 C.ar    1  UNL1        0.1263
      8 N          -2.6901    4.5641   16.8658 N.ar    1  UNL1       -0.1676
      9 N          -3.2980    4.3768   18.2242 N.ar    1  UNL1       -0.2524
     10 C          -2.2160    3.9200   19.1573 C.ar    1  UNL1        0.0897
     11 C          -4.7356    4.6059   18.5860 C.3     1  UNL1        0.1079
     12 C          -5.7213    3.4792   18.4923 C.3     1  UNL1        0.0415
     13 C          -7.1590    3.7084   18.8541 C.3     1  UNL1        0.0706
     14 N          -7.6107    5.0642   19.3096 N.3     1  UNL1       -0.2974
     15 C          -6.6249    6.1909   19.4033 C.3     1  UNL1        0.0706
     16 C          -5.1874    5.9618   19.0416 C.3     1  UNL1        0.0415
     17 H          -8.0101    4.9441   20.2404 H       1  UNL1        0.1232
     18 O          -4.4439    2.5042   21.4473 O.2     1  UNL1       -0.2697
     19 C          -3.5050    3.6732   21.3996 C.2     1  UNL1        0.2524
     20 N          -3.8427    4.9369   22.1335 N.am    1  UNL1       -0.2802
     21 H          -3.2266    5.7041   22.1022 H       1  UNL1        0.1552
     22 C          -5.1194    5.0318   22.9153 C.ar    1  UNL1        0.0537
     23 C          -5.1695    5.8467   24.1736 C.ar    1  UNL1        0.0353
     24 C          -6.4461    5.9416   24.9554 C.ar    1  UNL1        0.1002
     25 N          -7.6727    5.2216   24.4789 N.ar    1  UNL1       -0.2422
     26 C          -7.6226    4.4066   23.2206 C.ar    1  UNL1        0.1002
     27 C          -6.3460    4.3118   22.4388 C.ar    1  UNL1        0.0353
     28 C           1.5771    2.6099   21.1936 C.3     1  UNL1        0.1358
     29 C           2.1715    1.2687   20.8807 C.ar    1  UNL1        0.0014
     30 C           1.2797    0.1210   20.5103 C.ar    1  UNL1       -0.0015
     31 C           1.8742   -1.2202   20.1974 C.ar    1  UNL1        0.0120
     32 C           3.3605   -1.4136   20.2551 C.ar    1  UNL1        0.0682
     33 CL          3.9551   -2.7547   19.9423 Cl      1  UNL1       -0.0814
     34 C           4.2524   -0.2658   20.6256 C.ar    1  UNL1        0.0679
     35 CL          5.7388   -0.4592   20.6833 Cl      1  UNL1       -0.0814
     36 C           3.6579    1.0754   20.9384 C.ar    1  UNL1        0.0099
@<TRIPOS>BOND
     1    18    19    2
     2    19    20   am
     3    20    22    1
     4    22    23   ar
     5    23    24   ar
     6    24    25   ar
     7    25    26   ar
     8    26    27   ar
     9    19     1    1
    10     1     2   ar
    11     2     3   ar
    12     3    28    1
    13    28    29    1
    14    29    30   ar
    15    30    31   ar
    16    31    32   ar
    17    32    33    1
    18    32    34   ar
    19    34    35    1
    20    34    36   ar
    21     3     4   ar
    22     4     5    2
    23     4     6   ar
    24     6     7   ar
    25     7     8   ar
    26     8     9   ar
    27     9    11    1
    28    11    12    1
    29    12    13    1
    30    13    14    1
    31    14    15    1
    32    15    16    1
    33     9    10   ar
    34    27    22   ar
    35    10     1   ar
    36    36    29   ar
    37    10     6   ar
    38    16    11    1
    39    20    21    1
    40    14    17    1
@<TRIPOS>MOLECULE
*****
 36 40 0 0 0
SMALL
GASTEIGER

@<TRIPOS>ATOM
      1 C           1.4574    1.4947   21.0982 C.ar    1  UNL1        0.0884
      2 C           0.5045    1.8621   22.1968 C.ar    1  UNL1        0.0846
      3 N          -0.0080    3.2675   22.3062 N.ar    1  UNL1       -0.2897
      4 C           0.4324    4.3057   21.3171 C.ar    1  UNL1        0.2641
      5 O          -0.0802    5.7112   21.4266 O.2     1  UNL1       -0.2669
      6 C           1.3854    3.9383   20.2185 C.ar    1  UNL1        0.0944
      7 C           1.9921    4.7409   19.1060 C.ar    1  UNL1        0.1263
      8 N           2.8796    3.8315   18.3090 N.ar    1  UNL1       -0.1676
      9 N           2.8214    2.4668   18.9289 N.ar    1  UNL1       -0.2524
     10 C           1.8979    2.5328   20.1091 C.ar    1  UNL1        0.0897
     11 C           3.5575    1.2498   18.4523 C.3     1  UNL1        0.1079
     12 C           4.9896    1.0379   18.8448 C.3     1  UNL1        0.0415
     13 C           5.7257   -0.1791   18.3682 C.3     1  UNL1        0.0706
     14 N           5.0297   -1.1841   17.4992 N.3     1  UNL1       -0.2974
     15 C           3.5975   -0.9722   17.1067 C.3     1  UNL1        0.0706
     16 C           2.8614    0.2447   17.5832 C.3     1  UNL1        0.0415
     17 H           5.0714   -2.0771   17.9903 H       1  UNL1        0.1232
     18 O           1.2026   -0.9295   20.1991 O.2     1  UNL1       -0.2697
     19 C           1.9700    0.0893   20.9888 C.2     1  UNL1        0.2524
     20 N           3.2497   -0.2975   21.6689 N.am    1  UNL1       -0.2802
     21 H           3.7534    0.3712   22.1871 H       1  UNL1        0.1552
     22 C           3.7622   -1.7030   21.5594 C.ar    1  UNL1        0.0537
     23 C           4.3881   -2.3678   22.7494 C.ar    1  UNL1        0.0353
     24 C           4.9006   -3.7733   22.6400 C.ar    1  UNL1        0.1002
     25 N           4.7872   -4.5140   21.3406 N.ar    1  UNL1       -0.2422
     26 C           4.1612   -3.8490   20.1505 C.ar    1  UNL1        0.1002
     27 C           3.6488   -2.4436   20.2599 C.ar    1  UNL1        0.0353
     28 C          -0.9611    3.6349   23.4049 C.3     1  UNL1        0.1358
     29 C          -2.4329    3.7122   23.1263 C.ar    1  UNL1        0.0014
     30 C          -2.9396    3.5599   21.7227 C.ar    1  UNL1       -0.0015
     31 C          -4.4115    3.6372   21.4441 C.ar    1  UNL1        0.0120
     32 C          -5.3767    3.8668   22.5691 C.ar    1  UNL1        0.0682
     33 CL         -6.8486    3.9441   22.2906 Cl      1  UNL1       -0.0814
     34 C          -4.8700    4.0191   23.9727 C.ar    1  UNL1        0.0679
     35 CL         -5.8352    4.2487   25.0977 Cl      1  UNL1       -0.0814
     36 C          -3.3981    3.9418   24.2513 C.ar    1  UNL1        0.0099
@<TRIPOS>BOND
     1    18    19    2
     2    19    20   am
     3    20    22    1
     4    22    23   ar
     5    23    24   ar
     6    24    25   ar
     7    25    26   ar
     8    26    27   ar
     9    19     1    1
    10     1     2   ar
    11     2     3   ar
    12     3    28    1
    13    28    29    1
    14    29    30   ar
    15    30    31   ar
    16    31    32   ar
    17    32    33    1
    18    32    34   ar
    19    34    35    1
    20    34    36   ar
    21     3     4   ar
    22     4     5    2
    23     4     6   ar
    24     6     7   ar
    25     7     8   ar
    26     8     9   ar
    27     9    11    1
    28    11    12    1
    29    12    13    1
    30    13    14    1
    31    14    15    1
    32    15    16    1
    33     9    10   ar
    34    27    22   ar
    35    10     1   ar
    36    36    29   ar
    37    10     6   ar
    38    16    11    1
    39    20    21    1
    40    14    17    1
@<TRIPOS>MOLECULE
*****
 36 40 0 0 0
SMALL
GASTEIGER

@<TRIPOS>ATOM
      1 C           2.7276    0.3272   22.7568 C.ar    1  UNL1        0.0884
      2 C           1.9382    1.1209   23.7553 C.ar    1  UNL1        0.0846
      3 N           0.6878    1.8311   23.3289 N.ar    1  UNL1       -0.2897
      4 C           0.2266    1.7476   21.9039 C.ar    1  UNL1        0.2641
      5 O          -1.0240    2.4579   21.4776 O.2     1  UNL1       -0.2669
      6 C           1.0159    0.9540   20.9055 C.ar    1  UNL1        0.0944
      7 C           0.8097    0.6919   19.4430 C.ar    1  UNL1        0.1263
      8 N           1.9327   -0.1804   18.9656 N.ar    1  UNL1       -0.1676
      9 N           2.8330   -0.4574   20.1330 N.ar    1  UNL1       -0.2524
     10 C           2.2664    0.2437   21.3319 C.ar    1  UNL1        0.0897
     11 C           4.0809   -1.2893   20.1061 C.3     1  UNL1        0.1079
     12 C           3.9971   -2.7735   20.3062 C.3     1  UNL1        0.0415
     13 C           5.2450   -3.6056   20.2793 C.3     1  UNL1        0.0706
     14 N           6.5765   -2.9534   20.0524 N.3     1  UNL1       -0.2974
     15 C           6.6602   -1.4691   19.8523 C.3     1  UNL1        0.0706
     16 C           5.4125   -0.6371   19.8792 C.3     1  UNL1        0.0415
     17 H           6.9782   -3.3858   19.2205 H       1  UNL1        0.1232
     18 O           5.3195    0.2291   22.9073 O.2     1  UNL1       -0.2697
     19 C           3.9781   -0.3831   23.1832 C.2     1  UNL1        0.2524
     20 N           3.8872   -1.7054   23.8855 N.am    1  UNL1       -0.2802
     21 H           3.0068   -2.1071   24.0666 H       1  UNL1        0.1552
     22 C           5.1378   -2.4155   24.3119 C.ar    1  UNL1        0.0537
     23 C           5.8887   -1.9496   25.5239 C.ar    1  UNL1        0.0353
     24 C           7.1392   -2.6597   25.9504 C.ar    1  UNL1        0.1002
     25 N           7.6389   -3.8358   25.1648 N.ar    1  UNL1       -0.2422
     26 C           6.8879   -4.3017   23.9528 C.ar    1  UNL1        0.1002
     27 C           5.6375   -3.5916   23.5264 C.ar    1  UNL1        0.0353
     28 C          -0.1016    2.6248   24.3275 C.3     1  UNL1        0.1358
     29 C           0.0742    2.3705   25.7952 C.ar    1  UNL1        0.0014
     30 C           0.8882    3.3160   26.6280 C.ar    1  UNL1       -0.0015
     31 C           1.0640    3.0617   28.0958 C.ar    1  UNL1        0.0120
     32 C           0.4259    1.8620   28.7308 C.ar    1  UNL1        0.0682
     33 CL          0.6016    1.6076   30.1986 Cl      1  UNL1       -0.0814
     34 C          -0.3882    0.9164   27.8980 C.ar    1  UNL1        0.0679
     35 CL         -1.0263   -0.2834   28.5331 Cl      1  UNL1       -0.0814
     36 C          -0.5640    1.1707   26.4302 C.ar    1  UNL1        0.0099
@<TRIPOS>BOND
     1    18    19    2
     2    19    20   am
     3    20    22    1
     4    22    23   ar
     5    23    24   ar
     6    24    25   ar
     7    25    26   ar
     8    26    27   ar
     9    19     1    1
    10     1     2   ar
    11     2     3   ar
    12     3    28    1
    13    28    29    1
    14    29    30   ar
    15    30    31   ar
    16    31    32   ar
    17    32    33    1
    18    32    34   ar
    19    34    35    1
    20    34    36   ar
    21     3     4   ar
    22     4     5    2
    23     4     6   ar
    24     6     7   ar
    25     7     8   ar
    26     8     9   ar
    27     9    11    1
    28    11    12    1
    29    12    13    1
    30    13    14    1
    31    14    15    1
    32    15    16    1
    33     9    10   ar
    34    27    22   ar
    35    10     1   ar
    36    36    29   ar
    37    10     6   ar
    38    16    11    1
    39    20    21    1
    40    14    17    1
@<TRIPOS>MOLECULE
*****
 36 40 0 0 0
SMALL
GASTEIGER

@<TRIPOS>ATOM
      1 C           5.5748   -1.3040   29.3995 C.ar    1  UNL1        0.0884
      2 C           4.7517   -0.0499   29.4054 C.ar    1  UNL1        0.0846
      3 N           4.0434    0.3764   30.6569 N.ar    1  UNL1       -0.2897
      4 C           4.1581   -0.4512   31.9027 C.ar    1  UNL1        0.2641
      5 O           3.4497   -0.0247   33.1543 O.2     1  UNL1       -0.2669
      6 C           4.9811   -1.7052   31.8968 C.ar    1  UNL1        0.0944
      7 C           5.2771   -2.7165   32.9644 C.ar    1  UNL1        0.1263
      8 N           6.1684   -3.7678   32.3726 N.ar    1  UNL1       -0.1676
      9 N           6.4233   -3.4064   30.9393 N.ar    1  UNL1       -0.2524
     10 C           5.6895   -2.1316   30.6453 C.ar    1  UNL1        0.0897
     11 C           7.2642   -4.1833   29.9702 C.3     1  UNL1        0.1079
     12 C           8.6756   -3.7578   29.6931 C.3     1  UNL1        0.0415
     13 C           9.5167   -4.5348   28.7240 C.3     1  UNL1        0.0706
     14 N           8.9463   -5.7371   28.0321 N.3     1  UNL1       -0.2974
     15 C           7.5348   -6.1626   28.3093 C.3     1  UNL1        0.0706
     16 C           6.6938   -5.3858   29.2783 C.3     1  UNL1        0.0415
     17 H           9.5447   -6.5271   28.2733 H       1  UNL1        0.1232
     18 O           7.7164   -1.3456   27.9292 O.2     1  UNL1       -0.2697
     19 C           6.2831   -1.7303   28.1479 C.2     1  UNL1        0.2524
     20 N           5.5582   -2.5414   27.1151 N.am    1  UNL1       -0.2802
     21 H           4.6176   -2.7939   27.2587 H       1  UNL1        0.1552
     22 C           6.2667   -2.9677   25.8635 C.ar    1  UNL1        0.0537
     23 C           6.5795   -1.9591   24.7982 C.ar    1  UNL1        0.0353
     24 C           7.2879   -2.3854   23.5466 C.ar    1  UNL1        0.1002
     25 N           7.6835   -3.8202   23.3603 N.ar    1  UNL1       -0.2422
     26 C           7.3706   -4.8288   24.4257 C.ar    1  UNL1        0.1002
     27 C           6.6622   -4.4026   25.6772 C.ar    1  UNL1        0.0353
     28 C           3.2204    1.6305   30.6627 C.3     1  UNL1        0.1358
     29 C           2.0440    1.7599   29.7411 C.ar    1  UNL1        0.0014
     30 C           1.8803    2.9927   28.9025 C.ar    1  UNL1       -0.0015
     31 C           0.7039    3.1220   27.9808 C.ar    1  UNL1        0.0120
     32 C          -0.3087    2.0186   27.8978 C.ar    1  UNL1        0.0682
     33 CL         -1.4851    2.1478   26.9762 Cl      1  UNL1       -0.0814
     34 C          -0.1450    0.7857   28.7365 C.ar    1  UNL1        0.0679
     35 CL         -1.1576   -0.3178   28.6535 Cl      1  UNL1       -0.0814
     36 C           1.0314    0.6563   29.6582 C.ar    1  UNL1        0.0099
@<TRIPOS>BOND
     1    18    19    2
     2    19    20   am
     3    20    22    1
     4    22    23   ar
     5    23    24   ar
     6    24    25   ar
     7    25    26   ar
     8    26    27   ar
     9    19     1    1
    10     1     2   ar
    11     2     3   ar
    12     3    28    1
    13    28    29    1
    14    29    30   ar
    15    30    31   ar
    16    31    32   ar
    17    32    33    1
    18    32    34   ar
    19    34    35    1
    20    34    36   ar
    21     3     4   ar
    22     4     5    2
    23     4     6   ar
    24     6     7   ar
    25     7     8   ar
    26     8     9   ar
    27     9    11    1
    28    11    12    1
    29    12    13    1
    30    13    14    1
    31    14    15    1
    32    15    16    1
    33     9    10   ar
    34    27    22   ar
    35    10     1   ar
    36    36    29   ar
    37    10     6   ar
    38    16    11    1
    39    20    21    1
    40    14    17    1
