@<TRIPOS>MOLECULE
*****
 33 36 0 0 0
SMALL
GASTEIGER

@<TRIPOS>ATOM
      1 C          -4.4110  -20.7909   20.5199 C.3     1  UNL1        0.0276
      2 C          -5.2635  -19.7205   21.1344 C.3     1  UNL1        0.1109
      3 C          -6.3063  -20.7671   20.8748 C.3     1  UNL1        0.0276
      4 C          -6.4781  -19.0136   21.6587 C.ar    1  UNL1        0.1375
      5 N          -7.9186  -19.4229   21.7449 N.ar    1  UNL1       -0.2280
      6 C          -8.6847  -18.2942   22.3687 C.ar    1  UNL1        0.1125
      7 C          -7.7177  -17.1873   22.6680 C.ar    1  UNL1        0.1318
      8 N          -6.3539  -17.6319   22.2292 N.ar    1  UNL1       -0.3006
      9 C          -5.0151  -16.9571   22.2754 C.3     1  UNL1        0.1299
     10 C          -3.8005  -17.6640   21.7511 C.3     1  UNL1        0.1182
     11 N          -3.9247  -19.0457   21.1805 N.am    1  UNL1       -0.2732
     12 C          -2.7100  -19.7526   20.6562 C.2     1  UNL1        0.2418
     13 O          -2.8342  -21.1343   20.0857 O.2     1  UNL1       -0.2734
     14 C         -10.1590  -18.2757   22.6448 C.ar    1  UNL1        0.0205
     15 C         -10.6694  -18.6041   24.0165 C.ar    1  UNL1        0.0039
     16 C         -12.1436  -18.5856   24.2925 C.ar    1  UNL1        0.0297
     17 C         -13.1075  -18.2386   23.1969 C.ar    1  UNL1        0.1401
     18 F         -14.5818  -18.2200   23.4730 F       1  UNL1       -0.2042
     19 C         -12.5971  -17.9101   21.8252 C.ar    1  UNL1        0.0297
     20 C         -11.1229  -17.9287   21.5492 C.ar    1  UNL1        0.0039
     21 C          -1.3712  -19.0779   20.7024 C.3     1  UNL1        0.1517
     22 N          -0.7753  -18.5072   19.4496 N.3     1  UNL1       -0.3135
     23 H          -0.5628  -19.2635   18.7991 H       1  UNL1        0.1193
     24 H           0.0825  -18.0052   19.6792 H       1  UNL1        0.1193
     25 N          -8.0551  -15.8675   23.2959 N.pl3   1  UNL1       -0.2980
     26 H          -8.5431  -15.1868   22.7786 H       1  UNL1        0.1536
     27 C          -7.6489  -15.5849   24.7119 C.ar    1  UNL1        0.0495
     28 C          -6.2123  -15.3017   25.0378 C.ar    1  UNL1        0.0169
     29 C          -5.8061  -15.0190   26.4538 C.ar    1  UNL1        0.0309
     30 C          -6.8365  -15.0195   27.5439 C.ar    1  UNL1        0.1402
     31 F          -6.4302  -14.7369   28.9599 F       1  UNL1       -0.2042
     32 C          -8.2730  -15.3027   27.2180 C.ar    1  UNL1        0.0309
     33 C          -8.6792  -15.5853   25.8021 C.ar    1  UNL1        0.0169
@<TRIPOS>BOND
     1     1     2    1
     2     2     3    1
     3     2     4    1
     4     4     5   ar
     5     5     6   ar
     6     6    14    1
     7    14    15   ar
     8    15    16   ar
     9    16    17   ar
    10    17    18    1
    11    17    19   ar
    12    19    20   ar
    13     6     7   ar
    14     7    25    1
    15    25    27    1
    16    27    28   ar
    17    28    29   ar
    18    29    30   ar
    19    30    31    1
    20    30    32   ar
    21    32    33   ar
    22     7     8   ar
    23     8     9    1
    24     9    10    1
    25    10    11    1
    26    11    12   am
    27    12    13    2
    28    12    21    1
    29    21    22    1
    30    11     2    1
    31     8     4   ar
    32    20    14   ar
    33    33    27   ar
    34    25    26    1
    35    22    23    1
    36    22    24    1
@<TRIPOS>MOLECULE
*****
 33 36 0 0 0
SMALL
GASTEIGER

@<TRIPOS>ATOM
      1 C           7.1959   -5.9386   28.2564 C.3     1  UNL1        0.0276
      2 C           6.8340   -4.8067   27.3410 C.3     1  UNL1        0.1109
      3 C           7.0749   -5.8906   26.3324 C.3     1  UNL1        0.0276
      4 C           6.5558   -4.0513   26.0754 C.ar    1  UNL1        0.1375
      5 N           6.5879   -4.4626   24.6332 N.ar    1  UNL1       -0.2280
      6 C           6.2143   -3.2707   23.8028 C.ar    1  UNL1        0.1125
      7 C           5.9513   -2.1227   24.7317 C.ar    1  UNL1        0.1318
      8 N           6.1623   -2.6051   26.1362 N.ar    1  UNL1       -0.3006
      9 C           6.0471   -1.9143   27.4627 C.3     1  UNL1        0.1299
     10 C           6.3253   -2.6698   28.7283 C.3     1  UNL1        0.1182
     11 N           6.7188   -4.1160   28.6674 N.am    1  UNL1       -0.2732
     12 C           6.9970   -4.8715   29.9332 C.2     1  UNL1        0.2418
     13 O           7.3904   -6.3177   29.8723 O.2     1  UNL1       -0.2734
     14 C           6.1202   -3.2333   22.3062 C.ar    1  UNL1        0.0205
     15 C           4.8680   -3.6954   21.6217 C.ar    1  UNL1        0.0039
     16 C           4.7739   -3.6580   20.1251 C.ar    1  UNL1        0.0297
     17 C           5.9320   -3.1586   19.3130 C.ar    1  UNL1        0.1401
     18 F           5.8379   -3.1213   17.8164 F       1  UNL1       -0.2042
     19 C           7.1841   -2.6966   19.9975 C.ar    1  UNL1        0.0297
     20 C           7.2782   -2.7339   21.4941 C.ar    1  UNL1        0.0039
     21 C           6.8817   -4.1807   31.2596 C.3     1  UNL1        0.1517
     22 N           6.4111   -4.9421   32.4634 N.3     1  UNL1       -0.3135
     23 H           5.4388   -5.2204   32.3309 H       1  UNL1        0.1193
     24 H           6.4856   -4.3500   33.2906 H       1  UNL1        0.1193
     25 N           5.5480   -0.7357   24.3271 N.pl3   1  UNL1       -0.2980
     26 H           5.8176    0.0353   24.8767 H       1  UNL1        0.1536
     27 C           4.7341   -0.5235   23.0852 C.ar    1  UNL1        0.0495
     28 C           3.3029   -0.9707   23.0408 C.ar    1  UNL1        0.0169
     29 C           2.4889   -0.7584   21.7989 C.ar    1  UNL1        0.0309
     30 C           3.1061   -0.0989   20.6013 C.ar    1  UNL1        0.1402
     31 F           2.2921    0.1133   19.3594 F       1  UNL1       -0.2042
     32 C           4.5371    0.3482   20.6457 C.ar    1  UNL1        0.0309
     33 C           5.3512    0.1360   21.8876 C.ar    1  UNL1        0.0169
@<TRIPOS>BOND
     1     1     2    1
     2     2     3    1
     3     2     4    1
     4     4     5   ar
     5     5     6   ar
     6     6    14    1
     7    14    15   ar
     8    15    16   ar
     9    16    17   ar
    10    17    18    1
    11    17    19   ar
    12    19    20   ar
    13     6     7   ar
    14     7    25    1
    15    25    27    1
    16    27    28   ar
    17    28    29   ar
    18    29    30   ar
    19    30    31    1
    20    30    32   ar
    21    32    33   ar
    22     7     8   ar
    23     8     9    1
    24     9    10    1
    25    10    11    1
    26    11    12   am
    27    12    13    2
    28    12    21    1
    29    21    22    1
    30    11     2    1
    31     8     4   ar
    32    20    14   ar
    33    33    27   ar
    34    25    26    1
    35    22    23    1
    36    22    24    1
@<TRIPOS>MOLECULE
*****
 33 36 0 0 0
SMALL
GASTEIGER

@<TRIPOS>ATOM
      1 C           3.6269   -1.5790   20.7215 C.3     1  UNL1        0.0276
      2 C           2.8731   -0.4663   21.3877 C.3     1  UNL1        0.1109
      3 C           3.2289   -1.2944   22.5868 C.3     1  UNL1        0.0276
      4 C           2.2430    0.3588   22.4703 C.ar    1  UNL1        0.1375
      5 N           2.1723    0.1779   23.9577 N.ar    1  UNL1       -0.2280
      6 C           1.4045    1.3328   24.5292 C.ar    1  UNL1        0.1125
      7 C           1.0006    2.2274   23.3950 C.ar    1  UNL1        0.1318
      8 N           1.5188    1.6255   22.1226 N.ar    1  UNL1       -0.3006
      9 C           1.4247    2.0672   20.6922 C.3     1  UNL1        0.1299
     10 C           2.0549    1.2421   19.6096 C.3     1  UNL1        0.1182
     11 N           2.7791   -0.0246   19.9573 N.am    1  UNL1       -0.2732
     12 C           3.4093   -0.8497   18.8746 C.2     1  UNL1        0.2418
     13 O           4.1335   -2.1165   19.2224 O.2     1  UNL1       -0.2734
     14 C           1.0950    1.5541   25.9801 C.ar    1  UNL1        0.0205
     15 C          -0.2797    1.2653   26.5063 C.ar    1  UNL1        0.0039
     16 C          -0.5892    1.4867   27.9572 C.ar    1  UNL1        0.0297
     17 C           0.4759    1.9969   28.8820 C.ar    1  UNL1        0.1401
     18 F           0.1663    2.2182   30.3329 F       1  UNL1       -0.2042
     19 C           1.8505    2.2857   28.3558 C.ar    1  UNL1        0.0297
     20 C           2.1601    2.0643   26.9049 C.ar    1  UNL1        0.0039
     21 C           3.3152   -0.4081   17.4442 C.3     1  UNL1        0.1517
     22 N           3.8547   -1.2834   16.3520 N.3     1  UNL1       -0.3135
     23 H           4.8682   -1.3543   16.4424 H       1  UNL1        0.1193
     24 H           3.6217   -0.8782   15.4453 H       1  UNL1        0.1193
     25 N           0.2162    3.5006   23.5126 N.pl3   1  UNL1       -0.2980
     26 H           0.6763    4.3442   23.7267 H       1  UNL1        0.1536
     27 C          -1.2691    3.4884   23.3041 C.ar    1  UNL1        0.0495
     28 C          -1.8312    3.4772   21.9133 C.ar    1  UNL1        0.0169
     29 C          -3.3165    3.4650   21.7047 C.ar    1  UNL1        0.0309
     30 C          -4.2399    3.4641   22.8868 C.ar    1  UNL1        0.1402
     31 F          -5.7253    3.4520   22.6782 F       1  UNL1       -0.2042
     32 C          -3.6779    3.4754   24.2775 C.ar    1  UNL1        0.0309
     33 C          -2.1925    3.4875   24.4861 C.ar    1  UNL1        0.0169
@<TRIPOS>BOND
     1     1     2    1
     2     2     3    1
     3     2     4    1
     4     4     5   ar
     5     5     6   ar
     6     6    14    1
     7    14    15   ar
     8    15    16   ar
     9    16    17   ar
    10    17    18    1
    11    17    19   ar
    12    19    20   ar
    13     6     7   ar
    14     7    25    1
    15    25    27    1
    16    27    28   ar
    17    28    29   ar
    18    29    30   ar
    19    30    31    1
    20    30    32   ar
    21    32    33   ar
    22     7     8   ar
    23     8     9    1
    24     9    10    1
    25    10    11    1
    26    11    12   am
    27    12    13    2
    28    12    21    1
    29    21    22    1
    30    11     2    1
    31     8     4   ar
    32    20    14   ar
    33    33    27   ar
    34    25    26    1
    35    22    23    1
    36    22    24    1
@<TRIPOS>MOLECULE
*****
 33 36 0 0 0
SMALL
GASTEIGER

@<TRIPOS>ATOM
      1 C           7.1537   -6.0906   28.4867 C.3     1  UNL1        0.0276
      2 C           6.8695   -4.9437   27.5627 C.3     1  UNL1        0.1109
      3 C           6.9464   -6.0654   26.5697 C.3     1  UNL1        0.0276
      4 C           6.6119   -4.1864   26.2938 C.ar    1  UNL1        0.1375
      5 N           6.5314   -4.6252   24.8617 N.ar    1  UNL1       -0.2280
      6 C           6.2459   -3.4158   24.0216 C.ar    1  UNL1        0.1125
      7 C           6.1499   -2.2295   24.9345 C.ar    1  UNL1        0.1318
      8 N           6.3762   -2.7057   26.3388 N.ar    1  UNL1       -0.3006
      9 C           6.3979   -1.9823   27.6526 C.3     1  UNL1        0.1299
     10 C           6.6555   -2.7397   28.9215 C.3     1  UNL1        0.1182
     11 N           6.8913   -4.2203   28.8765 N.am    1  UNL1       -0.2732
     12 C           7.1488   -4.9777   30.1455 C.2     1  UNL1        0.2418
     13 O           7.3846   -6.4583   30.1005 O.2     1  UNL1       -0.2734
     14 C           6.0846   -3.3962   22.5304 C.ar    1  UNL1        0.0205
     15 C           7.2342   -2.9894   21.6570 C.ar    1  UNL1        0.0039
     16 C           7.0729   -2.9698   20.1658 C.ar    1  UNL1        0.0297
     17 C           5.7621   -3.3570   19.5480 C.ar    1  UNL1        0.1401
     18 F           5.6008   -3.3374   18.0569 F       1  UNL1       -0.2042
     19 C           4.6125   -3.7637   20.4215 C.ar    1  UNL1        0.0297
     20 C           4.7737   -3.7834   21.9126 C.ar    1  UNL1        0.0039
     21 C           7.1706   -4.2543   31.4593 C.3     1  UNL1        0.1517
     22 N           6.2833   -4.7084   32.5803 N.3     1  UNL1       -0.3135
     23 H           5.3074   -4.5631   32.3217 H       1  UNL1        0.1193
     24 H           6.4958   -4.1713   33.4211 H       1  UNL1        0.1193
     25 N           5.8759   -0.8152   24.5165 N.pl3   1  UNL1       -0.2980
     26 H           6.6236   -0.2115   24.3027 H       1  UNL1        0.1536
     27 C           4.4628   -0.3208   24.4242 C.ar    1  UNL1        0.0495
     28 C           3.7211   -0.4080   23.1232 C.ar    1  UNL1        0.0169
     29 C           2.3080    0.0864   23.0309 C.ar    1  UNL1        0.0309
     30 C           1.6364    0.6680   24.2395 C.ar    1  UNL1        0.1402
     31 F           0.2233    1.1624   24.1472 F       1  UNL1       -0.2042
     32 C           2.3780    0.7552   25.5404 C.ar    1  UNL1        0.0309
     33 C           3.7912    0.2608   25.6328 C.ar    1  UNL1        0.0169
@<TRIPOS>BOND
     1     1     2    1
     2     2     3    1
     3     2     4    1
     4     4     5   ar
     5     5     6   ar
     6     6    14    1
     7    14    15   ar
     8    15    16   ar
     9    16    17   ar
    10    17    18    1
    11    17    19   ar
    12    19    20   ar
    13     6     7   ar
    14     7    25    1
    15    25    27    1
    16    27    28   ar
    17    28    29   ar
    18    29    30   ar
    19    30    31    1
    20    30    32   ar
    21    32    33   ar
    22     7     8   ar
    23     8     9    1
    24     9    10    1
    25    10    11    1
    26    11    12   am
    27    12    13    2
    28    12    21    1
    29    21    22    1
    30    11     2    1
    31     8     4   ar
    32    20    14   ar
    33    33    27   ar
    34    25    26    1
    35    22    23    1
    36    22    24    1
@<TRIPOS>MOLECULE
*****
 33 36 0 0 0
SMALL
GASTEIGER

@<TRIPOS>ATOM
      1 C           0.0342    1.1804   28.5595 C.3     1  UNL1        0.0276
      2 C           0.8966    1.0392   27.3403 C.3     1  UNL1        0.1109
      3 C          -0.3828    1.4943   26.7031 C.3     1  UNL1        0.0276
      4 C           1.3146    1.0561   25.8998 C.ar    1  UNL1        0.1375
      5 N           0.5741    1.4086   24.6439 N.ar    1  UNL1       -0.2280
      6 C           1.5144    1.2373   23.4878 C.ar    1  UNL1        0.1125
      7 C           2.8360    0.7789   24.0292 C.ar    1  UNL1        0.1318
      8 N           2.7126    0.6669   25.5199 N.ar    1  UNL1       -0.3006
      9 C           3.6925    0.2608   26.5805 C.3     1  UNL1        0.1299
     10 C           3.2745    0.2440   28.0209 C.3     1  UNL1        0.1182
     11 N           1.8765    0.6331   28.4008 N.am    1  UNL1       -0.2732
     12 C           1.4585    0.6162   29.8414 C.2     1  UNL1        0.2418
     13 O           0.0606    1.0054   30.2212 O.2     1  UNL1       -0.2734
     14 C           1.1899    1.4815   22.0438 C.ar    1  UNL1        0.0205
     15 C           1.2899    2.8665   21.4764 C.ar    1  UNL1        0.0039
     16 C           0.9655    3.1107   20.0324 C.ar    1  UNL1        0.0297
     17 C           0.5411    1.9699   19.1558 C.ar    1  UNL1        0.1401
     18 F           0.2167    2.2142   17.7118 F       1  UNL1       -0.2042
     19 C           0.4411    0.5850   19.7231 C.ar    1  UNL1        0.0297
     20 C           0.7655    0.3408   21.1671 C.ar    1  UNL1        0.0039
     21 C           2.4384    0.2102   30.9019 C.3     1  UNL1        0.1517
     22 N           2.6310   -1.2411   31.2292 N.3     1  UNL1       -0.3135
     23 H           1.7737   -1.6143   31.6369 H       1  UNL1        0.1193
     24 H           3.3962   -1.3406   31.8962 H       1  UNL1        0.1193
     25 N           4.0653    0.4842   23.2217 N.pl3   1  UNL1       -0.2980
     26 H           4.8040    1.1345   23.1946 H       1  UNL1        0.1536
     27 C           4.1691   -0.8010   22.4555 C.ar    1  UNL1        0.0495
     28 C           4.3426   -2.0988   23.1876 C.ar    1  UNL1        0.0169
     29 C           4.4465   -3.3841   22.4215 C.ar    1  UNL1        0.0309
     30 C           4.3767   -3.3718   20.9231 C.ar    1  UNL1        0.1402
     31 F           4.4806   -4.6572   20.1570 F       1  UNL1       -0.2042
     32 C           4.2032   -2.0742   20.1910 C.ar    1  UNL1        0.0309
     33 C           4.0994   -0.7888   20.9572 C.ar    1  UNL1        0.0169
@<TRIPOS>BOND
     1     1     2    1
     2     2     3    1
     3     2     4    1
     4     4     5   ar
     5     5     6   ar
     6     6    14    1
     7    14    15   ar
     8    15    16   ar
     9    16    17   ar
    10    17    18    1
    11    17    19   ar
    12    19    20   ar
    13     6     7   ar
    14     7    25    1
    15    25    27    1
    16    27    28   ar
    17    28    29   ar
    18    29    30   ar
    19    30    31    1
    20    30    32   ar
    21    32    33   ar
    22     7     8   ar
    23     8     9    1
    24     9    10    1
    25    10    11    1
    26    11    12   am
    27    12    13    2
    28    12    21    1
    29    21    22    1
    30    11     2    1
    31     8     4   ar
    32    20    14   ar
    33    33    27   ar
    34    25    26    1
    35    22    23    1
    36    22    24    1
@<TRIPOS>MOLECULE
*****
 33 36 0 0 0
SMALL
GASTEIGER

@<TRIPOS>ATOM
      1 C          -4.3167    4.2733   24.7673 C.3     1  UNL1        0.0276
      2 C          -3.3617    3.8971   23.6735 C.3     1  UNL1        0.1109
      3 C          -2.4053    4.0233   24.8222 C.3     1  UNL1        0.0276
      4 C          -2.0746    3.5648   22.9785 C.ar    1  UNL1        0.1375
      5 N          -0.6604    3.4812   23.4714 N.ar    1  UNL1       -0.2280
      6 C           0.2128    3.1016   22.3123 C.ar    1  UNL1        0.1125
      7 C          -0.6618    2.9506   21.1031 C.ar    1  UNL1        0.1318
      8 N          -2.0755    3.2368   21.5148 N.ar    1  UNL1       -0.3006
      9 C          -3.3635    3.2412   20.7460 C.3     1  UNL1        0.1299
     10 C          -4.6506    3.5736   21.4410 C.3     1  UNL1        0.1182
     11 N          -4.6497    3.9015   22.9047 N.am    1  UNL1       -0.2732
     12 C          -5.9368    4.2339   23.5996 C.2     1  UNL1        0.2418
     13 O          -5.9359    4.5618   25.0633 O.2     1  UNL1       -0.2734
     14 C           1.6995    2.9072   22.3550 C.ar    1  UNL1        0.0205
     15 C           2.2776    1.6830   23.0008 C.ar    1  UNL1        0.0039
     16 C           3.7643    1.4886   23.0435 C.ar    1  UNL1        0.0297
     17 C           4.6730    2.5183   22.4403 C.ar    1  UNL1        0.1401
     18 F           6.1597    2.3239   22.4829 F       1  UNL1       -0.2042
     19 C           4.0949    3.7425   21.7944 C.ar    1  UNL1        0.0297
     20 C           2.6082    3.9369   21.7518 C.ar    1  UNL1        0.0039
     21 C          -7.2248    4.2383   22.8308 C.3     1  UNL1        0.1517
     22 N          -8.5022    3.8339   23.5052 N.3     1  UNL1       -0.3135
     23 H          -8.4565    2.8463   23.7559 H       1  UNL1        0.1193
     24 H          -9.2854    3.9875   22.8701 H       1  UNL1        0.1193
     25 N          -0.2033    2.5786   19.7242 N.pl3   1  UNL1       -0.2980
     26 H          -0.5677    3.0499   18.9404 H       1  UNL1        0.1536
     27 C           0.8104    1.4886   19.5394 C.ar    1  UNL1        0.0495
     28 C           2.0535    1.7479   18.7408 C.ar    1  UNL1        0.0169
     29 C           3.0673    0.6579   18.5560 C.ar    1  UNL1        0.0309
     30 C           2.8380   -0.6914   19.1698 C.ar    1  UNL1        0.1402
     31 F           3.8518   -1.7814   18.9850 F       1  UNL1       -0.2042
     32 C           1.5950   -0.9507   19.9684 C.ar    1  UNL1        0.0309
     33 C           0.5813    0.1392   20.1532 C.ar    1  UNL1        0.0169
@<TRIPOS>BOND
     1     1     2    1
     2     2     3    1
     3     2     4    1
     4     4     5   ar
     5     5     6   ar
     6     6    14    1
     7    14    15   ar
     8    15    16   ar
     9    16    17   ar
    10    17    18    1
    11    17    19   ar
    12    19    20   ar
    13     6     7   ar
    14     7    25    1
    15    25    27    1
    16    27    28   ar
    17    28    29   ar
    18    29    30   ar
    19    30    31    1
    20    30    32   ar
    21    32    33   ar
    22     7     8   ar
    23     8     9    1
    24     9    10    1
    25    10    11    1
    26    11    12   am
    27    12    13    2
    28    12    21    1
    29    21    22    1
    30    11     2    1
    31     8     4   ar
    32    20    14   ar
    33    33    27   ar
    34    25    26    1
    35    22    23    1
    36    22    24    1
@<TRIPOS>MOLECULE
*****
 33 36 0 0 0
SMALL
GASTEIGER

@<TRIPOS>ATOM
      1 C          -6.6817    4.4604   23.6325 C.3     1  UNL1        0.0276
      2 C          -5.2003    4.2472   23.5318 C.3     1  UNL1        0.1109
      3 C          -5.4186    3.8836   24.9706 C.3     1  UNL1        0.0276
      4 C          -3.7948    3.9077   23.9307 C.ar    1  UNL1        0.1375
      5 N          -3.2032    3.4507   25.2312 N.ar    1  UNL1       -0.2280
      6 C          -1.7282    3.2663   25.0301 C.ar    1  UNL1        0.1125
      7 C          -1.4082    3.6094   23.6053 C.ar    1  UNL1        0.1318
      8 N          -2.6854    4.0057   22.9259 N.ar    1  UNL1       -0.3006
      9 C          -2.9816    4.4433   21.5221 C.3     1  UNL1        0.1299
     10 C          -4.3871    4.7828   21.1231 C.3     1  UNL1        0.1182
     11 N          -5.4965    4.6847   22.1279 N.am    1  UNL1       -0.2732
     12 C          -6.9021    5.0242   21.7289 C.2     1  UNL1        0.2418
     13 O          -8.0114    4.9262   22.7337 O.2     1  UNL1       -0.2734
     14 C          -0.7457    2.8177   26.0710 C.ar    1  UNL1        0.0205
     15 C          -0.1935    1.4237   26.0297 C.ar    1  UNL1        0.0039
     16 C           0.7890    0.9750   27.0706 C.ar    1  UNL1        0.0297
     17 C           1.2193    1.9204   28.1527 C.ar    1  UNL1        0.1401
     18 F           2.2018    1.4718   29.1936 F       1  UNL1       -0.2042
     19 C           0.6671    3.3144   28.1940 C.ar    1  UNL1        0.0297
     20 C          -0.3154    3.7631   27.1531 C.ar    1  UNL1        0.0039
     21 C          -7.1982    5.4618   20.3251 C.3     1  UNL1        0.1517
     22 N          -7.5127    4.4410   19.2718 N.3     1  UNL1       -0.3135
     23 H          -6.6891    3.8642   19.1007 H       1  UNL1        0.1193
     24 H          -7.7816    4.9142   18.4092 H       1  UNL1        0.1193
     25 N          -0.0496    3.5640   22.9713 N.pl3   1  UNL1       -0.2980
     26 H           0.5428    4.3489   23.0199 H       1  UNL1        0.1536
     27 C           0.4066    2.3230   22.2631 C.ar    1  UNL1        0.0495
     28 C           1.5138    1.4930   22.8422 C.ar    1  UNL1        0.0169
     29 C           1.9700    0.2519   22.1341 C.ar    1  UNL1        0.0309
     30 C           1.3190   -0.1593   20.8468 C.ar    1  UNL1        0.1402
     31 F           1.7752   -1.4004   20.1386 F       1  UNL1       -0.2042
     32 C           0.2119    0.6706   20.2677 C.ar    1  UNL1        0.0309
     33 C          -0.2444    1.9117   20.9758 C.ar    1  UNL1        0.0169
@<TRIPOS>BOND
     1     1     2    1
     2     2     3    1
     3     2     4    1
     4     4     5   ar
     5     5     6   ar
     6     6    14    1
     7    14    15   ar
     8    15    16   ar
     9    16    17   ar
    10    17    18    1
    11    17    19   ar
    12    19    20   ar
    13     6     7   ar
    14     7    25    1
    15    25    27    1
    16    27    28   ar
    17    28    29   ar
    18    29    30   ar
    19    30    31    1
    20    30    32   ar
    21    32    33   ar
    22     7     8   ar
    23     8     9    1
    24     9    10    1
    25    10    11    1
    26    11    12   am
    27    12    13    2
    28    12    21    1
    29    21    22    1
    30    11     2    1
    31     8     4   ar
    32    20    14   ar
    33    33    27   ar
    34    25    26    1
    35    22    23    1
    36    22    24    1
@<TRIPOS>MOLECULE
*****
 33 36 0 0 0
SMALL
GASTEIGER

@<TRIPOS>ATOM
      1 C          -6.3000    4.1425   21.8796 C.3     1  UNL1        0.0276
      2 C          -4.8404    3.9324   22.1548 C.3     1  UNL1        0.1109
      3 C          -4.9267    3.3730   20.7656 C.3     1  UNL1        0.0276
      4 C          -3.4109    3.5281   21.9475 C.ar    1  UNL1        0.1375
      5 N          -2.7068    2.8884   20.7878 N.ar    1  UNL1       -0.2280
      6 C          -1.2627    2.7210   21.1573 C.ar    1  UNL1        0.1125
      7 C          -1.0743    3.2574   22.5454 C.ar    1  UNL1        0.1318
      8 N          -2.4019    3.7562   23.0338 N.ar    1  UNL1       -0.3006
      9 C          -2.8225    4.3886   24.3273 C.3     1  UNL1        0.1299
     10 C          -4.2520    4.7929   24.5345 C.3     1  UNL1        0.1182
     11 N          -5.2610    4.5648   23.4483 N.am    1  UNL1       -0.2732
     12 C          -6.6905    4.9692   23.6555 C.2     1  UNL1        0.2418
     13 O          -7.6995    4.7411   22.5693 O.2     1  UNL1       -0.2734
     14 C          -0.1945    2.1225   20.2908 C.ar    1  UNL1        0.0205
     15 C           0.5615    2.9878   19.3267 C.ar    1  UNL1        0.0039
     16 C           1.6297    2.3892   18.4602 C.ar    1  UNL1        0.0297
     17 C           1.9418    0.9253   18.5579 C.ar    1  UNL1        0.1401
     18 F           3.0099    0.3268   17.6915 F       1  UNL1       -0.2042
     19 C           1.1858    0.0600   19.5221 C.ar    1  UNL1        0.0297
     20 C           0.1176    0.6586   20.3885 C.ar    1  UNL1        0.0039
     21 C          -7.1111    5.6016   24.9490 C.3     1  UNL1        0.1517
     22 N          -8.4874    6.1819   25.0876 N.3     1  UNL1       -0.3135
     23 H          -8.5817    6.9853   24.4662 H       1  UNL1        0.1193
     24 H          -8.6356    6.4788   26.0521 H       1  UNL1        0.1193
     25 N           0.2154    3.2893   23.3108 N.pl3   1  UNL1       -0.2980
     26 H           1.0540    3.5257   22.8525 H       1  UNL1        0.1536
     27 C           0.2273    2.9611   24.7743 C.ar    1  UNL1        0.0495
     28 C           0.6374    4.0023   25.7732 C.ar    1  UNL1        0.0169
     29 C           0.6493    3.6741   27.2368 C.ar    1  UNL1        0.0309
     30 C           0.2512    2.3046   27.7016 C.ar    1  UNL1        0.1402
     31 F           0.2632    1.9764   29.1652 F       1  UNL1       -0.2042
     32 C          -0.1588    1.2634   26.7027 C.ar    1  UNL1        0.0309
     33 C          -0.1708    1.5916   25.2391 C.ar    1  UNL1        0.0169
@<TRIPOS>BOND
     1     1     2    1
     2     2     3    1
     3     2     4    1
     4     4     5   ar
     5     5     6   ar
     6     6    14    1
     7    14    15   ar
     8    15    16   ar
     9    16    17   ar
    10    17    18    1
    11    17    19   ar
    12    19    20   ar
    13     6     7   ar
    14     7    25    1
    15    25    27    1
    16    27    28   ar
    17    28    29   ar
    18    29    30   ar
    19    30    31    1
    20    30    32   ar
    21    32    33   ar
    22     7     8   ar
    23     8     9    1
    24     9    10    1
    25    10    11    1
    26    11    12   am
    27    12    13    2
    28    12    21    1
    29    21    22    1
    30    11     2    1
    31     8     4   ar
    32    20    14   ar
    33    33    27   ar
    34    25    26    1
    35    22    23    1
    36    22    24    1
@<TRIPOS>MOLECULE
*****
 33 36 0 0 0
SMALL
GASTEIGER

@<TRIPOS>ATOM
      1 C          -6.2748    3.9936   22.0262 C.3     1  UNL1        0.0276
      2 C          -4.7906    3.9030   22.2244 C.3     1  UNL1        0.1109
      3 C          -4.9205    3.2018   20.9047 C.3     1  UNL1        0.0276
      4 C          -3.3517    3.5689   21.9644 C.ar    1  UNL1        0.1375
      5 N          -2.6753    2.8600   20.8286 N.ar    1  UNL1       -0.2280
      6 C          -1.2039    2.8204   21.1173 C.ar    1  UNL1        0.1125
      7 C          -0.9709    3.5048   22.4316 C.ar    1  UNL1        0.1318
      8 N          -2.2983    3.9674   22.9551 N.ar    1  UNL1       -0.3006
      9 C          -2.6839    4.7000   24.2059 C.3     1  UNL1        0.1299
     10 C          -4.1228    5.0341   24.4660 C.3     1  UNL1        0.1182
     11 N          -5.1762    4.6356   23.4752 N.am    1  UNL1       -0.2732
     12 C          -6.6153    4.9698   23.7353 C.2     1  UNL1        0.2418
     13 O          -7.6687    4.5713   22.7446 O.2     1  UNL1       -0.2734
     14 C          -0.1504    2.2045   20.2450 C.ar    1  UNL1        0.0205
     15 C           0.1249    0.7323   20.3273 C.ar    1  UNL1        0.0039
     16 C           1.1783    0.1164   19.4549 C.ar    1  UNL1        0.0297
     17 C           1.9564    0.9727   18.5003 C.ar    1  UNL1        0.1401
     18 F           3.0098    0.3568   17.6280 F       1  UNL1       -0.2042
     19 C           1.6811    2.4449   18.4181 C.ar    1  UNL1        0.0297
     20 C           0.6276    3.0608   19.2904 C.ar    1  UNL1        0.0039
     21 C          -7.0008    5.7024   24.9862 C.3     1  UNL1        0.1517
     22 N          -7.0884    7.1999   24.9815 N.3     1  UNL1       -0.3135
     23 H          -6.1597    7.5943   24.8321 H       1  UNL1        0.1193
     24 H          -7.4544    7.5218   25.8775 H       1  UNL1        0.1193
     25 N           0.3565    3.6935   23.1043 N.pl3   1  UNL1       -0.2980
     26 H           0.5728    4.5524   23.5341 H       1  UNL1        0.1536
     27 C           1.3542    2.5737   23.1221 C.ar    1  UNL1        0.0495
     28 C           2.6450    2.7072   22.3696 C.ar    1  UNL1        0.0169
     29 C           3.6429    1.5874   22.3873 C.ar    1  UNL1        0.0309
     30 C           3.3500    0.3340   23.1576 C.ar    1  UNL1        0.1402
     31 F           4.3478   -0.7858   23.1754 F       1  UNL1       -0.2042
     32 C           2.0593    0.2005   23.9100 C.ar    1  UNL1        0.0309
     33 C           1.0614    1.3203   23.8923 C.ar    1  UNL1        0.0169
@<TRIPOS>BOND
     1     1     2    1
     2     2     3    1
     3     2     4    1
     4     4     5   ar
     5     5     6   ar
     6     6    14    1
     7    14    15   ar
     8    15    16   ar
     9    16    17   ar
    10    17    18    1
    11    17    19   ar
    12    19    20   ar
    13     6     7   ar
    14     7    25    1
    15    25    27    1
    16    27    28   ar
    17    28    29   ar
    18    29    30   ar
    19    30    31    1
    20    30    32   ar
    21    32    33   ar
    22     7     8   ar
    23     8     9    1
    24     9    10    1
    25    10    11    1
    26    11    12   am
    27    12    13    2
    28    12    21    1
    29    21    22    1
    30    11     2    1
    31     8     4   ar
    32    20    14   ar
    33    33    27   ar
    34    25    26    1
    35    22    23    1
    36    22    24    1
