@<TRIPOS>MOLECULE
*****
 41 46 0 0 0
SMALL
GASTEIGER

@<TRIPOS>ATOM
      1 C           4.0842   -0.1145   33.5264 C.2     1  UNL1        0.2301
      2 O           3.9543   -1.4725   34.1500 O.2     1  UNL1       -0.2745
      3 N           3.6728    0.0981   32.0997 N.am    1  UNL1       -0.2793
      4 C           3.1314   -1.0473   31.2966 C.3     1  UNL1        0.0935
      5 C           2.7200   -0.8346   29.8699 C.3     1  UNL1        0.0242
      6 C           2.8500    0.5234   29.2463 C.3     1  UNL1        0.0328
      7 C           3.3913    1.6688   30.0494 C.3     1  UNL1        0.0242
      8 C           3.8027    1.4562   31.4761 C.3     1  UNL1        0.0935
      9 C           2.2850   -0.3482   28.1641 C.3     1  UNL1        0.0737
     10 N           2.2681    0.8242   27.2285 N.3     1  UNL1       -0.2702
     11 C           2.8331    1.6958   28.3107 C.3     1  UNL1        0.0737
     12 C           1.8567    1.0368   25.8018 C.3     1  UNL1        0.0801
     13 C           0.8024    1.9892   25.3209 C.3     1  UNL1        0.0251
     14 C           0.7214    1.8754   23.8274 C.3     1  UNL1        0.0278
     15 C           1.7257    0.8527   23.3854 C.ar    1  UNL1       -0.0248
     16 C           2.0920    0.3264   22.0293 C.ar    1  UNL1       -0.0030
     17 C           3.1599   -0.7181   21.8936 C.ar    1  UNL1        0.0174
     18 C           3.8615   -1.2364   23.1138 C.ar    1  UNL1        0.0012
     19 C           3.4953   -0.7102   24.4698 C.ar    1  UNL1       -0.0032
     20 C           2.4273    0.3345   24.6057 C.ar    1  UNL1       -0.0117
     21 C           3.5261   -1.2444   20.5375 C.ar    1  UNL1        0.0842
     22 C           3.8196   -2.7038   20.3534 C.ar    1  UNL1        0.0339
     23 C           4.1858   -3.2300   18.9974 C.ar    1  UNL1        0.0626
     24 C           4.4793   -4.6894   18.8133 C.3     1  UNL1        0.0522
     25 N           4.2585   -2.2967   17.8252 N.ar    1  UNL1       -0.2283
     26 C           3.9650   -0.8373   18.0093 C.ar    1  UNL1        0.1985
     27 N           3.5988   -0.3111   19.3654 N.ar    1  UNL1       -0.2240
     28 C           4.6255    1.0309   34.3295 C.3     1  UNL1        0.1117
     29 C           2.7876    2.0575   38.3067 C.ar    1  UNL1        0.1389
     30 C           3.9293    1.0872   38.2362 C.ar    1  UNL1        0.0366
     31 C           4.5419    0.7450   36.9105 C.ar    1  UNL1       -0.0005
     32 C           4.0128    1.3731   35.6553 C.ar    1  UNL1       -0.0085
     33 C           2.8711    2.3434   35.7258 C.ar    1  UNL1        0.0527
     34 C           2.2585    2.6856   37.0515 C.ar    1  UNL1        0.0411
     35 C           2.3421    2.9715   34.4705 C.2     1  UNL1        0.2426
     36 N           1.2829    2.2724   33.6709 N.am    1  UNL1       -0.3253
     37 O           2.8722    4.2986   34.0149 O.2     1  UNL1       -0.2704
     38 H           0.9350    1.4014   33.9699 H       1  UNL1        0.1453
     39 H           0.9357    2.6847   32.8471 H       1  UNL1        0.1453
     40 C           0.7190    2.1337   39.8769 C.3     1  UNL1        0.2525
     41 O           2.1749    2.3997   39.6325 O.3     1  UNL1       -0.4714
@<TRIPOS>BOND
     1    40    41    1
     2    41    29    1
     3    29    30   ar
     4    30    31   ar
     5    31    32   ar
     6    32    28    1
     7    28     1    1
     8     1     2    2
     9     1     3   am
    10     3     4    1
    11     4     5    1
    12     5     6    1
    13     6     7    1
    14     7     8    1
    15     6     9    1
    16     9    10    1
    17    12    10    1
    18    12    13    1
    19    13    14    1
    20    14    15    1
    21    15    16   ar
    22    16    17   ar
    23    17    21    1
    24    21    22   ar
    25    22    23   ar
    26    23    24    1
    27    23    25   ar
    28    25    26   ar
    29    26    27   ar
    30    17    18   ar
    31    18    19   ar
    32    19    20   ar
    33    10    11    1
    34    32    33   ar
    35    33    35    1
    36    35    36   am
    37    35    37    2
    38    33    34   ar
    39    34    29   ar
    40     8     3    1
    41    20    12    1
    42    11     6    1
    43    20    15   ar
    44    27    21   ar
    45    36    38    1
    46    36    39    1
@<TRIPOS>MOLECULE
*****
 41 46 0 0 0
SMALL
GASTEIGER

@<TRIPOS>ATOM
      1 C           6.6735   -3.4023   21.7013 C.2     1  UNL1        0.2301
      2 O           6.9871   -4.6484   20.9275 O.2     1  UNL1       -0.2745
      3 N           6.6517   -3.4361   23.2008 N.am    1  UNL1       -0.2793
      4 C           6.9434   -4.7161   23.9264 C.3     1  UNL1        0.0935
      5 C           6.9216   -4.7499   25.4259 C.3     1  UNL1        0.0242
      6 C           6.6080   -3.5037   26.1997 C.3     1  UNL1        0.0328
      7 C           6.3162   -2.2238   25.4741 C.3     1  UNL1        0.0242
      8 C           6.3381   -2.1900   23.9746 C.3     1  UNL1        0.0935
      9 C           6.8396   -4.5589   27.2403 C.3     1  UNL1        0.0737
     10 N           6.5770   -3.5516   28.3203 N.3     1  UNL1       -0.2702
     11 C           6.3454   -2.4964   27.2797 C.3     1  UNL1        0.0737
     12 C           6.5552   -3.5854   29.8197 C.3     1  UNL1        0.0801
     13 C           7.1344   -4.6644   30.6858 C.3     1  UNL1        0.0251
     14 C           6.8875   -4.2920   32.1177 C.3     1  UNL1        0.0278
     15 C           6.1556   -2.9829   32.1366 C.ar    1  UNL1       -0.0248
     16 C           5.6497   -2.1320   33.2635 C.ar    1  UNL1       -0.0030
     17 C           4.9383   -0.8443   32.9702 C.ar    1  UNL1        0.0174
     18 C           4.7330   -0.4076   31.5499 C.ar    1  UNL1        0.0012
     19 C           5.2389   -1.2585   30.4231 C.ar    1  UNL1       -0.0032
     20 C           5.9503   -2.5462   30.7163 C.ar    1  UNL1       -0.0117
     21 C           4.4324    0.0065   34.0972 C.ar    1  UNL1        0.0842
     22 C           3.5401    1.1777   33.8107 C.ar    1  UNL1        0.0339
     23 C           3.0342    2.0285   34.9377 C.ar    1  UNL1        0.0626
     24 C           2.1419    3.1997   34.6512 C.3     1  UNL1        0.0522
     25 N           3.4206    1.7081   36.3513 N.ar    1  UNL1       -0.2283
     26 C           4.3129    0.5369   36.6378 C.ar    1  UNL1        0.1985
     27 N           4.8188   -0.3139   35.5107 N.ar    1  UNL1       -0.2240
     28 C           6.3818   -2.1223   20.9757 C.3     1  UNL1        0.1117
     29 C           2.1215   -0.8632   20.2584 C.ar    1  UNL1        0.1389
     30 C           2.8413   -0.4052   21.4922 C.ar    1  UNL1        0.0366
     31 C           4.2614   -0.8249   21.7312 C.ar    1  UNL1       -0.0005
     32 C           4.9616   -1.7026   20.7366 C.ar    1  UNL1       -0.0085
     33 C           4.2418   -2.1606   19.5029 C.ar    1  UNL1        0.0527
     34 C           2.8217   -1.7409   19.2638 C.ar    1  UNL1        0.0411
     35 C           4.9421   -3.0383   18.5082 C.2     1  UNL1        0.2426
     36 N           4.7215   -4.5218   18.5310 N.am    1  UNL1       -0.3253
     37 O           5.8628   -2.4325   17.4908 O.2     1  UNL1       -0.2704
     38 H           4.1172   -4.9194   19.1987 H       1  UNL1        0.1453
     39 H           5.1812   -5.0978   17.8782 H       1  UNL1        0.1453
     40 C           0.2200    0.8891   20.5119 C.3     1  UNL1        0.2525
     41 O           0.7013   -0.4435   20.0193 O.3     1  UNL1       -0.4714
@<TRIPOS>BOND
     1    40    41    1
     2    41    29    1
     3    29    30   ar
     4    30    31   ar
     5    31    32   ar
     6    32    28    1
     7    28     1    1
     8     1     2    2
     9     1     3   am
    10     3     4    1
    11     4     5    1
    12     5     6    1
    13     6     7    1
    14     7     8    1
    15     6     9    1
    16     9    10    1
    17    12    10    1
    18    12    13    1
    19    13    14    1
    20    14    15    1
    21    15    16   ar
    22    16    17   ar
    23    17    21    1
    24    21    22   ar
    25    22    23   ar
    26    23    24    1
    27    23    25   ar
    28    25    26   ar
    29    26    27   ar
    30    17    18   ar
    31    18    19   ar
    32    19    20   ar
    33    10    11    1
    34    32    33   ar
    35    33    35    1
    36    35    36   am
    37    35    37    2
    38    33    34   ar
    39    34    29   ar
    40     8     3    1
    41    20    12    1
    42    11     6    1
    43    20    15   ar
    44    27    21   ar
    45    36    38    1
    46    36    39    1
@<TRIPOS>MOLECULE
*****
 41 46 0 0 0
SMALL
GASTEIGER

@<TRIPOS>ATOM
      1 C           5.2457    1.1652   36.4324 C.2     1  UNL1        0.2301
      2 O           6.3540    1.9780   37.0332 O.2     1  UNL1       -0.2745
      3 N           5.5448    0.1784   35.3430 N.am    1  UNL1       -0.2793
      4 C           6.9523    0.0043   34.8545 C.3     1  UNL1        0.0935
      5 C           7.2514   -0.9825   33.7651 C.3     1  UNL1        0.0242
      6 C           6.1430   -1.7953   33.1643 C.3     1  UNL1        0.0328
      7 C           4.7355   -1.6212   33.6529 C.3     1  UNL1        0.0242
      8 C           4.4364   -0.6344   34.7422 C.3     1  UNL1        0.0935
      9 C           7.3816   -2.2323   32.4398 C.3     1  UNL1        0.0737
     10 N           6.5660   -3.1909   31.6237 N.3     1  UNL1       -0.2702
     11 C           5.3275   -2.7538   32.3482 C.3     1  UNL1        0.0737
     12 C           6.8651   -4.1777   30.5343 C.3     1  UNL1        0.0801
     13 C           7.3212   -5.5935   30.7281 C.3     1  UNL1        0.0251
     14 C           7.4986   -6.2128   29.3735 C.3     1  UNL1        0.0278
     15 C           7.1522   -5.1798   28.3426 C.ar    1  UNL1       -0.0248
     16 C           7.1427   -5.2219   26.8432 C.ar    1  UNL1       -0.0030
     17 C           6.7416   -4.0063   26.0613 C.ar    1  UNL1        0.0174
     18 C           6.3501   -2.7486   26.7788 C.ar    1  UNL1        0.0012
     19 C           6.3597   -2.7064   28.2781 C.ar    1  UNL1       -0.0032
     20 C           6.7607   -3.9221   29.0601 C.ar    1  UNL1       -0.0117
     21 C           6.7322   -4.0485   24.5619 C.ar    1  UNL1        0.0842
     22 C           5.5672   -3.4854   23.8030 C.ar    1  UNL1        0.0339
     23 C           5.5578   -3.5276   22.3037 C.ar    1  UNL1        0.0626
     24 C           4.3929   -2.9645   21.5449 C.3     1  UNL1        0.0522
     25 N           6.7133   -4.1330   21.5631 N.ar    1  UNL1       -0.2283
     26 C           7.8782   -4.6961   22.3220 C.ar    1  UNL1        0.1985
     27 N           7.8876   -4.6539   23.8214 N.ar    1  UNL1       -0.2240
     28 C           3.8382    1.3393   36.9209 C.3     1  UNL1        0.1117
     29 C           1.4223    4.8988   35.6007 C.ar    1  UNL1        0.1389
     30 C           2.3947    4.2596   34.6542 C.ar    1  UNL1        0.0366
     31 C           3.2000    3.0731   35.0943 C.ar    1  UNL1       -0.0005
     32 C           3.0329    2.5258   36.4808 C.ar    1  UNL1       -0.0085
     33 C           2.0605    3.1650   37.4273 C.ar    1  UNL1        0.0527
     34 C           1.2552    4.3515   36.9872 C.ar    1  UNL1        0.0411
     35 C           1.8933    2.6177   38.8139 C.2     1  UNL1        0.2426
     36 N           0.8370    1.5898   39.0922 N.am    1  UNL1       -0.3253
     37 O           2.7826    3.0983   39.9221 O.2     1  UNL1       -0.2704
     38 H           0.2533    1.2744   38.3648 H       1  UNL1        0.1453
     39 H           0.7273    1.2306   40.0022 H       1  UNL1        0.1453
     40 C          -0.3522    6.7273   36.1086 C.3     1  UNL1        0.2525
     41 O           0.6170    6.0854   35.1606 O.3     1  UNL1       -0.4714
@<TRIPOS>BOND
     1    40    41    1
     2    41    29    1
     3    29    30   ar
     4    30    31   ar
     5    31    32   ar
     6    32    28    1
     7    28     1    1
     8     1     2    2
     9     1     3   am
    10     3     4    1
    11     4     5    1
    12     5     6    1
    13     6     7    1
    14     7     8    1
    15     6     9    1
    16     9    10    1
    17    12    10    1
    18    12    13    1
    19    13    14    1
    20    14    15    1
    21    15    16   ar
    22    16    17   ar
    23    17    21    1
    24    21    22   ar
    25    22    23   ar
    26    23    24    1
    27    23    25   ar
    28    25    26   ar
    29    26    27   ar
    30    17    18   ar
    31    18    19   ar
    32    19    20   ar
    33    10    11    1
    34    32    33   ar
    35    33    35    1
    36    35    36   am
    37    35    37    2
    38    33    34   ar
    39    34    29   ar
    40     8     3    1
    41    20    12    1
    42    11     6    1
    43    20    15   ar
    44    27    21   ar
    45    36    38    1
    46    36    39    1
@<TRIPOS>MOLECULE
*****
 41 46 0 0 0
SMALL
GASTEIGER

@<TRIPOS>ATOM
      1 C           1.7896    1.0906   24.0351 C.2     1  UNL1        0.2301
      2 O           0.3524    1.4048   23.7420 O.2     1  UNL1       -0.2745
      3 N           2.2125    0.7480   25.4329 N.am    1  UNL1       -0.2793
      4 C           1.1982    0.7196   26.5376 C.3     1  UNL1        0.0935
      5 C           1.6211    0.3771   27.9354 C.3     1  UNL1        0.0242
      6 C           3.0582    0.0629   28.2284 C.3     1  UNL1        0.0328
      7 C           4.0725    0.0913   27.1237 C.3     1  UNL1        0.0242
      8 C           3.6496    0.4338   25.7260 C.3     1  UNL1        0.0935
      9 C           2.3565   -0.0627   29.5482 C.3     1  UNL1        0.0737
     10 N           3.6563   -0.4216   30.2053 N.3     1  UNL1       -0.2702
     11 C           4.3580   -0.2960   28.8855 C.3     1  UNL1        0.0737
     12 C           4.0792   -0.7641   31.6031 C.3     1  UNL1        0.0801
     13 C           4.8246   -1.9967   32.0216 C.3     1  UNL1        0.0251
     14 C           5.0370   -1.9286   33.5049 C.3     1  UNL1        0.0278
     15 C           4.4229   -0.6540   34.0031 C.ar    1  UNL1       -0.0248
     16 C           4.3263   -0.0557   35.3752 C.ar    1  UNL1       -0.0030
     17 C           3.6377    1.2623   35.5718 C.ar    1  UNL1        0.0174
     18 C           3.0458    1.9820   34.3964 C.ar    1  UNL1        0.0012
     19 C           3.1424    1.3837   33.0244 C.ar    1  UNL1       -0.0032
     20 C           3.8310    0.0656   32.8276 C.ar    1  UNL1       -0.0117
     21 C           3.5412    1.8606   36.9440 C.ar    1  UNL1        0.0842
     22 C           4.7835    2.0822   37.7548 C.ar    1  UNL1        0.0339
     23 C           4.6869    2.6805   39.1269 C.ar    1  UNL1        0.0626
     24 C           5.9292    2.9021   39.9377 C.3     1  UNL1        0.0522
     25 N           3.3478    3.0571   39.6883 N.ar    1  UNL1       -0.2283
     26 C           2.1054    2.8355   38.8775 C.ar    1  UNL1        0.1985
     27 N           2.2021    2.2372   37.5054 N.ar    1  UNL1       -0.2240
     28 C           2.8039    1.1190   22.9304 C.3     1  UNL1        0.1117
     29 C           3.2141   -2.4044   20.1614 C.ar    1  UNL1        0.1389
     30 C           4.0006   -2.3581   21.4378 C.ar    1  UNL1        0.0366
     31 C           3.8638   -1.1837   22.3608 C.ar    1  UNL1       -0.0005
     32 C           2.9406   -0.0555   22.0073 C.ar    1  UNL1       -0.0085
     33 C           2.1541   -0.1018   20.7309 C.ar    1  UNL1        0.0527
     34 C           2.2909   -1.2763   19.8080 C.ar    1  UNL1        0.0411
     35 C           1.2309    1.0263   20.3775 C.2     1  UNL1        0.2426
     36 N          -0.2118    0.9703   20.7843 N.am    1  UNL1       -0.3253
     37 O           1.7503    2.2104   19.6172 O.2     1  UNL1       -0.2704
     38 H          -0.5527    0.1932   21.2833 H       1  UNL1        0.1453
     39 H          -0.8177    1.7108   20.5523 H       1  UNL1        0.1453
     40 C           4.6781   -4.2602   19.0830 C.3     1  UNL1        0.2525
     41 O           3.3508   -3.5789   19.2383 O.3     1  UNL1       -0.4714
@<TRIPOS>BOND
     1    40    41    1
     2    41    29    1
     3    29    30   ar
     4    30    31   ar
     5    31    32   ar
     6    32    28    1
     7    28     1    1
     8     1     2    2
     9     1     3   am
    10     3     4    1
    11     4     5    1
    12     5     6    1
    13     6     7    1
    14     7     8    1
    15     6     9    1
    16     9    10    1
    17    12    10    1
    18    12    13    1
    19    13    14    1
    20    14    15    1
    21    15    16   ar
    22    16    17   ar
    23    17    21    1
    24    21    22   ar
    25    22    23   ar
    26    23    24    1
    27    23    25   ar
    28    25    26   ar
    29    26    27   ar
    30    17    18   ar
    31    18    19   ar
    32    19    20   ar
    33    10    11    1
    34    32    33   ar
    35    33    35    1
    36    35    36   am
    37    35    37    2
    38    33    34   ar
    39    34    29   ar
    40     8     3    1
    41    20    12    1
    42    11     6    1
    43    20    15   ar
    44    27    21   ar
    45    36    38    1
    46    36    39    1
@<TRIPOS>MOLECULE
*****
 41 46 0 0 0
SMALL
GASTEIGER

@<TRIPOS>ATOM
      1 C           3.0687    0.2544   31.5695 C.2     1  UNL1        0.2301
      2 O           3.1356   -1.2230   31.8200 O.2     1  UNL1       -0.2745
      3 N           2.1382    0.7968   30.5255 N.am    1  UNL1       -0.2793
      4 C           1.2745   -0.1383   29.7320 C.3     1  UNL1        0.0935
      5 C           0.3441    0.4041   28.6880 C.3     1  UNL1        0.0242
      6 C           0.2772    1.8815   28.4375 C.3     1  UNL1        0.0328
      7 C           1.1409    2.8166   29.2310 C.3     1  UNL1        0.0242
      8 C           2.0714    2.2742   30.2750 C.3     1  UNL1        0.0935
      9 C          -0.7061    1.2802   27.4775 C.3     1  UNL1        0.0737
     10 N          -1.0388    2.6486   26.9609 N.3     1  UNL1       -0.2702
     11 C          -0.0555    3.2499   27.9209 C.3     1  UNL1        0.0737
     12 C          -1.9693    3.1909   25.9169 C.3     1  UNL1        0.0801
     13 C          -3.3042    3.8263   26.1701 C.3     1  UNL1        0.0251
     14 C          -3.8882    4.2212   24.8461 C.3     1  UNL1        0.0278
     15 C          -2.9141    3.8299   23.7747 C.ar    1  UNL1       -0.0248
     16 C          -2.9538    3.9712   22.2819 C.ar    1  UNL1       -0.0030
     17 C          -1.8076    3.4756   21.4509 C.ar    1  UNL1        0.0174
     18 C          -0.6216    2.8389   22.1127 C.ar    1  UNL1        0.0012
     19 C          -0.5819    2.6977   23.6054 C.ar    1  UNL1       -0.0032
     20 C          -1.7282    3.1932   24.4365 C.ar    1  UNL1       -0.0117
     21 C          -1.8474    3.6169   19.9580 C.ar    1  UNL1        0.0842
     22 C          -3.1433    3.9241   19.2679 C.ar    1  UNL1        0.0339
     23 C          -3.1830    4.0653   17.7752 C.ar    1  UNL1        0.0626
     24 C          -4.4789    4.3725   17.0851 C.3     1  UNL1        0.0522
     25 N          -1.9267    3.8994   16.9724 N.ar    1  UNL1       -0.2283
     26 C          -0.6308    3.5923   17.6625 C.ar    1  UNL1        0.1985
     27 N          -0.5911    3.4510   19.1553 N.ar    1  UNL1       -0.2240
     28 C           3.9324    1.1895   32.3631 C.3     1  UNL1        0.1117
     29 C           3.1950    1.7420   36.7677 C.ar    1  UNL1        0.1389
     30 C           2.4286    2.5595   35.7707 C.ar    1  UNL1        0.0366
     31 C           2.6744    2.3753   34.3025 C.ar    1  UNL1       -0.0005
     32 C           3.6866    1.3736   33.8313 C.ar    1  UNL1       -0.0085
     33 C           4.4531    0.5561   34.8284 C.ar    1  UNL1        0.0527
     34 C           4.2073    0.7403   36.2966 C.ar    1  UNL1        0.0411
     35 C           5.4653   -0.4456   34.3573 C.2     1  UNL1        0.2426
     36 N           5.0230   -1.8117   33.9236 N.am    1  UNL1       -0.3253
     37 O           6.9199   -0.0812   34.3198 O.2     1  UNL1       -0.2704
     38 H           4.0683   -2.0509   33.9482 H       1  UNL1        0.1453
     39 H           5.6874   -2.4691   33.6144 H       1  UNL1        0.1453
     40 C           1.8042    1.2196   38.8991 C.3     1  UNL1        0.2525
     41 O           2.9492    1.9261   38.2360 O.3     1  UNL1       -0.4714
@<TRIPOS>BOND
     1    40    41    1
     2    41    29    1
     3    29    30   ar
     4    30    31   ar
     5    31    32   ar
     6    32    28    1
     7    28     1    1
     8     1     2    2
     9     1     3   am
    10     3     4    1
    11     4     5    1
    12     5     6    1
    13     6     7    1
    14     7     8    1
    15     6     9    1
    16     9    10    1
    17    12    10    1
    18    12    13    1
    19    13    14    1
    20    14    15    1
    21    15    16   ar
    22    16    17   ar
    23    17    21    1
    24    21    22   ar
    25    22    23   ar
    26    23    24    1
    27    23    25   ar
    28    25    26   ar
    29    26    27   ar
    30    17    18   ar
    31    18    19   ar
    32    19    20   ar
    33    10    11    1
    34    32    33   ar
    35    33    35    1
    36    35    36   am
    37    35    37    2
    38    33    34   ar
    39    34    29   ar
    40     8     3    1
    41    20    12    1
    42    11     6    1
    43    20    15   ar
    44    27    21   ar
    45    36    38    1
    46    36    39    1
@<TRIPOS>MOLECULE
*****
 41 46 0 0 0
SMALL
GASTEIGER

@<TRIPOS>ATOM
      1 C           4.3153    0.7059   34.8582 C.2     1  UNL1        0.2301
      2 O           3.6260    2.0330   34.7410 O.2     1  UNL1       -0.2745
      3 N           4.7325   -0.0343   33.6220 N.am    1  UNL1       -0.2793
      4 C           4.4606    0.5526   32.2687 C.3     1  UNL1        0.0935
      5 C           4.8778   -0.1875   31.0326 C.3     1  UNL1        0.0242
      6 C           5.5671   -1.5147   31.1499 C.3     1  UNL1        0.0328
      7 C           5.8391   -2.1016   32.5032 C.3     1  UNL1        0.0242
      8 C           5.4218   -1.3614   33.7393 C.3     1  UNL1        0.0935
      9 C           5.4697   -1.2567   29.6754 C.3     1  UNL1        0.0737
     10 N           6.1572   -2.5615   29.4016 N.3     1  UNL1       -0.2702
     11 C           6.2546   -2.8194   30.8761 C.3     1  UNL1        0.0737
     12 C           6.5745   -3.3016   28.1655 C.3     1  UNL1        0.0801
     13 C           7.5019   -4.4794   28.1140 C.3     1  UNL1        0.0251
     14 C           7.6383   -4.8997   26.6806 C.3     1  UNL1        0.0278
     15 C           6.7951   -3.9817   25.8462 C.ar    1  UNL1       -0.0248
     16 C           6.5409   -3.9175   24.3693 C.ar    1  UNL1       -0.0030
     17 C           5.6294   -2.8656   23.8102 C.ar    1  UNL1        0.0174
     18 C           4.9720   -1.8779   24.7279 C.ar    1  UNL1        0.0012
     19 C           5.2261   -1.9421   26.2048 C.ar    1  UNL1       -0.0032
     20 C           6.1376   -2.9940   26.7640 C.ar    1  UNL1       -0.0117
     21 C           5.3753   -2.8014   22.3332 C.ar    1  UNL1        0.0842
     22 C           4.5911   -3.8880   21.6591 C.ar    1  UNL1        0.0339
     23 C           4.3371   -3.8238   20.1822 C.ar    1  UNL1        0.0626
     24 C           3.5529   -4.9103   19.5081 C.3     1  UNL1        0.0522
     25 N           4.8673   -2.6730   19.3793 N.ar    1  UNL1       -0.2283
     26 C           5.6515   -1.5864   20.0534 C.ar    1  UNL1        0.1985
     27 N           5.9055   -1.6506   21.5303 N.ar    1  UNL1       -0.2240
     28 C           4.5872    0.1190   36.2115 C.3     1  UNL1        0.1117
     29 C           6.3332    2.6871   39.4683 C.ar    1  UNL1        0.1389
     30 C           7.2269    2.0975   38.4178 C.ar    1  UNL1        0.0366
     31 C           6.6449    1.2415   37.3322 C.ar    1  UNL1       -0.0005
     32 C           5.1692    0.9750   37.2972 C.ar    1  UNL1       -0.0085
     33 C           4.2755    1.5646   38.3477 C.ar    1  UNL1        0.0527
     34 C           4.8575    2.4206   39.4332 C.ar    1  UNL1        0.0411
     35 C           2.7997    1.2982   38.3126 C.2     1  UNL1        0.2426
     36 N           2.2292    0.1364   39.0707 N.am    1  UNL1       -0.3253
     37 O           1.8946    2.1934   37.5195 O.2     1  UNL1       -0.2704
     38 H           2.8232   -0.4512   39.5913 H       1  UNL1        0.1453
     39 H           1.2606   -0.0384   39.0477 H       1  UNL1        0.1453
     40 C           6.0696    3.9466   41.7254 C.3     1  UNL1        0.2525
     41 O           6.9152    3.5431   40.5539 O.3     1  UNL1       -0.4714
@<TRIPOS>BOND
     1    40    41    1
     2    41    29    1
     3    29    30   ar
     4    30    31   ar
     5    31    32   ar
     6    32    28    1
     7    28     1    1
     8     1     2    2
     9     1     3   am
    10     3     4    1
    11     4     5    1
    12     5     6    1
    13     6     7    1
    14     7     8    1
    15     6     9    1
    16     9    10    1
    17    12    10    1
    18    12    13    1
    19    13    14    1
    20    14    15    1
    21    15    16   ar
    22    16    17   ar
    23    17    21    1
    24    21    22   ar
    25    22    23   ar
    26    23    24    1
    27    23    25   ar
    28    25    26   ar
    29    26    27   ar
    30    17    18   ar
    31    18    19   ar
    32    19    20   ar
    33    10    11    1
    34    32    33   ar
    35    33    35    1
    36    35    36   am
    37    35    37    2
    38    33    34   ar
    39    34    29   ar
    40     8     3    1
    41    20    12    1
    42    11     6    1
    43    20    15   ar
    44    27    21   ar
    45    36    38    1
    46    36    39    1
@<TRIPOS>MOLECULE
*****
 41 46 0 0 0
SMALL
GASTEIGER

@<TRIPOS>ATOM
      1 C           3.6978    0.8002   34.4657 C.2     1  UNL1        0.2301
      2 O           4.6376   -0.3353   34.7443 O.2     1  UNL1       -0.2745
      3 N           3.1148    0.9719   33.0943 N.am    1  UNL1       -0.2793
      4 C           3.4716    0.0083   32.0016 C.3     1  UNL1        0.0935
      5 C           2.8886    0.1801   30.6303 C.3     1  UNL1        0.0242
      6 C           1.9488    1.3155   30.3517 C.3     1  UNL1        0.0328
      7 C           1.5920    2.2791   31.4444 C.3     1  UNL1        0.0242
      8 C           2.1750    2.1073   32.8157 C.3     1  UNL1        0.0935
      9 C           2.0659    0.5800   29.0496 C.3     1  UNL1        0.0737
     10 N           1.1243    1.5584   28.4122 N.3     1  UNL1       -0.2702
     11 C           1.0073    2.2939   29.7143 C.3     1  UNL1        0.0737
     12 C           0.5413    1.7302   27.0409 C.3     1  UNL1        0.0801
     13 C          -0.7648    2.3916   26.7147 C.3     1  UNL1        0.0251
     14 C          -0.9513    2.3409   25.2272 C.3     1  UNL1        0.0278
     15 C           0.2396    1.6481   24.6341 C.ar    1  UNL1       -0.0248
     16 C           0.6032    1.3122   23.2181 C.ar    1  UNL1       -0.0030
     17 C           1.8893    0.5988   22.9231 C.ar    1  UNL1        0.0174
     18 C           2.8118    0.2214   24.0441 C.ar    1  UNL1        0.0012
     19 C           2.4482    0.5573   25.4600 C.ar    1  UNL1       -0.0032
     20 C           1.1620    1.2707   25.7551 C.ar    1  UNL1       -0.0117
     21 C           2.2528    0.2629   21.5071 C.ar    1  UNL1        0.0842
     22 C           2.7253   -1.1181   21.1614 C.ar    1  UNL1        0.0339
     23 C           3.0888   -1.4539   19.7455 C.ar    1  UNL1        0.0626
     24 C           3.5612   -2.8349   19.3998 C.3     1  UNL1        0.0522
     25 N           2.9799   -0.4087   18.6751 N.ar    1  UNL1       -0.2283
     26 C           2.5074    0.9724   19.0208 C.ar    1  UNL1        0.1985
     27 N           2.1439    1.3082   20.4368 N.ar    1  UNL1       -0.2240
     28 C           3.3410    1.7638   35.5584 C.3     1  UNL1        0.1117
     29 C           6.2364    2.5296   38.9170 C.ar    1  UNL1        0.1389
     30 C           6.7038    2.5993   37.4934 C.ar    1  UNL1        0.0366
     31 C           5.7386    2.3440   36.3739 C.ar    1  UNL1       -0.0005
     32 C           4.3062    2.0191   36.6780 C.ar    1  UNL1       -0.0085
     33 C           3.8388    1.9494   38.1016 C.ar    1  UNL1        0.0527
     34 C           4.8040    2.2047   39.2211 C.ar    1  UNL1        0.0411
     35 C           2.4064    1.6244   38.4057 C.2     1  UNL1        0.2426
     36 N           2.0406    0.2689   38.9337 N.am    1  UNL1       -0.3253
     37 O           1.3397    2.6550   38.1818 O.2     1  UNL1       -0.2704
     38 H           2.7407   -0.4075   39.0806 H       1  UNL1        0.1453
     39 H           1.1004    0.0557   39.1333 H       1  UNL1        0.1453
     40 C           8.6210    2.3130   39.9254 C.3     1  UNL1        0.2525
     41 O           7.2015    2.7849   40.0366 O.3     1  UNL1       -0.4714
@<TRIPOS>BOND
     1    40    41    1
     2    41    29    1
     3    29    30   ar
     4    30    31   ar
     5    31    32   ar
     6    32    28    1
     7    28     1    1
     8     1     2    2
     9     1     3   am
    10     3     4    1
    11     4     5    1
    12     5     6    1
    13     6     7    1
    14     7     8    1
    15     6     9    1
    16     9    10    1
    17    12    10    1
    18    12    13    1
    19    13    14    1
    20    14    15    1
    21    15    16   ar
    22    16    17   ar
    23    17    21    1
    24    21    22   ar
    25    22    23   ar
    26    23    24    1
    27    23    25   ar
    28    25    26   ar
    29    26    27   ar
    30    17    18   ar
    31    18    19   ar
    32    19    20   ar
    33    10    11    1
    34    32    33   ar
    35    33    35    1
    36    35    36   am
    37    35    37    2
    38    33    34   ar
    39    34    29   ar
    40     8     3    1
    41    20    12    1
    42    11     6    1
    43    20    15   ar
    44    27    21   ar
    45    36    38    1
    46    36    39    1
@<TRIPOS>MOLECULE
*****
 41 46 0 0 0
SMALL
GASTEIGER

@<TRIPOS>ATOM
      1 C           3.1839    0.0712   31.5266 C.2     1  UNL1        0.2301
      2 O           3.2672   -1.4127   31.7288 O.2     1  UNL1       -0.2745
      3 N           2.2098    0.6399   30.5377 N.am    1  UNL1       -0.2793
      4 C           1.3191   -0.2754   29.7510 C.3     1  UNL1        0.0935
      5 C           0.3451    0.2932   28.7621 C.3     1  UNL1        0.0242
      6 C           0.2618    1.7772   28.5599 C.3     1  UNL1        0.0328
      7 C           1.1525    2.6925   29.3465 C.3     1  UNL1        0.0242
      8 C           2.1265    2.1238   30.3354 C.3     1  UNL1        0.0935
      9 C          -0.7565    1.1998   27.6220 C.3     1  UNL1        0.0737
     10 N          -1.1157    2.5814   27.1613 N.3     1  UNL1       -0.2702
     11 C          -0.0974    3.1588   28.0992 C.3     1  UNL1        0.0737
     12 C          -2.0897    3.1500   26.1724 C.3     1  UNL1        0.0801
     13 C          -3.4299    3.7412   26.4952 C.3     1  UNL1        0.0251
     14 C          -4.0630    4.1839   25.2094 C.3     1  UNL1        0.0278
     15 C          -3.1141    3.8663   24.0921 C.ar    1  UNL1       -0.0248
     16 C          -3.2029    4.0764   22.6095 C.ar    1  UNL1       -0.0030
     17 C          -2.0721    3.6475   21.7222 C.ar    1  UNL1        0.0174
     18 C          -0.8525    3.0085   22.3174 C.ar    1  UNL1        0.0012
     19 C          -0.7637    2.7984   23.7998 C.ar    1  UNL1       -0.0032
     20 C          -1.8945    3.2273   24.6873 C.ar    1  UNL1       -0.0117
     21 C          -2.1610    3.8576   20.2396 C.ar    1  UNL1        0.0842
     22 C          -0.9247    4.1744   19.4514 C.ar    1  UNL1        0.0339
     23 C          -1.0137    4.3845   17.9690 C.ar    1  UNL1        0.0626
     24 C           0.2226    4.7013   17.1808 C.3     1  UNL1        0.0522
     25 N          -2.3390    4.2778   17.2745 N.ar    1  UNL1       -0.2283
     26 C          -3.5753    3.9610   18.0626 C.ar    1  UNL1        0.1985
     27 N          -3.4863    3.7509   19.5452 N.ar    1  UNL1       -0.2240
     28 C           4.0745    0.9865   32.3132 C.3     1  UNL1        0.1117
     29 C           3.9081    0.9710   36.8101 C.ar    1  UNL1        0.1389
     30 C           4.6616   -0.1035   36.0838 C.ar    1  UNL1        0.0366
     31 C           4.7171   -0.0983   34.5849 C.ar    1  UNL1       -0.0005
     32 C           4.0190    0.9814   33.8123 C.ar    1  UNL1       -0.0085
     33 C           3.2655    2.0559   34.5386 C.ar    1  UNL1        0.0527
     34 C           3.2100    2.0507   36.0375 C.ar    1  UNL1        0.0411
     35 C           2.5674    3.1356   33.7659 C.2     1  UNL1        0.2426
     36 N           1.0985    3.0251   33.4827 N.am    1  UNL1       -0.3253
     37 O           3.3381    4.3257   33.2766 O.2     1  UNL1       -0.2704
     38 H           0.5926    2.2440   33.8039 H       1  UNL1        0.1453
     39 H           0.6404    3.7338   32.9756 H       1  UNL1        0.1453
     40 C           2.5267    0.9669   39.0105 C.3     1  UNL1        0.2525
     41 O           3.8526    0.9658   38.3091 O.3     1  UNL1       -0.4714
@<TRIPOS>BOND
     1    40    41    1
     2    41    29    1
     3    29    30   ar
     4    30    31   ar
     5    31    32   ar
     6    32    28    1
     7    28     1    1
     8     1     2    2
     9     1     3   am
    10     3     4    1
    11     4     5    1
    12     5     6    1
    13     6     7    1
    14     7     8    1
    15     6     9    1
    16     9    10    1
    17    12    10    1
    18    12    13    1
    19    13    14    1
    20    14    15    1
    21    15    16   ar
    22    16    17   ar
    23    17    21    1
    24    21    22   ar
    25    22    23   ar
    26    23    24    1
    27    23    25   ar
    28    25    26   ar
    29    26    27   ar
    30    17    18   ar
    31    18    19   ar
    32    19    20   ar
    33    10    11    1
    34    32    33   ar
    35    33    35    1
    36    35    36   am
    37    35    37    2
    38    33    34   ar
    39    34    29   ar
    40     8     3    1
    41    20    12    1
    42    11     6    1
    43    20    15   ar
    44    27    21   ar
    45    36    38    1
    46    36    39    1
@<TRIPOS>MOLECULE
*****
 41 46 0 0 0
SMALL
GASTEIGER

@<TRIPOS>ATOM
      1 C           3.2213    0.5350   33.0784 C.2     1  UNL1        0.2301
      2 O           2.7921    1.6654   33.9661 O.2     1  UNL1       -0.2745
      3 N           2.9328    0.5855   31.6072 N.am    1  UNL1       -0.2793
      4 C           2.2151    1.7664   31.0238 C.3     1  UNL1        0.0935
      5 C           1.9267    1.8169   29.5527 C.3     1  UNL1        0.0242
      6 C           2.3559    0.6866   28.6650 C.3     1  UNL1        0.0328
      7 C           3.0735   -0.4943   29.2484 C.3     1  UNL1        0.0242
      8 C           3.3620   -0.5449   30.7195 C.3     1  UNL1        0.0935
      9 C           1.6837    1.6659   27.7490 C.3     1  UNL1        0.0737
     10 N           1.9479    0.7580   26.5844 N.3     1  UNL1       -0.2702
     11 C           2.6201   -0.2213   27.5005 C.3     1  UNL1        0.0737
     12 C           1.6594    0.8085   25.1133 C.3     1  UNL1        0.0801
     13 C           0.5056    1.5144   24.4649 C.3     1  UNL1        0.0251
     14 C           0.6072    1.3042   22.9832 C.3     1  UNL1        0.0278
     15 C           1.8238    0.4685   22.7159 C.ar    1  UNL1       -0.0248
     16 C           2.4235   -0.0532   21.4438 C.ar    1  UNL1       -0.0030
     17 C           3.6735   -0.8812   21.4883 C.ar    1  UNL1        0.0174
     18 C           4.3238   -1.1875   22.8048 C.ar    1  UNL1        0.0012
     19 C           3.7241   -0.6658   24.0768 C.ar    1  UNL1       -0.0032
     20 C           2.4741    0.1622   24.0325 C.ar    1  UNL1       -0.0117
     21 C           4.2731   -1.4028   20.2161 C.ar    1  UNL1        0.0842
     22 C           4.9831   -0.4675   19.2828 C.ar    1  UNL1        0.0339
     23 C           5.5827   -0.9892   18.0108 C.ar    1  UNL1        0.0626
     24 C           6.2927   -0.0538   17.0775 C.3     1  UNL1        0.0522
     25 N           5.4724   -2.4463   17.6718 N.ar    1  UNL1       -0.2283
     26 C           4.7623   -3.3816   18.6051 C.ar    1  UNL1        0.1985
     27 N           4.1627   -2.8599   19.8773 N.ar    1  UNL1       -0.2240
     28 C           3.9389   -0.6459   33.6618 C.3     1  UNL1        0.1117
     29 C           7.3884   -0.0145   36.4818 C.ar    1  UNL1        0.1389
     30 C           5.9807    0.0221   36.9987 C.ar    1  UNL1        0.0366
     31 C           4.8309   -0.1884   36.0587 C.ar    1  UNL1       -0.0005
     32 C           5.0888   -0.4354   34.6018 C.ar    1  UNL1       -0.0085
     33 C           6.4964   -0.4720   34.0850 C.ar    1  UNL1        0.0527
     34 C           7.6462   -0.2615   35.0250 C.ar    1  UNL1        0.0411
     35 C           6.7543   -0.7191   32.6281 C.2     1  UNL1        0.2426
     36 N           7.1001   -2.0985   32.1510 N.am    1  UNL1       -0.3253
     37 O           6.6663    0.4133   31.6483 O.2     1  UNL1       -0.2704
     38 H           7.1578   -2.8417   32.7941 H       1  UNL1        0.1453
     39 H           7.2693   -2.2606   31.1948 H       1  UNL1        0.1453
     40 C           9.3905   -0.9666   37.8365 C.3     1  UNL1        0.2525
     41 O           8.5382    0.1960   37.4219 O.3     1  UNL1       -0.4714
@<TRIPOS>BOND
     1    40    41    1
     2    41    29    1
     3    29    30   ar
     4    30    31   ar
     5    31    32   ar
     6    32    28    1
     7    28     1    1
     8     1     2    2
     9     1     3   am
    10     3     4    1
    11     4     5    1
    12     5     6    1
    13     6     7    1
    14     7     8    1
    15     6     9    1
    16     9    10    1
    17    12    10    1
    18    12    13    1
    19    13    14    1
    20    14    15    1
    21    15    16   ar
    22    16    17   ar
    23    17    21    1
    24    21    22   ar
    25    22    23   ar
    26    23    24    1
    27    23    25   ar
    28    25    26   ar
    29    26    27   ar
    30    17    18   ar
    31    18    19   ar
    32    19    20   ar
    33    10    11    1
    34    32    33   ar
    35    33    35    1
    36    35    36   am
    37    35    37    2
    38    33    34   ar
    39    34    29   ar
    40     8     3    1
    41    20    12    1
    42    11     6    1
    43    20    15   ar
    44    27    21   ar
    45    36    38    1
    46    36    39    1
