@<TRIPOS>MOLECULE
*****
 43 48 0 0 0
SMALL
GASTEIGER

@<TRIPOS>ATOM
      1 N           2.9496    0.8770   31.5091 N.am    1  UNL1       -0.2222
      2 C           2.4195    0.8323   30.1064 C.2     1  UNL1        0.3220
      3 O           2.8276   -0.1408   29.0403 O.2     1  UNL1       -0.2512
      4 N           1.4097    1.9314   29.9573 N.am    1  UNL1       -0.1892
      5 C           1.3156    2.6555   31.2676 C.2     1  UNL1        0.2529
      6 O           0.4262    3.8257   31.5664 O.2     1  UNL1       -0.2724
      7 C           2.2673    2.0038   32.2267 C.3     1  UNL1        0.1391
      8 C           3.2564    1.2541   33.0690 C.3     1  UNL1        0.0449
      9 C           3.4856    1.6583   34.4951 C.3     1  UNL1        0.0746
     10 N           2.7257    2.8122   35.0790 N.3     1  UNL1       -0.2676
     11 C           1.7366    3.5620   34.2367 C.3     1  UNL1        0.0746
     12 C           1.5074    3.1578   32.8106 C.3     1  UNL1        0.0449
     13 C           6.4654   -0.5990   32.6089 C.ar    1  UNL1        0.2293
     14 C           5.4342    0.3214   32.0263 C.ar    1  UNL1        0.0924
     15 C           3.9808   -0.0434   32.0917 C.ar    1  UNL1        0.1453
     16 N           3.5585   -1.3286   32.7396 N.ar    1  UNL1       -0.2084
     17 C           4.5896   -2.2491   33.3222 C.ar    1  UNL1        0.2027
     18 N           6.0431   -1.8842   33.2569 N.ar    1  UNL1       -0.1892
     19 C           8.8753   -0.7790   33.5628 C.3     1  UNL1        0.2542
     20 O           7.9189   -0.2343   32.5436 O.3     1  UNL1       -0.4560
     21 C           0.6308    2.2505   28.7158 C.ar    1  UNL1        0.0813
     22 C          -0.1440    1.1718   28.0186 C.ar    1  UNL1        0.0185
     23 C          -0.9230    1.4909   26.7770 C.ar    1  UNL1        0.0204
     24 C          -0.9272    2.8886   26.2327 C.ar    1  UNL1        0.0814
     25 N          -0.1524    3.9674   26.9300 N.ar    1  UNL1       -0.2425
     26 C           0.6265    3.6482   28.1715 C.ar    1  UNL1        0.1141
     27 C          -1.7062    3.2077   24.9912 C.ar    1  UNL1        0.0177
     28 C          -3.1789    3.4787   25.0787 C.ar    1  UNL1        0.0015
     29 C          -3.9579    3.7977   23.8372 C.ar    1  UNL1        0.0012
     30 C          -3.2640    3.8459   22.5081 C.ar    1  UNL1        0.0140
     31 C          -1.7913    3.5749   22.4206 C.ar    1  UNL1        0.0012
     32 C          -1.0124    3.2559   23.6621 C.ar    1  UNL1        0.0015
     33 C          -4.0430    4.1649   21.2666 C.2     1  UNL1        0.0729
     34 O          -4.9421    5.3652   21.2330 O.co2   1  UNL1       -0.5446
     35 O          -3.9229    3.2837   20.0586 O.co2   1  UNL1       -0.5446
     36 C           2.9550    3.2164   36.5053 C.3     1  UNL1        0.1183
     37 C           2.2254    2.5124   37.6108 C.ar    1  UNL1        0.0712
     38 N           0.9201    3.0549   38.1125 N.ar    1  UNL1       -0.2471
     39 C           0.1905    2.3509   39.2181 C.ar    1  UNL1        0.0985
     40 C           0.7664    1.1045   39.8219 C.ar    1  UNL1        0.0203
     41 C           2.0718    0.5620   39.3203 C.ar    1  UNL1       -0.0015
     42 C           2.8013    1.2659   38.2148 C.ar    1  UNL1       -0.0069
     43 C           4.1067    0.7234   37.7131 C.3     1  UNL1        0.0323
@<TRIPOS>UNITY_ATOM_ATTR
34 1
charge -1
@<TRIPOS>BOND
     1    19    20    1
     2    20    13    1
     3    13    14   ar
     4    14    15   ar
     5    15     1    1
     6     1     2   am
     7     2     3    2
     8     2     4   am
     9     4    21    1
    10    21    22   ar
    11    22    23   ar
    12    23    24   ar
    13    24    27    1
    14    27    28   ar
    15    28    29   ar
    16    29    30   ar
    17    30    33    1
    18    33    34   ar
    19    33    35   ar
    20    30    31   ar
    21    31    32   ar
    22    24    25   ar
    23    25    26   ar
    24     4     5   am
    25     5     6    2
    26     5     7    1
    27     7     8    1
    28     8     9    1
    29     9    10    1
    30    10    36    1
    31    36    37    1
    32    37    38   ar
    33    38    39   ar
    34    39    40   ar
    35    40    41   ar
    36    41    42   ar
    37    42    43    1
    38    10    11    1
    39    11    12    1
    40    15    16   ar
    41    16    17   ar
    42    17    18   ar
    43    18    13   ar
    44     7     1    1
    45    42    37   ar
    46    26    21   ar
    47    12     7    1
    48    32    27   ar
@<TRIPOS>MOLECULE
*****
 43 48 0 0 0
SMALL
GASTEIGER

@<TRIPOS>ATOM
      1 N           3.1338    0.3443   31.4962 N.am    1  UNL1       -0.2222
      2 C           2.4604    0.4508   30.1600 C.2     1  UNL1        0.3220
      3 O           2.7603   -0.3867   28.9523 O.2     1  UNL1       -0.2512
      4 N           1.4343    1.5418   30.2437 N.am    1  UNL1       -0.1892
      5 C           1.4736    2.1096   31.6315 C.2     1  UNL1        0.2529
      6 O           0.6136    3.2221   32.1537 O.2     1  UNL1       -0.2724
      7 C           2.5239    1.3695   32.4057 C.3     1  UNL1        0.1391
      8 C           3.5998    0.5460   33.0492 C.3     1  UNL1        0.0449
      9 C           3.9745    0.7886   34.4812 C.3     1  UNL1        0.0746
     10 N           3.2732    1.8547   35.2697 N.3     1  UNL1       -0.2676
     11 C           2.1974    2.6782   34.6262 C.3     1  UNL1        0.0746
     12 C           1.8227    2.4356   33.1941 C.3     1  UNL1        0.0449
     13 C           6.7451   -1.2499   31.9045 C.ar    1  UNL1        0.2293
     14 C           5.6535   -0.2873   31.5416 C.ar    1  UNL1        0.0924
     15 C           4.2254   -0.6183   31.8592 C.ar    1  UNL1        0.1453
     16 N           3.8888   -1.9120   32.5397 N.ar    1  UNL1       -0.2084
     17 C           4.9803   -2.8746   32.9027 C.ar    1  UNL1        0.2027
     18 N           6.4085   -2.5436   32.5851 N.ar    1  UNL1       -0.1892
     19 C           9.2098   -2.0031   31.5770 C.3     1  UNL1        0.2542
     20 O           8.1732   -0.9190   31.5869 O.3     1  UNL1       -0.4560
     21 C           0.5281    1.9869   29.1344 C.ar    1  UNL1        0.0813
     22 C          -0.4378    1.0174   28.5204 C.ar    1  UNL1        0.0185
     23 C          -1.3440    1.4624   27.4110 C.ar    1  UNL1        0.0204
     24 C          -1.2843    2.8770   26.9156 C.ar    1  UNL1        0.0814
     25 N          -0.3183    3.8466   27.5296 N.ar    1  UNL1       -0.2425
     26 C           0.5879    3.4014   28.6390 C.ar    1  UNL1        0.1141
     27 C          -2.1905    3.3221   25.8062 C.ar    1  UNL1        0.0177
     28 C          -1.6839    3.3636   24.3950 C.ar    1  UNL1        0.0015
     29 C          -2.5901    3.8086   23.2856 C.ar    1  UNL1        0.0012
     30 C          -4.0029    4.2122   23.5876 C.ar    1  UNL1        0.0140
     31 C          -4.5095    4.1707   24.9988 C.ar    1  UNL1        0.0012
     32 C          -3.6034    3.7256   26.1082 C.ar    1  UNL1        0.0015
     33 C          -4.9091    4.6573   22.4782 C.2     1  UNL1        0.0729
     34 O          -6.3517    4.2461   22.4775 O.co2   1  UNL1       -0.5446
     35 O          -4.3727    5.5135   21.3695 O.co2   1  UNL1       -0.5446
     36 C           3.6480    2.0972   36.7018 C.3     1  UNL1        0.1183
     37 C           2.6457    1.8535   37.7909 C.ar    1  UNL1        0.0712
     38 N           2.5545    0.5032   38.4377 N.ar    1  UNL1       -0.2471
     39 C           1.5522    0.2596   39.5269 C.ar    1  UNL1        0.0985
     40 C           0.6412    1.3661   39.9691 C.ar    1  UNL1        0.0203
     41 C           0.7325    2.7164   39.3223 C.ar    1  UNL1       -0.0015
     42 C           1.7347    2.9601   38.2332 C.ar    1  UNL1       -0.0069
     43 C           1.8260    4.3104   37.5864 C.3     1  UNL1        0.0323
@<TRIPOS>UNITY_ATOM_ATTR
34 1
charge -1
@<TRIPOS>BOND
     1    19    20    1
     2    20    13    1
     3    13    14   ar
     4    14    15   ar
     5    15     1    1
     6     1     2   am
     7     2     3    2
     8     2     4   am
     9     4    21    1
    10    21    22   ar
    11    22    23   ar
    12    23    24   ar
    13    24    27    1
    14    27    28   ar
    15    28    29   ar
    16    29    30   ar
    17    30    33    1
    18    33    34   ar
    19    33    35   ar
    20    30    31   ar
    21    31    32   ar
    22    24    25   ar
    23    25    26   ar
    24     4     5   am
    25     5     6    2
    26     5     7    1
    27     7     8    1
    28     8     9    1
    29     9    10    1
    30    10    36    1
    31    36    37    1
    32    37    38   ar
    33    38    39   ar
    34    39    40   ar
    35    40    41   ar
    36    41    42   ar
    37    42    43    1
    38    10    11    1
    39    11    12    1
    40    15    16   ar
    41    16    17   ar
    42    17    18   ar
    43    18    13   ar
    44     7     1    1
    45    42    37   ar
    46    26    21   ar
    47    12     7    1
    48    32    27   ar
@<TRIPOS>MOLECULE
*****
 43 48 0 0 0
SMALL
GASTEIGER

@<TRIPOS>ATOM
      1 N           1.5340    1.8902   24.2357 N.am    1  UNL1       -0.2222
      2 C           1.6515    2.1459   25.7091 C.2     1  UNL1        0.3220
      3 O           1.0835    3.3212   26.4481 O.2     1  UNL1       -0.2512
      4 N           2.4368    1.0200   26.3138 N.am    1  UNL1       -0.1892
      5 C           2.8046    0.0684   25.2141 C.2     1  UNL1        0.2529
      6 O           3.5921   -1.1985   25.3711 O.2     1  UNL1       -0.2724
      7 C           2.2466    0.6062   23.9297 C.3     1  UNL1        0.1391
      8 C           1.6323    1.2640   22.7298 C.3     1  UNL1        0.0449
      9 C           1.7639    0.6293   21.3771 C.3     1  UNL1        0.0746
     10 N           2.5097   -0.6631   21.2244 N.3     1  UNL1       -0.2676
     11 C           3.1240   -1.3209   22.4243 C.3     1  UNL1        0.0746
     12 C           2.9925   -0.6862   23.7770 C.3     1  UNL1        0.0449
     13 C          -1.3317    3.4160   21.9532 C.ar    1  UNL1        0.2293
     14 C          -0.6255    2.5413   22.9463 C.ar    1  UNL1        0.0924
     15 C           0.8278    2.7649   23.2426 C.ar    1  UNL1        0.1453
     16 N           1.5749    3.8633   22.5459 N.ar    1  UNL1       -0.2084
     17 C           0.8688    4.7380   21.5528 C.ar    1  UNL1        0.2027
     18 N          -0.5846    4.5143   21.2565 N.ar    1  UNL1       -0.1892
     19 C          -3.3009    3.3672   20.2592 C.3     1  UNL1        0.2542
     20 O          -2.7850    3.1924   21.6568 O.3     1  UNL1       -0.4560
     21 C           2.7920    0.8716   27.7635 C.ar    1  UNL1        0.0813
     22 C           2.0388   -0.0984   28.6247 C.ar    1  UNL1        0.0185
     23 C           2.3940   -0.2468   30.0745 C.ar    1  UNL1        0.0204
     24 C           3.5023    0.5750   30.6631 C.ar    1  UNL1        0.0814
     25 N           4.2555    1.5451   29.8018 N.ar    1  UNL1       -0.2425
     26 C           3.9003    1.6934   28.3520 C.ar    1  UNL1        0.1141
     27 C           3.8575    0.4266   32.1128 C.ar    1  UNL1        0.0177
     28 C           3.9590    1.6405   32.9882 C.ar    1  UNL1        0.0015
     29 C           4.3142    1.4922   34.4379 C.ar    1  UNL1        0.0012
     30 C           4.5678    0.1299   35.0123 C.ar    1  UNL1        0.0140
     31 C           4.4662   -1.0840   34.1370 C.ar    1  UNL1        0.0012
     32 C           4.1111   -0.9357   32.6873 C.ar    1  UNL1        0.0015
     33 C           4.9229   -0.0185   36.4621 C.2     1  UNL1        0.0729
     34 O           6.2346   -0.6316   36.8541 O.co2   1  UNL1       -0.5446
     35 O           3.9664    0.4464   37.5200 O.co2   1  UNL1       -0.5446
     36 C           2.6413   -1.2978   19.8716 C.3     1  UNL1        0.1183
     37 C           4.0010   -1.5528   19.2918 C.ar    1  UNL1        0.0712
     38 N           4.9455   -0.4100   19.0639 N.ar    1  UNL1       -0.2471
     39 C           6.3052   -0.6651   18.4841 C.ar    1  UNL1        0.0985
     40 C           6.7204   -2.0628   18.1321 C.ar    1  UNL1        0.0203
     41 C           5.7758   -3.2056   18.3600 C.ar    1  UNL1       -0.0015
     42 C           4.4162   -2.9506   18.9398 C.ar    1  UNL1       -0.0069
     43 C           3.4716   -4.0934   19.1676 C.3     1  UNL1        0.0323
@<TRIPOS>UNITY_ATOM_ATTR
34 1
charge -1
@<TRIPOS>BOND
     1    19    20    1
     2    20    13    1
     3    13    14   ar
     4    14    15   ar
     5    15     1    1
     6     1     2   am
     7     2     3    2
     8     2     4   am
     9     4    21    1
    10    21    22   ar
    11    22    23   ar
    12    23    24   ar
    13    24    27    1
    14    27    28   ar
    15    28    29   ar
    16    29    30   ar
    17    30    33    1
    18    33    34   ar
    19    33    35   ar
    20    30    31   ar
    21    31    32   ar
    22    24    25   ar
    23    25    26   ar
    24     4     5   am
    25     5     6    2
    26     5     7    1
    27     7     8    1
    28     8     9    1
    29     9    10    1
    30    10    36    1
    31    36    37    1
    32    37    38   ar
    33    38    39   ar
    34    39    40   ar
    35    40    41   ar
    36    41    42   ar
    37    42    43    1
    38    10    11    1
    39    11    12    1
    40    15    16   ar
    41    16    17   ar
    42    17    18   ar
    43    18    13   ar
    44     7     1    1
    45    42    37   ar
    46    26    21   ar
    47    12     7    1
    48    32    27   ar
@<TRIPOS>MOLECULE
*****
 43 48 0 0 0
SMALL
GASTEIGER

@<TRIPOS>ATOM
      1 N           5.9909   -2.3759   26.2095 N.am    1  UNL1       -0.2222
      2 C           6.0458   -2.0739   27.6778 C.2     1  UNL1        0.3220
      3 O           7.0718   -2.5850   28.6453 O.2     1  UNL1       -0.2512
      4 N           4.8946   -1.1708   28.0086 N.am    1  UNL1       -0.1892
      5 C           4.1282   -0.9149   26.7449 C.2     1  UNL1        0.2529
      6 O           2.9000   -0.0636   26.6156 O.2     1  UNL1       -0.2724
      7 C           4.8057   -1.6596   25.6329 C.3     1  UNL1        0.1391
      8 C           5.5868   -2.4537   24.6282 C.3     1  UNL1        0.0449
      9 C           5.1550   -2.4780   23.1920 C.3     1  UNL1        0.0746
     10 N           3.9421   -1.7081   22.7604 N.3     1  UNL1       -0.2676
     11 C           3.1611   -0.9140   23.7650 C.3     1  UNL1        0.0746
     12 C           3.5929   -0.8898   25.2013 C.3     1  UNL1        0.0449
     13 C           7.7874   -5.6018   24.7549 C.ar    1  UNL1        0.2293
     14 C           6.8260   -4.7356   25.5134 C.ar    1  UNL1        0.0924
     15 C           6.9523   -3.2422   25.4510 C.ar    1  UNL1        0.1453
     16 N           8.0399   -2.6151   24.6302 N.ar    1  UNL1       -0.2084
     17 C           9.0013   -3.4813   23.8717 C.ar    1  UNL1        0.2027
     18 N           8.8750   -4.9747   23.9340 N.ar    1  UNL1       -0.1892
     19 C           7.2863   -7.7629   26.1070 C.3     1  UNL1        0.2542
     20 O           7.6612   -7.0952   24.8172 O.3     1  UNL1       -0.4560
     21 C           4.5673   -0.6205   29.3650 C.ar    1  UNL1        0.0813
     22 C           5.5704    0.2234   30.0940 C.ar    1  UNL1        0.0185
     23 C           5.2431    0.7738   31.4505 C.ar    1  UNL1        0.0204
     24 C           3.9126    0.4802   32.0779 C.ar    1  UNL1        0.0814
     25 N           2.9094   -0.3638   31.3489 N.ar    1  UNL1       -0.2425
     26 C           3.2368   -0.9141   29.9925 C.ar    1  UNL1        0.1141
     27 C           3.5853    1.0306   33.4344 C.ar    1  UNL1        0.0177
     28 C           2.5572    2.1136   33.5763 C.ar    1  UNL1        0.0015
     29 C           2.2299    2.6639   34.9328 C.ar    1  UNL1        0.0012
     30 C           2.9307    2.1312   36.1473 C.ar    1  UNL1        0.0140
     31 C           3.9588    1.0482   36.0054 C.ar    1  UNL1        0.0012
     32 C           4.2861    0.4979   34.6490 C.ar    1  UNL1        0.0015
     33 C           2.6034    2.6815   37.5038 C.2     1  UNL1        0.0729
     34 O           3.5931    2.5542   38.6237 O.co2   1  UNL1       -0.5446
     35 O           1.2862    3.3593   37.7403 O.co2   1  UNL1       -0.5446
     36 C           3.5103   -1.7323   21.3240 C.3     1  UNL1        0.1183
     37 C           4.5361   -1.8311   20.2341 C.ar    1  UNL1        0.0712
     38 N           5.5491   -0.7392   20.0562 N.ar    1  UNL1       -0.2471
     39 C           6.5749   -0.8381   18.9662 C.ar    1  UNL1        0.0985
     40 C           6.5877   -2.0288   18.0541 C.ar    1  UNL1        0.0203
     41 C           5.5747   -3.1207   18.2319 C.ar    1  UNL1       -0.0015
     42 C           4.5489   -3.0219   19.3219 C.ar    1  UNL1       -0.0069
     43 C           3.5359   -4.1138   19.4997 C.3     1  UNL1        0.0323
@<TRIPOS>UNITY_ATOM_ATTR
34 1
charge -1
@<TRIPOS>BOND
     1    19    20    1
     2    20    13    1
     3    13    14   ar
     4    14    15   ar
     5    15     1    1
     6     1     2   am
     7     2     3    2
     8     2     4   am
     9     4    21    1
    10    21    22   ar
    11    22    23   ar
    12    23    24   ar
    13    24    27    1
    14    27    28   ar
    15    28    29   ar
    16    29    30   ar
    17    30    33    1
    18    33    34   ar
    19    33    35   ar
    20    30    31   ar
    21    31    32   ar
    22    24    25   ar
    23    25    26   ar
    24     4     5   am
    25     5     6    2
    26     5     7    1
    27     7     8    1
    28     8     9    1
    29     9    10    1
    30    10    36    1
    31    36    37    1
    32    37    38   ar
    33    38    39   ar
    34    39    40   ar
    35    40    41   ar
    36    41    42   ar
    37    42    43    1
    38    10    11    1
    39    11    12    1
    40    15    16   ar
    41    16    17   ar
    42    17    18   ar
    43    18    13   ar
    44     7     1    1
    45    42    37   ar
    46    26    21   ar
    47    12     7    1
    48    32    27   ar
@<TRIPOS>MOLECULE
*****
 43 48 0 0 0
SMALL
GASTEIGER

@<TRIPOS>ATOM
      1 N           3.9178    0.1806   25.6831 N.am    1  UNL1       -0.2222
      2 C           3.5867    0.7472   27.0320 C.2     1  UNL1        0.3220
      3 O           2.7607    1.9713   27.2956 O.2     1  UNL1       -0.2512
      4 N           4.2267   -0.1252   28.0710 N.am    1  UNL1       -0.1892
      5 C           4.9533   -1.2309   27.3642 C.2     1  UNL1        0.2529
      6 O           5.7337   -2.3322   28.0184 O.2     1  UNL1       -0.2724
      7 C           4.7624   -1.0419   25.8884 C.3     1  UNL1        0.1391
      8 C           4.4862   -0.7260   24.4483 C.3     1  UNL1        0.0449
      9 C           5.0423   -1.6052   23.3677 C.3     1  UNL1        0.0746
     10 N           5.8745   -2.8003   23.7271 N.3     1  UNL1       -0.2676
     11 C           6.1507   -3.1162   25.1672 C.3     1  UNL1        0.0746
     12 C           5.5946   -2.2370   26.2479 C.3     1  UNL1        0.0449
     13 C           1.7185    0.9015   22.4593 C.ar    1  UNL1        0.2293
     14 C           2.1552    0.3435   23.7813 C.ar    1  UNL1        0.0924
     15 C           3.4811    0.7386   24.3610 C.ar    1  UNL1        0.1453
     16 N           4.3701    1.6918   23.6186 N.ar    1  UNL1       -0.2084
     17 C           3.9334    2.2498   22.2966 C.ar    1  UNL1        0.2027
     18 N           2.6075    1.8546   21.7169 N.ar    1  UNL1       -0.1892
     19 C           0.2059    0.4694   20.3917 C.3     1  UNL1        0.2542
     20 O           0.3927    0.5064   21.8796 O.3     1  UNL1       -0.4560
     21 C           4.1530    0.0733   29.5559 C.ar    1  UNL1        0.0813
     22 C           5.2357    0.8306   30.2660 C.ar    1  UNL1        0.0185
     23 C           5.1620    1.0291   31.7510 C.ar    1  UNL1        0.0204
     24 C           4.0055    0.4703   32.5259 C.ar    1  UNL1        0.0814
     25 N           2.9228   -0.2871   31.8158 N.ar    1  UNL1       -0.2425
     26 C           2.9966   -0.4855   30.3308 C.ar    1  UNL1        0.1141
     27 C           3.9318    0.6688   34.0109 C.ar    1  UNL1        0.0177
     28 C           3.1573    1.8224   34.5758 C.ar    1  UNL1        0.0015
     29 C           3.0836    2.0209   36.0608 C.ar    1  UNL1        0.0012
     30 C           3.7845    1.0656   36.9808 C.ar    1  UNL1        0.0140
     31 C           4.5590   -0.0880   36.4158 C.ar    1  UNL1        0.0012
     32 C           4.6327   -0.2865   34.9309 C.ar    1  UNL1        0.0015
     33 C           3.7107    1.2641   38.4658 C.2     1  UNL1        0.0729
     34 O           4.7580    2.0777   39.1666 O.co2   1  UNL1       -0.5446
     35 O           2.5896    0.6490   39.2499 O.co2   1  UNL1       -0.5446
     36 C           6.4305   -3.6794   22.6464 C.3     1  UNL1        0.1183
     37 C           5.7470   -3.7527   21.3133 C.ar    1  UNL1        0.0712
     38 N           4.4926   -4.5602   21.1569 N.ar    1  UNL1       -0.2471
     39 C           3.8090   -4.6333   19.8237 C.ar    1  UNL1        0.0985
     40 C           4.3798   -3.8990   18.6469 C.ar    1  UNL1        0.0203
     41 C           5.6342   -3.0915   18.8032 C.ar    1  UNL1       -0.0015
     42 C           6.3178   -3.0183   20.1364 C.ar    1  UNL1       -0.0069
     43 C           7.5722   -2.2108   20.2927 C.3     1  UNL1        0.0323
@<TRIPOS>UNITY_ATOM_ATTR
34 1
charge -1
@<TRIPOS>BOND
     1    19    20    1
     2    20    13    1
     3    13    14   ar
     4    14    15   ar
     5    15     1    1
     6     1     2   am
     7     2     3    2
     8     2     4   am
     9     4    21    1
    10    21    22   ar
    11    22    23   ar
    12    23    24   ar
    13    24    27    1
    14    27    28   ar
    15    28    29   ar
    16    29    30   ar
    17    30    33    1
    18    33    34   ar
    19    33    35   ar
    20    30    31   ar
    21    31    32   ar
    22    24    25   ar
    23    25    26   ar
    24     4     5   am
    25     5     6    2
    26     5     7    1
    27     7     8    1
    28     8     9    1
    29     9    10    1
    30    10    36    1
    31    36    37    1
    32    37    38   ar
    33    38    39   ar
    34    39    40   ar
    35    40    41   ar
    36    41    42   ar
    37    42    43    1
    38    10    11    1
    39    11    12    1
    40    15    16   ar
    41    16    17   ar
    42    17    18   ar
    43    18    13   ar
    44     7     1    1
    45    42    37   ar
    46    26    21   ar
    47    12     7    1
    48    32    27   ar
@<TRIPOS>MOLECULE
*****
 43 48 0 0 0
SMALL
GASTEIGER

@<TRIPOS>ATOM
      1 N           3.4253   -0.0824   30.5816 N.am    1  UNL1       -0.2222
      2 C           2.1661    0.6929   30.3295 C.2     1  UNL1        0.3220
      3 O           1.2898    1.3157   31.3756 O.2     1  UNL1       -0.2512
      4 N           1.9372    0.7362   28.8477 N.am    1  UNL1       -0.1892
      5 C           3.0548   -0.0125   28.1840 C.2     1  UNL1        0.2529
      6 O           3.2233   -0.2190   26.7079 O.2     1  UNL1       -0.2724
      7 C           3.9745   -0.5184   29.2556 C.3     1  UNL1        0.1391
      8 C           4.7975   -0.9564   30.4307 C.3     1  UNL1        0.0449
      9 C           6.0470   -1.7576   30.2143 C.3     1  UNL1        0.0746
     10 N           6.4735   -2.1208   28.8228 N.3     1  UNL1       -0.2676
     11 C           5.6505   -1.6827   27.6477 C.3     1  UNL1        0.0746
     12 C           4.4010   -0.8816   27.8641 C.3     1  UNL1        0.0449
     13 C           5.5593    0.3344   33.9015 C.ar    1  UNL1        0.2293
     14 C           4.9555    0.6230   32.5591 C.ar    1  UNL1        0.0924
     15 C           4.0291   -0.3711   31.9240 C.ar    1  UNL1        0.1453
     16 N           3.7065   -1.6540   32.6313 N.ar    1  UNL1       -0.2084
     17 C           4.3103   -1.9427   33.9736 C.ar    1  UNL1        0.2027
     18 N           5.2367   -0.9485   34.6088 N.ar    1  UNL1       -0.1892
     19 C           5.9391    2.6001   35.1147 C.3     1  UNL1        0.2542
     20 O           6.4857    1.3285   34.5367 O.3     1  UNL1       -0.4560
     21 C           0.7919    1.4097   28.1518 C.ar    1  UNL1        0.0813
     22 C           1.0501    2.5570   27.2207 C.ar    1  UNL1        0.0185
     23 C          -0.0953    3.2306   26.5248 C.ar    1  UNL1        0.0204
     24 C          -1.4990    2.7569   26.7600 C.ar    1  UNL1        0.0814
     25 N          -1.7573    1.6095   27.6911 N.ar    1  UNL1       -0.2425
     26 C          -0.6118    0.9360   28.3870 C.ar    1  UNL1        0.1141
     27 C          -2.6444    3.4305   26.0640 C.ar    1  UNL1        0.0177
     28 C          -3.8035    3.9523   26.8604 C.ar    1  UNL1        0.0015
     29 C          -4.9490    4.6259   26.1644 C.ar    1  UNL1        0.0012
     30 C          -4.9352    4.7776   24.6722 C.ar    1  UNL1        0.0140
     31 C          -3.7761    4.2558   23.8759 C.ar    1  UNL1        0.0012
     32 C          -2.6307    3.5822   24.5717 C.ar    1  UNL1        0.0015
     33 C          -6.0806    5.4512   23.9763 C.2     1  UNL1        0.0729
     34 O          -7.4506    4.8422   24.0250 O.co2   1  UNL1       -0.5446
     35 O          -5.8561    6.7338   23.2315 O.co2   1  UNL1       -0.5446
     36 C           7.7230   -2.9220   28.6064 C.3     1  UNL1        0.1183
     37 C           7.7146   -4.0827   27.6564 C.ar    1  UNL1        0.0712
     38 N           8.1146   -3.8830   26.2246 N.ar    1  UNL1       -0.2471
     39 C           8.1062   -5.0439   25.2746 C.ar    1  UNL1        0.0985
     40 C           7.6977   -6.4044   25.7564 C.ar    1  UNL1        0.0203
     41 C           7.2976   -6.6041   27.1882 C.ar    1  UNL1       -0.0015
     42 C           7.3061   -5.4433   28.1382 C.ar    1  UNL1       -0.0069
     43 C           6.9060   -5.6430   29.5700 C.3     1  UNL1        0.0323
@<TRIPOS>UNITY_ATOM_ATTR
34 1
charge -1
@<TRIPOS>BOND
     1    19    20    1
     2    20    13    1
     3    13    14   ar
     4    14    15   ar
     5    15     1    1
     6     1     2   am
     7     2     3    2
     8     2     4   am
     9     4    21    1
    10    21    22   ar
    11    22    23   ar
    12    23    24   ar
    13    24    27    1
    14    27    28   ar
    15    28    29   ar
    16    29    30   ar
    17    30    33    1
    18    33    34   ar
    19    33    35   ar
    20    30    31   ar
    21    31    32   ar
    22    24    25   ar
    23    25    26   ar
    24     4     5   am
    25     5     6    2
    26     5     7    1
    27     7     8    1
    28     8     9    1
    29     9    10    1
    30    10    36    1
    31    36    37    1
    32    37    38   ar
    33    38    39   ar
    34    39    40   ar
    35    40    41   ar
    36    41    42   ar
    37    42    43    1
    38    10    11    1
    39    11    12    1
    40    15    16   ar
    41    16    17   ar
    42    17    18   ar
    43    18    13   ar
    44     7     1    1
    45    42    37   ar
    46    26    21   ar
    47    12     7    1
    48    32    27   ar
@<TRIPOS>MOLECULE
*****
 43 48 0 0 0
SMALL
GASTEIGER

@<TRIPOS>ATOM
      1 N           3.9294   -0.2742   31.4530 N.am    1  UNL1       -0.2222
      2 C           3.1678   -0.0625   30.1781 C.2     1  UNL1        0.3220
      3 O           3.4194   -0.7604   28.8744 O.2     1  UNL1       -0.2512
      4 N           2.1103    0.9697   30.4359 N.am    1  UNL1       -0.1892
      5 C           2.2184    1.3959   31.8700 C.2     1  UNL1        0.2529
      6 O           1.3541    2.4124   32.5552 O.2     1  UNL1       -0.2724
      7 C           3.3427    0.6271   32.4986 C.3     1  UNL1        0.1391
      8 C           4.4870   -0.2104   32.9875 C.3     1  UNL1        0.0449
      9 C           4.9442   -0.0976   34.4116 C.3     1  UNL1        0.0746
     10 N           4.2570    0.8526   35.3469 N.3     1  UNL1       -0.2676
     11 C           3.1127    1.6902   34.8581 C.3     1  UNL1        0.0746
     12 C           2.6555    1.5774   33.4339 C.3     1  UNL1        0.0449
     13 C           7.6047   -1.7710   31.4136 C.ar    1  UNL1        0.2293
     14 C           6.4577   -0.8242   31.2187 C.ar    1  UNL1        0.0924
     15 C           5.0763   -1.2211   31.6479 C.ar    1  UNL1        0.1453
     16 N           4.8419   -2.5647   32.2721 N.ar    1  UNL1       -0.2084
     17 C           5.9888   -3.5116   32.4670 C.ar    1  UNL1        0.2027
     18 N           7.3702   -3.1147   32.0378 N.ar    1  UNL1       -0.1892
     19 C           9.2486   -0.9978   29.5564 C.3     1  UNL1        0.2542
     20 O           8.9861   -1.3742   30.9845 O.3     1  UNL1       -0.4560
     21 C           1.1189    1.4852   29.4353 C.ar    1  UNL1        0.0813
     22 C           1.1596    2.9235   29.0117 C.ar    1  UNL1        0.0185
     23 C           0.1682    3.4390   28.0110 C.ar    1  UNL1        0.0204
     24 C          -0.8640    2.5162   27.4339 C.ar    1  UNL1        0.0814
     25 N          -0.9047    1.0777   27.8575 N.ar    1  UNL1       -0.2425
     26 C           0.0868    0.5623   28.8582 C.ar    1  UNL1        0.1141
     27 C          -1.8554    3.0317   26.4333 C.ar    1  UNL1        0.0177
     28 C          -3.2017    3.5106   26.8895 C.ar    1  UNL1        0.0015
     29 C          -4.1931    4.0261   25.8889 C.ar    1  UNL1        0.0012
     30 C          -3.8382    4.0626   24.4319 C.ar    1  UNL1        0.0140
     31 C          -2.4919    3.5837   23.9756 C.ar    1  UNL1        0.0012
     32 C          -1.5005    3.0682   24.9762 C.ar    1  UNL1        0.0015
     33 C          -4.8296    4.5781   23.4312 C.2     1  UNL1        0.0729
     34 O          -4.7306    4.1608   21.9939 O.co2   1  UNL1       -0.5446
     35 O          -5.9201    5.5110   23.8680 O.co2   1  UNL1       -0.5446
     36 C           4.7143    0.9654   36.7711 C.3     1  UNL1        0.1183
     37 C           4.4246    2.2107   37.5555 C.ar    1  UNL1        0.0712
     38 N           5.2880    3.4248   37.3810 N.ar    1  UNL1       -0.2471
     39 C           4.9983    4.6701   38.1654 C.ar    1  UNL1        0.0985
     40 C           3.8452    4.7013   39.1243 C.ar    1  UNL1        0.0203
     41 C           2.9818    3.4872   39.2987 C.ar    1  UNL1       -0.0015
     42 C           3.2715    2.2419   38.5144 C.ar    1  UNL1       -0.0069
     43 C           2.4081    1.0278   38.6888 C.3     1  UNL1        0.0323
@<TRIPOS>UNITY_ATOM_ATTR
34 1
charge -1
@<TRIPOS>BOND
     1    19    20    1
     2    20    13    1
     3    13    14   ar
     4    14    15   ar
     5    15     1    1
     6     1     2   am
     7     2     3    2
     8     2     4   am
     9     4    21    1
    10    21    22   ar
    11    22    23   ar
    12    23    24   ar
    13    24    27    1
    14    27    28   ar
    15    28    29   ar
    16    29    30   ar
    17    30    33    1
    18    33    34   ar
    19    33    35   ar
    20    30    31   ar
    21    31    32   ar
    22    24    25   ar
    23    25    26   ar
    24     4     5   am
    25     5     6    2
    26     5     7    1
    27     7     8    1
    28     8     9    1
    29     9    10    1
    30    10    36    1
    31    36    37    1
    32    37    38   ar
    33    38    39   ar
    34    39    40   ar
    35    40    41   ar
    36    41    42   ar
    37    42    43    1
    38    10    11    1
    39    11    12    1
    40    15    16   ar
    41    16    17   ar
    42    17    18   ar
    43    18    13   ar
    44     7     1    1
    45    42    37   ar
    46    26    21   ar
    47    12     7    1
    48    32    27   ar
@<TRIPOS>MOLECULE
*****
 43 48 0 0 0
SMALL
GASTEIGER

@<TRIPOS>ATOM
      1 N           3.2354    0.1388   31.5795 N.am    1  UNL1       -0.2222
      2 C           2.4974    0.2745   30.2805 C.2     1  UNL1        0.3220
      3 O           2.7154   -0.5574   29.0516 O.2     1  UNL1       -0.2512
      4 N           1.5033    1.3883   30.4264 N.am    1  UNL1       -0.1892
      5 C           1.6268    1.9409   31.8154 C.2     1  UNL1        0.2529
      6 O           0.8213    3.0679   32.3908 O.2     1  UNL1       -0.2724
      7 C           2.6973    1.1687   32.5281 C.3     1  UNL1        0.1391
      8 C           3.7846    0.3138   33.1083 C.3     1  UNL1        0.0449
      9 C           4.2375    0.5330   34.5214 C.3     1  UNL1        0.0746
     10 N           3.6030    1.6071   35.3542 N.3     1  UNL1       -0.2676
     11 C           2.5156    2.4620   34.7740 C.3     1  UNL1        0.0746
     12 C           2.0628    2.2428   33.3609 C.3     1  UNL1        0.0449
     13 C           6.8182   -1.5585   31.7577 C.ar    1  UNL1        0.2293
     14 C           5.7328   -0.5670   31.4597 C.ar    1  UNL1        0.0924
     15 C           4.3208   -0.8527   31.8774 C.ar    1  UNL1        0.1453
     16 N           3.9941   -2.1298   32.5931 N.ar    1  UNL1       -0.2084
     17 C           5.0795   -3.1214   32.8910 C.ar    1  UNL1        0.2027
     18 N           6.4916   -2.8357   32.4733 N.ar    1  UNL1       -0.1892
     19 C           9.0565   -0.2884   32.1134 C.3     1  UNL1        0.2542
     20 O           8.2303   -1.2729   31.3400 O.3     1  UNL1       -0.4560
     21 C           0.5526    1.8656   29.3690 C.ar    1  UNL1        0.0813
     22 C           0.6372    3.2762   28.8657 C.ar    1  UNL1        0.0185
     23 C          -0.3135    3.7535   27.8082 C.ar    1  UNL1        0.0204
     24 C          -1.3489    2.8203   27.2540 C.ar    1  UNL1        0.0814
     25 N          -1.4335    1.4097   27.7572 N.ar    1  UNL1       -0.2425
     26 C          -0.4827    0.9325   28.8147 C.ar    1  UNL1        0.1141
     27 C          -2.2996    3.2976   26.1965 C.ar    1  UNL1        0.0177
     28 C          -3.6537    3.8141   26.5832 C.ar    1  UNL1        0.0015
     29 C          -4.6045    4.2914   25.5257 C.ar    1  UNL1        0.0012
     30 C          -4.2010    4.2522   24.0815 C.ar    1  UNL1        0.0140
     31 C          -2.8468    3.7357   23.6948 C.ar    1  UNL1        0.0012
     32 C          -1.8961    3.2584   24.7522 C.ar    1  UNL1        0.0015
     33 C          -5.1517    4.7296   23.0240 C.2     1  UNL1        0.0729
     34 O          -5.0941    6.1516   22.5502 O.co2   1  UNL1       -0.5446
     35 O          -6.1601    3.7848   22.4403 O.co2   1  UNL1       -0.5446
     36 C           4.0559    1.8263   36.7674 C.3     1  UNL1        0.1183
     37 C           5.3737    2.4896   37.0383 C.ar    1  UNL1        0.0712
     38 N           5.4486    3.9817   37.1730 N.ar    1  UNL1       -0.2471
     39 C           6.7664    4.6450   37.4439 C.ar    1  UNL1        0.0985
     40 C           8.0093    3.8163   37.5801 C.ar    1  UNL1        0.0203
     41 C           7.9343    2.3243   37.4454 C.ar    1  UNL1       -0.0015
     42 C           6.6166    1.6609   37.1745 C.ar    1  UNL1       -0.0069
     43 C           6.5416    0.1689   37.0398 C.3     1  UNL1        0.0323
@<TRIPOS>UNITY_ATOM_ATTR
34 1
charge -1
@<TRIPOS>BOND
     1    19    20    1
     2    20    13    1
     3    13    14   ar
     4    14    15   ar
     5    15     1    1
     6     1     2   am
     7     2     3    2
     8     2     4   am
     9     4    21    1
    10    21    22   ar
    11    22    23   ar
    12    23    24   ar
    13    24    27    1
    14    27    28   ar
    15    28    29   ar
    16    29    30   ar
    17    30    33    1
    18    33    34   ar
    19    33    35   ar
    20    30    31   ar
    21    31    32   ar
    22    24    25   ar
    23    25    26   ar
    24     4     5   am
    25     5     6    2
    26     5     7    1
    27     7     8    1
    28     8     9    1
    29     9    10    1
    30    10    36    1
    31    36    37    1
    32    37    38   ar
    33    38    39   ar
    34    39    40   ar
    35    40    41   ar
    36    41    42   ar
    37    42    43    1
    38    10    11    1
    39    11    12    1
    40    15    16   ar
    41    16    17   ar
    42    17    18   ar
    43    18    13   ar
    44     7     1    1
    45    42    37   ar
    46    26    21   ar
    47    12     7    1
    48    32    27   ar
@<TRIPOS>MOLECULE
*****
 43 48 0 0 0
SMALL
GASTEIGER

@<TRIPOS>ATOM
      1 N           4.0640   -1.3927   23.4880 N.am    1  UNL1       -0.2222
      2 C           4.5946   -1.6112   24.8740 C.2     1  UNL1        0.3220
      3 O           5.7295   -2.5166   25.2510 O.2     1  UNL1       -0.2512
      4 N           3.7909   -0.7653   25.8167 N.am    1  UNL1       -0.1892
      5 C           2.7636   -0.0241   25.0134 C.2     1  UNL1        0.2529
      6 O           1.7462    0.9363   25.5542 O.2     1  UNL1       -0.2724
      7 C           2.9324   -0.4118   23.5741 C.3     1  UNL1        0.1391
      8 C           3.2189   -0.8920   22.1823 C.3     1  UNL1        0.0449
      9 C           2.3999   -0.3875   21.0314 C.3     1  UNL1        0.0746
     10 N           1.2944    0.5973   21.2724 N.3     1  UNL1       -0.2676
     11 C           1.0079    1.0776   22.6642 C.3     1  UNL1        0.0746
     12 C           1.8269    0.5730   23.8151 C.3     1  UNL1        0.0449
     13 C           6.1088   -1.9883   20.1393 C.ar    1  UNL1        0.2293
     14 C           5.5976   -1.3398   21.3915 C.ar    1  UNL1        0.0924
     15 C           4.5752   -2.0412   22.2358 C.ar    1  UNL1        0.1453
     16 N           4.0641   -3.3911   21.8278 N.ar    1  UNL1       -0.2084
     17 C           4.5753   -4.0397   20.5757 C.ar    1  UNL1        0.2027
     18 N           5.5977   -3.3382   19.7314 N.ar    1  UNL1       -0.1892
     19 C           6.7542   -0.7642   17.9405 C.3     1  UNL1        0.2542
     20 O           7.1312   -1.2870   19.2950 O.3     1  UNL1       -0.4560
     21 C           3.9811   -0.6763   27.3018 C.ar    1  UNL1        0.0813
     22 C           2.8080   -0.8517   28.2200 C.ar    1  UNL1        0.0185
     23 C           2.9982   -0.7627   29.7053 C.ar    1  UNL1        0.0204
     24 C           4.3615   -0.4984   30.2723 C.ar    1  UNL1        0.0814
     25 N           5.5347   -0.3230   29.3541 N.ar    1  UNL1       -0.2425
     26 C           5.3444   -0.4120   27.8689 C.ar    1  UNL1        0.1141
     27 C           4.5517   -0.4094   31.7576 C.ar    1  UNL1        0.0177
     28 C           5.1522    0.8240   32.3642 C.ar    1  UNL1        0.0015
     29 C           5.3424    0.9130   33.8495 C.ar    1  UNL1        0.0012
     30 C           4.9321   -0.2315   34.7279 C.ar    1  UNL1        0.0140
     31 C           4.3316   -1.4650   34.1213 C.ar    1  UNL1        0.0012
     32 C           4.1414   -1.5539   32.6361 C.ar    1  UNL1        0.0015
     33 C           5.1223   -0.1425   36.2132 C.2     1  UNL1        0.0729
     34 O           4.0209    0.3922   37.0797 O.co2   1  UNL1       -0.5446
     35 O           6.4141   -0.5883   36.8319 O.co2   1  UNL1       -0.5446
     36 C           0.4753    1.1019   20.1214 C.3     1  UNL1        0.1183
     37 C           0.8163    2.4121   19.4757 C.ar    1  UNL1        0.0712
     38 N           2.1579    2.6049   18.8330 N.ar    1  UNL1       -0.2471
     39 C           2.4988    3.9152   18.1872 C.ar    1  UNL1        0.0985
     40 C           1.4982    5.0327   18.1842 C.ar    1  UNL1        0.0203
     41 C           0.1567    4.8399   18.8269 C.ar    1  UNL1       -0.0015
     42 C          -0.1843    3.5297   19.4726 C.ar    1  UNL1       -0.0069
     43 C          -1.5259    3.3369   20.1153 C.3     1  UNL1        0.0323
@<TRIPOS>UNITY_ATOM_ATTR
34 1
charge -1
@<TRIPOS>BOND
     1    19    20    1
     2    20    13    1
     3    13    14   ar
     4    14    15   ar
     5    15     1    1
     6     1     2   am
     7     2     3    2
     8     2     4   am
     9     4    21    1
    10    21    22   ar
    11    22    23   ar
    12    23    24   ar
    13    24    27    1
    14    27    28   ar
    15    28    29   ar
    16    29    30   ar
    17    30    33    1
    18    33    34   ar
    19    33    35   ar
    20    30    31   ar
    21    31    32   ar
    22    24    25   ar
    23    25    26   ar
    24     4     5   am
    25     5     6    2
    26     5     7    1
    27     7     8    1
    28     8     9    1
    29     9    10    1
    30    10    36    1
    31    36    37    1
    32    37    38   ar
    33    38    39   ar
    34    39    40   ar
    35    40    41   ar
    36    41    42   ar
    37    42    43    1
    38    10    11    1
    39    11    12    1
    40    15    16   ar
    41    16    17   ar
    42    17    18   ar
    43    18    13   ar
    44     7     1    1
    45    42    37   ar
    46    26    21   ar
    47    12     7    1
    48    32    27   ar
