@<TRIPOS>MOLECULE
*****
 26 29 0 0 0
SMALL
GASTEIGER

@<TRIPOS>ATOM
      1 C          -6.4536  -19.3193   20.7935 C.3     1  UNL1        0.0991
      2 C          -8.8364  -21.6694   17.7852 C.ar    1  UNL1       -0.0000
      3 C          -9.2394  -20.2664   18.1303 C.ar    1  UNL1       -0.0003
      4 C          -8.4452  -19.4831   19.1331 C.ar    1  UNL1       -0.0029
      5 C          -7.2479  -20.1027   19.7907 C.ar    1  UNL1       -0.0061
      6 C          -6.8448  -21.5056   19.4456 C.ar    1  UNL1       -0.0029
      7 C          -7.6391  -22.2890   18.4428 C.ar    1  UNL1       -0.0003
      8 N          -4.9651  -19.2057   20.6476 N.3     1  UNL1       -0.2690
      9 C          -4.3809  -18.3858   19.5356 C.3     1  UNL1        0.0724
     10 C          -2.8923  -18.2722   19.3898 C.3     1  UNL1        0.0174
     11 C          -1.9880  -18.9784   20.3559 C.3     1  UNL1        0.0029
     12 C          -2.5722  -19.7983   21.4679 C.3     1  UNL1        0.0174
     13 C          -4.0607  -19.9119   21.6138 C.3     1  UNL1        0.0724
     14 C          -7.1479  -18.6496   21.9421 C.3     1  UNL1        0.0991
     15 C          -8.5113  -19.1097   22.3657 C.ar    1  UNL1       -0.0061
     16 C          -9.7346  -18.4552   21.7953 C.ar    1  UNL1       -0.0029
     17 C         -11.0980  -18.9154   22.2189 C.ar    1  UNL1       -0.0003
     18 C         -11.2381  -20.0300   23.2130 C.ar    1  UNL1       -0.0000
     19 C         -10.0148  -20.6844   23.7834 C.ar    1  UNL1       -0.0003
     20 C          -8.6515  -20.2242   23.3597 C.ar    1  UNL1       -0.0029
     21 N          -6.4788  -17.5196   22.6671 N.3     1  UNL1       -0.2690
     22 C          -7.2463  -16.2688   22.9777 C.3     1  UNL1        0.0724
     23 C          -6.5773  -15.1389   23.7027 C.3     1  UNL1        0.0174
     24 C          -5.1407  -15.2598   24.1172 C.3     1  UNL1        0.0029
     25 C          -4.3732  -16.5106   23.8066 C.3     1  UNL1        0.0174
     26 C          -5.0423  -17.6405   23.0815 C.3     1  UNL1        0.0724
@<TRIPOS>BOND
     1     2     3   ar
     2     3     4   ar
     3     4     5   ar
     4     5     1    1
     5     1    14    1
     6    14    15    1
     7    15    16   ar
     8    16    17   ar
     9    17    18   ar
    10    18    19   ar
    11    19    20   ar
    12    14    21    1
    13    21    22    1
    14    22    23    1
    15    23    24    1
    16    24    25    1
    17    25    26    1
    18     1     8    1
    19     8     9    1
    20     9    10    1
    21    10    11    1
    22    11    12    1
    23    12    13    1
    24     5     6   ar
    25     6     7   ar
    26     7     2   ar
    27    20    15   ar
    28    26    21    1
    29    13     8    1
@<TRIPOS>MOLECULE
*****
 26 29 0 0 0
SMALL
GASTEIGER

@<TRIPOS>ATOM
      1 C          -7.1642  -18.6204   21.9137 C.3     1  UNL1        0.0991
      2 C         -11.3056  -19.9099   23.1122 C.ar    1  UNL1       -0.0000
      3 C         -10.1077  -20.6093   23.6829 C.ar    1  UNL1       -0.0003
      4 C          -8.7272  -20.1795   23.2834 C.ar    1  UNL1       -0.0029
      5 C          -8.5447  -19.0502   22.3132 C.ar    1  UNL1       -0.0061
      6 C          -9.7426  -18.3508   21.7424 C.ar    1  UNL1       -0.0029
      7 C         -11.1230  -18.7807   22.1419 C.ar    1  UNL1       -0.0003
      8 N          -6.4814  -17.5085   22.6535 N.3     1  UNL1       -0.2690
      9 C          -5.0451  -17.6506   23.0620 C.3     1  UNL1        0.0724
     10 C          -4.3623  -16.5386   23.8018 C.3     1  UNL1        0.0174
     11 C          -5.1157  -15.2846   24.1332 C.3     1  UNL1        0.0029
     12 C          -6.5520  -15.1426   23.7247 C.3     1  UNL1        0.0174
     13 C          -7.2349  -16.2545   22.9849 C.3     1  UNL1        0.0724
     14 C          -6.4666  -19.3025   20.7744 C.3     1  UNL1        0.0991
     15 C          -7.2582  -20.0947   19.7765 C.ar    1  UNL1       -0.0061
     16 C          -8.4663  -19.4884   19.1261 C.ar    1  UNL1       -0.0029
     17 C          -9.2579  -20.2806   18.1282 C.ar    1  UNL1       -0.0003
     18 C          -8.8414  -21.6791   17.7807 C.ar    1  UNL1       -0.0000
     19 C          -7.6334  -22.2854   18.4312 C.ar    1  UNL1       -0.0003
     20 C          -6.8418  -21.4932   19.4290 C.ar    1  UNL1       -0.0029
     21 N          -4.9773  -19.1924   20.6329 N.3     1  UNL1       -0.2690
     22 C          -4.0775  -19.9015   21.6012 C.3     1  UNL1        0.0724
     23 C          -2.5883  -19.7914   21.4598 C.3     1  UNL1        0.0174
     24 C          -1.9988  -18.9721   20.3500 C.3     1  UNL1        0.0029
     25 C          -2.8986  -18.2630   19.3818 C.3     1  UNL1        0.0174
     26 C          -4.3879  -18.3731   19.5233 C.3     1  UNL1        0.0724
@<TRIPOS>BOND
     1     2     3   ar
     2     3     4   ar
     3     4     5   ar
     4     5     1    1
     5     1    14    1
     6    14    15    1
     7    15    16   ar
     8    16    17   ar
     9    17    18   ar
    10    18    19   ar
    11    19    20   ar
    12    14    21    1
    13    21    22    1
    14    22    23    1
    15    23    24    1
    16    24    25    1
    17    25    26    1
    18     1     8    1
    19     8     9    1
    20     9    10    1
    21    10    11    1
    22    11    12    1
    23    12    13    1
    24     5     6   ar
    25     6     7   ar
    26     7     2   ar
    27    20    15   ar
    28    26    21    1
    29    13     8    1
@<TRIPOS>MOLECULE
*****
 26 29 0 0 0
SMALL
GASTEIGER

@<TRIPOS>ATOM
      1 C           4.2241   -0.3308   20.3743 C.3     1  UNL1        0.0991
      2 C           3.4139    0.8335   24.6449 C.ar    1  UNL1       -0.0000
      3 C           2.9151   -0.4793   24.1178 C.ar    1  UNL1       -0.0003
      4 C           3.1852   -0.8674   22.6943 C.ar    1  UNL1       -0.0029
      5 C           3.9540    0.0573   21.7978 C.ar    1  UNL1       -0.0061
      6 C           4.4529    1.3700   22.3248 C.ar    1  UNL1       -0.0029
      7 C           4.1828    1.7581   23.7484 C.ar    1  UNL1       -0.0003
      8 N           4.4060   -1.7750   20.0122 N.3     1  UNL1       -0.2690
      9 C           3.2502   -2.5644   19.4729 C.3     1  UNL1        0.0724
     10 C           3.4321   -4.0087   19.1108 C.3     1  UNL1        0.0174
     11 C           4.7699   -4.6635   19.2881 C.3     1  UNL1        0.0029
     12 C           5.9258   -3.8741   19.8275 C.3     1  UNL1        0.0174
     13 C           5.7439   -2.4299   20.1895 C.3     1  UNL1        0.0724
     14 C           4.3122    0.7253   19.3128 C.3     1  UNL1        0.0991
     15 C           3.1014    1.5376   18.9606 C.ar    1  UNL1       -0.0061
     16 C           3.2012    3.0315   18.8688 C.ar    1  UNL1       -0.0029
     17 C           1.9903    3.8438   18.5166 C.ar    1  UNL1       -0.0003
     18 C           0.6797    3.1622   18.2562 C.ar    1  UNL1       -0.0000
     19 C           0.5800    1.6683   18.3480 C.ar    1  UNL1       -0.0003
     20 C           1.7908    0.8560   18.7002 C.ar    1  UNL1       -0.0029
     21 N           5.6113    0.9692   18.6034 N.3     1  UNL1       -0.2690
     22 C           5.7083    0.7560   17.1218 C.3     1  UNL1        0.0724
     23 C           7.0072    0.9998   16.4125 C.3     1  UNL1        0.0174
     24 C           8.2093    1.4569   17.1847 C.3     1  UNL1        0.0029
     25 C           8.1123    1.6701   18.6663 C.3     1  UNL1        0.0174
     26 C           6.8132    1.4262   19.3757 C.3     1  UNL1        0.0724
@<TRIPOS>BOND
     1     2     3   ar
     2     3     4   ar
     3     4     5   ar
     4     5     1    1
     5     1    14    1
     6    14    15    1
     7    15    16   ar
     8    16    17   ar
     9    17    18   ar
    10    18    19   ar
    11    19    20   ar
    12    14    21    1
    13    21    22    1
    14    22    23    1
    15    23    24    1
    16    24    25    1
    17    25    26    1
    18     1     8    1
    19     8     9    1
    20     9    10    1
    21    10    11    1
    22    11    12    1
    23    12    13    1
    24     5     6   ar
    25     6     7   ar
    26     7     2   ar
    27    20    15   ar
    28    26    21    1
    29    13     8    1
@<TRIPOS>MOLECULE
*****
 26 29 0 0 0
SMALL
GASTEIGER

@<TRIPOS>ATOM
      1 C           4.2393   -0.3199   20.3714 C.3     1  UNL1        0.0991
      2 C           3.4448    0.8419   24.6457 C.ar    1  UNL1       -0.0000
      3 C           4.2300    1.7568   23.7533 C.ar    1  UNL1       -0.0003
      4 C           4.4948    1.3695   22.3286 C.ar    1  UNL1       -0.0029
      5 C           3.9744    0.0673   21.7962 C.ar    1  UNL1       -0.0061
      6 C           3.1892   -0.8475   22.6885 C.ar    1  UNL1       -0.0029
      7 C           2.9244   -0.4603   24.1133 C.ar    1  UNL1       -0.0003
      8 N           4.4132   -1.7645   20.0068 N.3     1  UNL1       -0.2690
      9 C           5.7468   -2.4277   20.1851 C.3     1  UNL1        0.0724
     10 C           5.9207   -3.8723   19.8204 C.3     1  UNL1        0.0174
     11 C           4.7611   -4.6536   19.2775 C.3     1  UNL1        0.0029
     12 C           3.4276   -3.9904   19.0993 C.3     1  UNL1        0.0174
     13 C           3.2536   -2.5459   19.4639 C.3     1  UNL1        0.0724
     14 C           4.3301    0.7373   19.3113 C.3     1  UNL1        0.0991
     15 C           3.1208    1.5518   18.9587 C.ar    1  UNL1       -0.0061
     16 C           1.8038    0.8744   18.7203 C.ar    1  UNL1       -0.0029
     17 C           0.5946    1.6888   18.3677 C.ar    1  UNL1       -0.0003
     18 C           0.7022    3.1806   18.2535 C.ar    1  UNL1       -0.0000
     19 C           2.0192    3.8579   18.4919 C.ar    1  UNL1       -0.0003
     20 C           3.2285    3.0435   18.8445 C.ar    1  UNL1       -0.0029
     21 N           5.6303    0.9802   18.6038 N.3     1  UNL1       -0.2690
     22 C           6.8322    1.4338   19.3781 C.3     1  UNL1        0.0724
     23 C           8.1324    1.6766   18.6707 C.3     1  UNL1        0.0174
     24 C           8.2307    1.4660   17.1887 C.3     1  UNL1        0.0029
     25 C           7.0287    1.0125   16.4144 C.3     1  UNL1        0.0174
     26 C           5.7285    0.7696   17.1219 C.3     1  UNL1        0.0724
@<TRIPOS>BOND
     1     2     3   ar
     2     3     4   ar
     3     4     5   ar
     4     5     1    1
     5     1    14    1
     6    14    15    1
     7    15    16   ar
     8    16    17   ar
     9    17    18   ar
    10    18    19   ar
    11    19    20   ar
    12    14    21    1
    13    21    22    1
    14    22    23    1
    15    23    24    1
    16    24    25    1
    17    25    26    1
    18     1     8    1
    19     8     9    1
    20     9    10    1
    21    10    11    1
    22    11    12    1
    23    12    13    1
    24     5     6   ar
    25     6     7   ar
    26     7     2   ar
    27    20    15   ar
    28    26    21    1
    29    13     8    1
@<TRIPOS>MOLECULE
*****
 26 29 0 0 0
SMALL
GASTEIGER

@<TRIPOS>ATOM
      1 C           4.2715    0.7098   19.2529 C.3     1  UNL1        0.0991
      2 C           0.6722    3.2092   18.2292 C.ar    1  UNL1       -0.0000
      3 C           0.5346    1.7234   18.3821 C.ar    1  UNL1       -0.0003
      4 C           1.7344    0.8903   18.7233 C.ar    1  UNL1       -0.0029
      5 C           3.0717    1.5429   18.9117 C.ar    1  UNL1       -0.0061
      6 C           3.2093    3.0287   18.7588 C.ar    1  UNL1       -0.0029
      7 C           2.0095    3.8619   18.4175 C.ar    1  UNL1       -0.0003
      8 N           5.5713    0.9395   18.5405 N.3     1  UNL1       -0.2690
      9 C           5.6617    0.7285   17.0582 C.3     1  UNL1        0.0724
     10 C           6.9616    0.9583   16.3458 C.3     1  UNL1        0.0174
     11 C           8.1711    1.3991   17.1158 C.3     1  UNL1        0.0029
     12 C           8.0807    1.6101   18.5981 C.3     1  UNL1        0.0174
     13 C           6.7809    1.3803   19.3105 C.3     1  UNL1        0.0724
     14 C           4.1714   -0.3531   20.3066 C.3     1  UNL1        0.0991
     15 C           3.9126    0.0279   21.7341 C.ar    1  UNL1       -0.0061
     16 C           4.3966    1.3477   22.2577 C.ar    1  UNL1       -0.0029
     17 C           4.1378    1.7287   23.6852 C.ar    1  UNL1       -0.0003
     18 C           3.3949    0.7900   24.5891 C.ar    1  UNL1       -0.0000
     19 C           2.9109   -0.5296   24.0655 C.ar    1  UNL1       -0.0003
     20 C           3.1697   -0.9107   22.6380 C.ar    1  UNL1       -0.0029
     21 N           4.3301   -1.7971   19.9327 N.3     1  UNL1       -0.2690
     22 C           5.6488   -2.4832   20.1334 C.3     1  UNL1        0.0724
     23 C           5.8076   -3.9271   19.7595 C.3     1  UNL1        0.0174
     24 C           4.6476   -4.6851   19.1850 C.3     1  UNL1        0.0029
     25 C           3.3288   -3.9990   18.9843 C.3     1  UNL1        0.0174
     26 C           3.1701   -2.5550   19.3582 C.3     1  UNL1        0.0724
@<TRIPOS>BOND
     1     2     3   ar
     2     3     4   ar
     3     4     5   ar
     4     5     1    1
     5     1    14    1
     6    14    15    1
     7    15    16   ar
     8    16    17   ar
     9    17    18   ar
    10    18    19   ar
    11    19    20   ar
    12    14    21    1
    13    21    22    1
    14    22    23    1
    15    23    24    1
    16    24    25    1
    17    25    26    1
    18     1     8    1
    19     8     9    1
    20     9    10    1
    21    10    11    1
    22    11    12    1
    23    12    13    1
    24     5     6   ar
    25     6     7   ar
    26     7     2   ar
    27    20    15   ar
    28    26    21    1
    29    13     8    1
@<TRIPOS>MOLECULE
*****
 26 29 0 0 0
SMALL
GASTEIGER

@<TRIPOS>ATOM
      1 C           4.2452   -0.3506   20.3788 C.3     1  UNL1        0.0991
      2 C           4.7151   -4.6869   19.2716 C.ar    1  UNL1       -0.0000
      3 C           3.3832   -4.0140   19.1191 C.ar    1  UNL1       -0.0003
      4 C           3.2266   -2.5685   19.4882 C.ar    1  UNL1       -0.0029
      5 C           4.4018   -1.7960   20.0097 C.ar    1  UNL1       -0.0061
      6 C           5.7337   -2.4690   20.1622 C.ar    1  UNL1       -0.0029
      7 C           5.8903   -3.9144   19.7932 C.ar    1  UNL1       -0.0003
      8 N           3.9997    0.0364   21.8070 N.3     1  UNL1       -0.2690
      9 C           4.5604    1.3202   22.3432 C.3     1  UNL1        0.0724
     10 C           4.3148    1.7072   23.7715 C.3     1  UNL1        0.0174
     11 C           3.5086    0.8105   24.6636 C.3     1  UNL1        0.0029
     12 C           2.9478   -0.4733   24.1274 C.3     1  UNL1        0.0174
     13 C           3.1934   -0.8603   22.6991 C.3     1  UNL1        0.0724
     14 C           4.3341    0.7078   19.3196 C.3     1  UNL1        0.0991
     15 C           3.1251    1.5248   18.9724 C.ar    1  UNL1       -0.0061
     16 C           3.2292    3.0187   18.8851 C.ar    1  UNL1       -0.0029
     17 C           2.0202    3.8358   18.5378 C.ar    1  UNL1       -0.0003
     18 C           0.7069    3.1590   18.2780 C.ar    1  UNL1       -0.0000
     19 C           0.6028    1.6652   18.3654 C.ar    1  UNL1       -0.0003
     20 C           1.8119    0.8481   18.7126 C.ar    1  UNL1       -0.0029
     21 N           5.6322    0.9491   18.6076 N.3     1  UNL1       -0.2690
     22 C           6.8469    1.3653   19.3831 C.3     1  UNL1        0.0724
     23 C           8.1449    1.6067   18.6712 C.3     1  UNL1        0.0174
     24 C           8.2282    1.4319   17.1837 C.3     1  UNL1        0.0029
     25 C           7.0136    1.0157   16.4082 C.3     1  UNL1        0.0174
     26 C           5.7155    0.7744   17.1202 C.3     1  UNL1        0.0724
@<TRIPOS>BOND
     1     2     3   ar
     2     3     4   ar
     3     4     5   ar
     4     5     1    1
     5     1    14    1
     6    14    15    1
     7    15    16   ar
     8    16    17   ar
     9    17    18   ar
    10    18    19   ar
    11    19    20   ar
    12    14    21    1
    13    21    22    1
    14    22    23    1
    15    23    24    1
    16    24    25    1
    17    25    26    1
    18     1     8    1
    19     8     9    1
    20     9    10    1
    21    10    11    1
    22    11    12    1
    23    12    13    1
    24     5     6   ar
    25     6     7   ar
    26     7     2   ar
    27    20    15   ar
    28    26    21    1
    29    13     8    1
@<TRIPOS>MOLECULE
*****
 26 29 0 0 0
SMALL
GASTEIGER

@<TRIPOS>ATOM
      1 C           4.3072    0.7477   19.2866 C.3     1  UNL1        0.0991
      2 C           8.2072    1.4766   17.1632 C.ar    1  UNL1       -0.0000
      3 C           7.0147    0.9888   16.3951 C.ar    1  UNL1       -0.0003
      4 C           5.7147    0.7458   17.1029 C.ar    1  UNL1       -0.0029
      5 C           5.6072    0.9907   18.5788 C.ar    1  UNL1       -0.0061
      6 C           6.7996    1.4785   19.3469 C.ar    1  UNL1       -0.0029
      7 C           8.0996    1.7215   18.6391 C.ar    1  UNL1       -0.0003
      8 N           3.0974    1.5610   18.9332 N.3     1  UNL1       -0.2690
      9 C           3.2124    3.0486   18.7795 C.3     1  UNL1        0.0724
     10 C           2.0025    3.8619   18.4260 C.3     1  UNL1        0.0174
     11 C           0.6777    3.1874   18.2263 C.3     1  UNL1        0.0029
     12 C           0.5627    1.6998   18.3800 C.3     1  UNL1        0.0174
     13 C           1.7725    0.8865   18.7334 C.3     1  UNL1        0.0724
     14 C           4.2170   -0.3085   20.3478 C.3     1  UNL1        0.0991
     15 C           4.3946   -1.7531   19.9853 C.ar    1  UNL1       -0.0061
     16 C           3.2298   -2.5458   19.4705 C.ar    1  UNL1       -0.0029
     17 C           3.4074   -3.9905   19.1079 C.ar    1  UNL1       -0.0003
     18 C           4.7498   -4.6424   19.2601 C.ar    1  UNL1       -0.0000
     19 C           5.9145   -3.8497   19.7748 C.ar    1  UNL1       -0.0003
     20 C           5.7369   -2.4050   20.1374 C.ar    1  UNL1       -0.0029
     21 N           3.9492    0.0800   21.7718 N.3     1  UNL1       -0.2690
     22 C           3.2034   -0.8554   22.6767 C.3     1  UNL1        0.0724
     23 C           2.9357   -0.4670   24.1006 C.3     1  UNL1        0.0174
     24 C           3.4136    0.8568   24.6196 C.3     1  UNL1        0.0029
     25 C           4.1594    1.7921   23.7146 C.3     1  UNL1        0.0174
     26 C           4.4272    1.4037   22.2907 C.3     1  UNL1        0.0724
@<TRIPOS>BOND
     1     2     3   ar
     2     3     4   ar
     3     4     5   ar
     4     5     1    1
     5     1    14    1
     6    14    15    1
     7    15    16   ar
     8    16    17   ar
     9    17    18   ar
    10    18    19   ar
    11    19    20   ar
    12    14    21    1
    13    21    22    1
    14    22    23    1
    15    23    24    1
    16    24    25    1
    17    25    26    1
    18     1     8    1
    19     8     9    1
    20     9    10    1
    21    10    11    1
    22    11    12    1
    23    12    13    1
    24     5     6   ar
    25     6     7   ar
    26     7     2   ar
    27    20    15   ar
    28    26    21    1
    29    13     8    1
@<TRIPOS>MOLECULE
*****
 26 29 0 0 0
SMALL
GASTEIGER

@<TRIPOS>ATOM
      1 C           4.3012   -0.6147   20.3856 C.3     1  UNL1        0.0991
      2 C           4.6023   -4.9015   19.0505 C.ar    1  UNL1       -0.0000
      3 C           3.2717   -4.2092   19.0553 C.ar    1  UNL1       -0.0003
      4 C           3.1713   -2.7802   19.5003 C.ar    1  UNL1       -0.0029
      5 C           4.4015   -2.0436   19.9405 C.ar    1  UNL1       -0.0061
      6 C           5.7321   -2.7360   19.9358 C.ar    1  UNL1       -0.0029
      7 C           5.8325   -4.1649   19.4908 C.ar    1  UNL1       -0.0003
      8 N           4.1306   -0.2925   21.8406 N.3     1  UNL1       -0.2690
      9 C           5.3187    0.1065   22.6647 C.3     1  UNL1        0.0724
     10 C           5.1481    0.4287   24.1197 C.3     1  UNL1        0.0174
     11 C           3.7894    0.3519   24.7506 C.3     1  UNL1        0.0029
     12 C           2.6013   -0.0471   23.9265 C.3     1  UNL1        0.0174
     13 C           2.7719   -0.3693   22.4715 C.3     1  UNL1        0.0724
     14 C           4.3713    0.4921   19.3756 C.3     1  UNL1        0.0991
     15 C           5.6604    0.7769   18.6634 C.ar    1  UNL1       -0.0061
     16 C           6.8837    1.1501   19.4472 C.ar    1  UNL1       -0.0029
     17 C           8.1728    1.4349   18.7350 C.ar    1  UNL1       -0.0003
     18 C           8.2385    1.3465   17.2390 C.ar    1  UNL1       -0.0000
     19 C           7.0152    0.9734   16.4552 C.ar    1  UNL1       -0.0003
     20 C           5.7261    0.6886   17.1675 C.ar    1  UNL1       -0.0029
     21 N           3.1524    1.3141   19.0778 N.3     1  UNL1       -0.2690
     22 C           1.8726    0.6406   18.6795 C.3     1  UNL1        0.0724
     23 C           0.6537    1.4626   18.3817 C.3     1  UNL1        0.0174
     24 C           0.7146    2.9580   18.4821 C.3     1  UNL1        0.0029
     25 C           1.9944    3.6315   18.8803 C.3     1  UNL1        0.0174
     26 C           3.2134    2.8094   19.1782 C.3     1  UNL1        0.0724
@<TRIPOS>BOND
     1     2     3   ar
     2     3     4   ar
     3     4     5   ar
     4     5     1    1
     5     1    14    1
     6    14    15    1
     7    15    16   ar
     8    16    17   ar
     9    17    18   ar
    10    18    19   ar
    11    19    20   ar
    12    14    21    1
    13    21    22    1
    14    22    23    1
    15    23    24    1
    16    24    25    1
    17    25    26    1
    18     1     8    1
    19     8     9    1
    20     9    10    1
    21    10    11    1
    22    11    12    1
    23    12    13    1
    24     5     6   ar
    25     6     7   ar
    26     7     2   ar
    27    20    15   ar
    28    26    21    1
    29    13     8    1
@<TRIPOS>MOLECULE
*****
 26 29 0 0 0
SMALL
GASTEIGER

@<TRIPOS>ATOM
      1 C           4.7732   -0.6467   19.3955 C.3     1  UNL1        0.0991
      2 C           4.4041   -5.1244   19.1422 C.ar    1  UNL1       -0.0000
      3 C           5.7598   -4.4865   19.2150 C.ar    1  UNL1       -0.0003
      4 C           5.8828   -2.9939   19.2994 C.ar    1  UNL1       -0.0029
      5 C           4.6502   -2.1392   19.3111 C.ar    1  UNL1       -0.0061
      6 C           3.2946   -2.7771   19.2383 C.ar    1  UNL1       -0.0029
      7 C           3.1715   -4.2697   19.1538 C.ar    1  UNL1       -0.0003
      8 N           5.7876    0.0710   18.5553 N.3     1  UNL1       -0.2690
      9 C           7.0431    0.5993   19.1833 C.3     1  UNL1        0.0724
     10 C           8.0575    1.3169   18.3430 C.3     1  UNL1        0.0174
     11 C           7.8163    1.5063   16.8747 C.3     1  UNL1        0.0029
     12 C           6.5607    0.9781   16.2467 C.3     1  UNL1        0.0174
     13 C           5.5464    0.2604   17.0869 C.3     1  UNL1        0.0724
     14 C           3.8819    0.1282   20.3202 C.3     1  UNL1        0.0991
     15 C           3.9594   -0.0979   21.8010 C.ar    1  UNL1       -0.0061
     16 C           2.7016   -0.1751   22.6147 C.ar    1  UNL1       -0.0029
     17 C           2.7791   -0.4012   24.0956 C.ar    1  UNL1       -0.0003
     18 C           4.1144   -0.5501   24.7627 C.ar    1  UNL1       -0.0000
     19 C           5.3721   -0.4729   23.9490 C.ar    1  UNL1       -0.0003
     20 C           5.2946   -0.2468   22.4681 C.ar    1  UNL1       -0.0029
     21 N           2.9131    1.1293   19.7640 N.3     1  UNL1       -0.2690
     22 C           3.0947    2.5898   20.0538 C.3     1  UNL1        0.0724
     23 C           2.1259    3.5909   19.4977 C.3     1  UNL1        0.0174
     24 C           0.9754    3.1314   18.6518 C.3     1  UNL1        0.0029
     25 C           0.7938    1.6709   18.3620 C.3     1  UNL1        0.0174
     26 C           1.7627    0.6698   18.9182 C.3     1  UNL1        0.0724
@<TRIPOS>BOND
     1     2     3   ar
     2     3     4   ar
     3     4     5   ar
     4     5     1    1
     5     1    14    1
     6    14    15    1
     7    15    16   ar
     8    16    17   ar
     9    17    18   ar
    10    18    19   ar
    11    19    20   ar
    12    14    21    1
    13    21    22    1
    14    22    23    1
    15    23    24    1
    16    24    25    1
    17    25    26    1
    18     1     8    1
    19     8     9    1
    20     9    10    1
    21    10    11    1
    22    11    12    1
    23    12    13    1
    24     5     6   ar
    25     6     7   ar
    26     7     2   ar
    27    20    15   ar
    28    26    21    1
    29    13     8    1
