@<TRIPOS>MOLECULE
*****
 33 35 0 0 0
SMALL
GASTEIGER

@<TRIPOS>ATOM
      1 C         -10.8250  -17.7478   20.9259 C.3     1  UNL1        0.0951
      2 C         -10.8833  -17.0427   19.6033 C.3     1  UNL1        0.0233
      3 C         -12.1650  -16.2653   19.5486 C.3     1  UNL1        0.0233
      4 C         -12.8988  -16.4900   20.8374 C.3     1  UNL1        0.0935
      5 N         -12.0706  -17.4063   21.6887 N.am    1  UNL1       -0.2794
      6 C         -12.4257  -17.8951   23.0615 C.2     1  UNL1        0.2270
      7 O         -13.7133  -17.4664   23.7006 O.2     1  UNL1       -0.2748
      8 C          -9.7158  -18.6382   21.4022 C.3     1  UNL1        0.1119
      9 C          -9.2790  -19.8704   19.1570 C.3     1  UNL1        0.1136
     10 N          -8.7598  -19.2389   20.4147 N.pl3   1  UNL1       -0.2898
     11 C          -7.2846  -19.2082   20.6848 C.ar    1  UNL1        0.1318
     12 C          -6.7651  -19.5454   22.0509 C.ar    1  UNL1        0.0350
     13 C          -5.2899  -19.5146   22.3209 C.ar    1  UNL1        0.0147
     14 C          -4.3343  -19.1466   21.2249 C.ar    1  UNL1        0.0877
     15 C          -4.8538  -18.8094   19.8587 C.ar    1  UNL1        0.1105
     16 N          -6.3291  -18.8402   19.5887 N.ar    1  UNL1       -0.2285
     17 C          -2.8592  -19.1159   21.4950 C.1     1  UNL1        0.1020
     18 N          -1.3840  -19.0851   21.7651 N.1     1  UNL1       -0.1908
     19 C         -11.4933  -18.8128   23.7953 C.3     1  UNL1        0.1010
     20 C         -10.3640  -18.2452   24.6032 C.3     1  UNL1        0.0644
     21 N          -9.6349  -19.1127   25.5860 N.3     1  UNL1       -0.3215
     22 H         -10.0357  -20.0506   25.5744 H       1  UNL1        0.1188
     23 H          -9.7245  -18.7162   26.5215 H       1  UNL1        0.1188
     24 C          -9.9639  -16.8102   24.4284 C.3     1  UNL1        0.0447
     25 C          -8.5950  -16.3575   24.8423 C.ar    1  UNL1        0.0090
     26 C          -8.2985  -16.0911   26.2884 C.ar    1  UNL1        0.0300
     27 C          -6.9297  -15.6384   26.7023 C.ar    1  UNL1        0.1672
     28 F          -6.6332  -15.3720   28.1484 F       1  UNL1       -0.2018
     29 C          -5.8574  -15.4520   25.6702 C.ar    1  UNL1        0.1696
     30 F          -4.4885  -14.9993   26.0841 F       1  UNL1       -0.2017
     31 C          -6.1538  -15.7184   24.2241 C.ar    1  UNL1        0.0612
     32 C          -7.5226  -16.1711   23.8102 C.ar    1  UNL1        0.1386
     33 F          -7.8191  -16.4375   22.3641 F       1  UNL1       -0.2044
@<TRIPOS>BOND
     1     9    10    1
     2    10     8    1
     3     1     8    1
     4     1     2    1
     5     2     3    1
     6     3     4    1
     7     4     5    1
     8     5     6   am
     9     6     7    2
    10     6    19    1
    11    19    20    1
    12    20    21    1
    13    20    24    1
    14    24    25    1
    15    25    26   ar
    16    26    27   ar
    17    27    28    1
    18    27    29   ar
    19    29    30    1
    20    29    31   ar
    21    31    32   ar
    22    32    33    1
    23    10    11    1
    24    11    12   ar
    25    12    13   ar
    26    13    14   ar
    27    14    17    1
    28    17    18    3
    29    14    15   ar
    30    15    16   ar
    31     5     1    1
    32    32    25   ar
    33    16    11   ar
    34    21    22    1
    35    21    23    1
@<TRIPOS>MOLECULE
*****
 33 35 0 0 0
SMALL
GASTEIGER

@<TRIPOS>ATOM
      1 C         -12.2689  -18.2094   22.6396 C.3     1  UNL1        0.0951
      2 C         -13.3823  -17.7290   23.5225 C.3     1  UNL1        0.0233
      3 C         -13.2482  -18.4127   24.8509 C.3     1  UNL1        0.0233
      4 C         -12.0520  -19.3156   24.7889 C.3     1  UNL1        0.0935
      5 N         -11.4468  -19.1900   23.4222 N.am    1  UNL1       -0.2794
      6 C         -10.2326  -19.9172   22.9255 C.2     1  UNL1        0.2270
      7 O          -9.5094  -20.8729   23.8275 O.2     1  UNL1       -0.2748
      8 C         -12.0211  -17.7839   21.2227 C.3     1  UNL1        0.1119
      9 C         -11.4078  -15.7626   19.7101 C.3     1  UNL1        0.1136
     10 N         -11.1616  -16.5880   20.9381 N.pl3   1  UNL1       -0.2898
     11 C         -10.0559  -16.2174   21.8817 C.ar    1  UNL1        0.1318
     12 C         -10.2814  -16.2811   23.3632 C.ar    1  UNL1        0.0350
     13 C          -9.1756  -15.9106   24.3067 C.ar    1  UNL1        0.0147
     14 C          -7.8446  -15.4764   23.7685 C.ar    1  UNL1        0.0877
     15 C          -7.6191  -15.4127   22.2870 C.ar    1  UNL1        0.1105
     16 N          -8.7249  -15.7833   21.3435 N.ar    1  UNL1       -0.2285
     17 C          -6.7389  -15.1059   24.7120 C.1     1  UNL1        0.1020
     18 N          -5.6332  -14.7353   25.6556 N.1     1  UNL1       -0.1908
     19 C          -9.7416  -19.6887   21.5267 C.3     1  UNL1        0.1010
     20 C          -8.3054  -19.3291   21.2853 C.3     1  UNL1        0.0644
     21 N          -7.9333  -18.4768   20.1084 N.3     1  UNL1       -0.3215
     22 H          -8.7744  -18.2343   19.5847 H       1  UNL1        0.1188
     23 H          -7.2933  -18.9922   19.5041 H       1  UNL1        0.1188
     24 C          -7.2414  -19.8219   22.2207 C.3     1  UNL1        0.0447
     25 C          -5.7972  -19.7414   21.8232 C.ar    1  UNL1        0.0090
     26 C          -4.8519  -18.8759   22.6024 C.ar    1  UNL1        0.0300
     27 C          -3.4079  -18.7955   22.2048 C.ar    1  UNL1        0.1672
     28 F          -2.4625  -17.9299   22.9840 F       1  UNL1       -0.2018
     29 C          -2.9091  -19.5806   21.0280 C.ar    1  UNL1        0.1696
     30 F          -1.4649  -19.5002   20.6305 F       1  UNL1       -0.2017
     31 C          -3.8544  -20.4462   20.2489 C.ar    1  UNL1        0.0612
     32 C          -5.2984  -20.5266   20.6464 C.ar    1  UNL1        0.1386
     33 F          -6.2438  -21.3922   19.8672 F       1  UNL1       -0.2044
@<TRIPOS>BOND
     1     9    10    1
     2    10     8    1
     3     1     8    1
     4     1     2    1
     5     2     3    1
     6     3     4    1
     7     4     5    1
     8     5     6   am
     9     6     7    2
    10     6    19    1
    11    19    20    1
    12    20    21    1
    13    20    24    1
    14    24    25    1
    15    25    26   ar
    16    26    27   ar
    17    27    28    1
    18    27    29   ar
    19    29    30    1
    20    29    31   ar
    21    31    32   ar
    22    32    33    1
    23    10    11    1
    24    11    12   ar
    25    12    13   ar
    26    13    14   ar
    27    14    17    1
    28    17    18    3
    29    14    15   ar
    30    15    16   ar
    31     5     1    1
    32    32    25   ar
    33    16    11   ar
    34    21    22    1
    35    21    23    1
@<TRIPOS>MOLECULE
*****
 33 35 0 0 0
SMALL
GASTEIGER

@<TRIPOS>ATOM
      1 C         -10.8151  -18.1348   20.9301 C.3     1  UNL1        0.0951
      2 C         -10.7772  -17.1745   19.7784 C.3     1  UNL1        0.0233
      3 C         -11.8303  -16.1316   20.0097 C.3     1  UNL1        0.0233
      4 C         -12.5190  -16.4474   21.3042 C.3     1  UNL1        0.0935
      5 N         -11.8916  -17.6854   21.8731 N.am    1  UNL1       -0.2794
      6 C         -12.2737  -18.3563   23.1591 C.2     1  UNL1        0.2270
      7 O         -13.3767  -17.7886   24.0023 O.2     1  UNL1       -0.2748
      8 C          -9.9317  -19.3340   21.1075 C.3     1  UNL1        0.1119
      9 C          -9.2346  -20.0642   18.7137 C.3     1  UNL1        0.1136
     10 N          -8.8607  -19.6321   20.1006 N.pl3   1  UNL1       -0.2898
     11 C          -7.4158  -19.4981   20.4805 C.ar    1  UNL1        0.1318
     12 C          -6.9713  -19.8402   21.8717 C.ar    1  UNL1        0.0350
     13 C          -5.5263  -19.7062   22.2515 C.ar    1  UNL1        0.0147
     14 C          -4.5260  -19.2302   21.2402 C.ar    1  UNL1        0.0877
     15 C          -4.9705  -18.8882   19.8490 C.ar    1  UNL1        0.1105
     16 N          -6.4155  -19.0221   19.4692 N.ar    1  UNL1       -0.2285
     17 C          -3.0811  -19.0962   21.6201 C.1     1  UNL1        0.1020
     18 N          -1.6362  -18.9623   22.0000 N.1     1  UNL1       -0.1908
     19 C         -11.5528  -19.5949   23.6018 C.3     1  UNL1        0.1010
     20 C         -10.5584  -19.5238   24.7227 C.3     1  UNL1        0.0644
     21 N          -9.7781  -20.7444   25.1116 N.3     1  UNL1       -0.3215
     22 H         -10.0486  -21.5255   24.5141 H       1  UNL1        0.1188
     23 H          -9.9742  -20.9773   26.0851 H       1  UNL1        0.1188
     24 C         -10.3442  -18.2321   25.4544 C.3     1  UNL1        0.0447
     25 C          -9.1763  -17.3575   25.1064 C.ar    1  UNL1        0.0090
     26 C          -8.7490  -17.2111   23.6760 C.ar    1  UNL1        0.0300
     27 C          -7.5810  -16.3366   23.3281 C.ar    1  UNL1        0.1672
     28 F          -7.1537  -16.1901   21.8976 F       1  UNL1       -0.2018
     29 C          -6.8404  -15.6086   24.4104 C.ar    1  UNL1        0.1696
     30 F          -5.6724  -14.7340   24.0623 F       1  UNL1       -0.2017
     31 C          -7.2677  -15.7550   25.8407 C.ar    1  UNL1        0.0612
     32 C          -8.4356  -16.6295   26.1887 C.ar    1  UNL1        0.1386
     33 F          -8.8630  -16.7761   27.6191 F       1  UNL1       -0.2044
@<TRIPOS>BOND
     1     9    10    1
     2    10     8    1
     3     1     8    1
     4     1     2    1
     5     2     3    1
     6     3     4    1
     7     4     5    1
     8     5     6   am
     9     6     7    2
    10     6    19    1
    11    19    20    1
    12    20    21    1
    13    20    24    1
    14    24    25    1
    15    25    26   ar
    16    26    27   ar
    17    27    28    1
    18    27    29   ar
    19    29    30    1
    20    29    31   ar
    21    31    32   ar
    22    32    33    1
    23    10    11    1
    24    11    12   ar
    25    12    13   ar
    26    13    14   ar
    27    14    17    1
    28    17    18    3
    29    14    15   ar
    30    15    16   ar
    31     5     1    1
    32    32    25   ar
    33    16    11   ar
    34    21    22    1
    35    21    23    1
@<TRIPOS>MOLECULE
*****
 33 35 0 0 0
SMALL
GASTEIGER

@<TRIPOS>ATOM
      1 C          -5.1318  -19.4305   21.2077 C.3     1  UNL1        0.0951
      2 C          -5.0409  -20.4972   20.1570 C.3     1  UNL1        0.0233
      3 C          -3.5954  -20.8617   19.9904 C.3     1  UNL1        0.0233
      4 C          -2.7930  -20.0204   20.9382 C.3     1  UNL1        0.0935
      5 N          -3.7425  -19.1359   21.6905 N.am    1  UNL1       -0.2794
      6 C          -3.3684  -18.1329   22.7412 C.2     1  UNL1        0.2270
      7 O          -1.9296  -17.9471   23.1223 O.2     1  UNL1       -0.2748
      8 C          -6.3909  -18.7739   21.6907 C.3     1  UNL1        0.1119
      9 C          -7.6444  -19.3558   19.4908 C.3     1  UNL1        0.1136
     10 N          -7.6746  -18.9698   20.9399 N.pl3   1  UNL1       -0.2898
     11 C          -8.9884  -18.7797   21.6382 C.ar    1  UNL1        0.1318
     12 C          -9.4735  -19.8080   22.6166 C.ar    1  UNL1        0.0350
     13 C         -10.7874  -19.6178   23.3149 C.ar    1  UNL1        0.0147
     14 C         -11.6161  -18.3994   23.0348 C.ar    1  UNL1        0.0877
     15 C         -11.1310  -17.3710   22.0564 C.ar    1  UNL1        0.1105
     16 N          -9.8171  -17.5612   21.3582 N.ar    1  UNL1       -0.2285
     17 C         -12.9300  -18.2093   23.7331 C.1     1  UNL1        0.1020
     18 N         -14.2438  -18.0192   24.4315 N.1     1  UNL1       -0.1908
     19 C          -4.4332  -17.3156   23.4108 C.3     1  UNL1        0.1010
     20 C          -4.5719  -15.8569   23.0899 C.3     1  UNL1        0.0644
     21 N          -3.4448  -15.1250   22.4236 N.3     1  UNL1       -0.3215
     22 H          -2.6694  -15.7681   22.2635 H       1  UNL1        0.1188
     23 H          -3.1342  -14.3606   23.0232 H       1  UNL1        0.1188
     24 C          -5.8378  -15.1301   23.4352 C.3     1  UNL1        0.0447
     25 C          -6.6297  -15.5353   24.6431 C.ar    1  UNL1        0.0090
     26 C          -7.9367  -16.2522   24.4771 C.ar    1  UNL1        0.0300
     27 C          -8.7285  -16.6573   25.6849 C.ar    1  UNL1        0.1672
     28 F         -10.0357  -17.3742   25.5189 F       1  UNL1       -0.2018
     29 C          -8.2132  -16.3457   27.0587 C.ar    1  UNL1        0.1696
     30 F          -9.0051  -16.7509   28.2665 F       1  UNL1       -0.2017
     31 C          -6.9062  -15.6288   27.2247 C.ar    1  UNL1        0.0612
     32 C          -6.1144  -15.2237   26.0169 C.ar    1  UNL1        0.1386
     33 F          -4.8072  -14.5068   26.1828 F       1  UNL1       -0.2044
@<TRIPOS>BOND
     1     9    10    1
     2    10     8    1
     3     1     8    1
     4     1     2    1
     5     2     3    1
     6     3     4    1
     7     4     5    1
     8     5     6   am
     9     6     7    2
    10     6    19    1
    11    19    20    1
    12    20    21    1
    13    20    24    1
    14    24    25    1
    15    25    26   ar
    16    26    27   ar
    17    27    28    1
    18    27    29   ar
    19    29    30    1
    20    29    31   ar
    21    31    32   ar
    22    32    33    1
    23    10    11    1
    24    11    12   ar
    25    12    13   ar
    26    13    14   ar
    27    14    17    1
    28    17    18    3
    29    14    15   ar
    30    15    16   ar
    31     5     1    1
    32    32    25   ar
    33    16    11   ar
    34    21    22    1
    35    21    23    1
@<TRIPOS>MOLECULE
*****
 33 35 0 0 0
SMALL
GASTEIGER

@<TRIPOS>ATOM
      1 C          -6.7971  -16.3704   23.9828 C.3     1  UNL1        0.0951
      2 C          -5.6153  -15.4761   24.2142 C.3     1  UNL1        0.0233
      3 C          -5.6031  -15.0900   25.6636 C.3     1  UNL1        0.0233
      4 C          -6.7773  -15.7456   26.3279 C.3     1  UNL1        0.0935
      5 N          -7.5152  -16.5370   25.2891 N.am    1  UNL1       -0.2794
      6 C          -8.7538  -17.3519   25.5167 C.2     1  UNL1        0.2270
      7 O          -9.3625  -17.4249   26.8857 O.2     1  UNL1       -0.2748
      8 C          -7.1915  -16.9895   22.6746 C.3     1  UNL1        0.1119
      9 C          -7.4566  -19.5568   22.3770 C.3     1  UNL1        0.1136
     10 N          -6.6202  -18.3162   22.2703 N.pl3   1  UNL1       -0.2898
     11 C          -5.2126  -18.4024   21.7593 C.ar    1  UNL1        0.1318
     12 C          -4.0613  -18.3407   22.7188 C.ar    1  UNL1        0.0350
     13 C          -2.6536  -18.4268   22.2077 C.ar    1  UNL1        0.0147
     14 C          -2.3974  -18.5747   20.7372 C.ar    1  UNL1        0.0877
     15 C          -3.5487  -18.6364   19.7777 C.ar    1  UNL1        0.1105
     16 N          -4.9563  -18.5502   20.2888 N.ar    1  UNL1       -0.2285
     17 C          -0.9897  -18.6608   20.2262 C.1     1  UNL1        0.1020
     18 N           0.4179  -18.7470   19.7152 N.1     1  UNL1       -0.1908
     19 C          -9.3837  -18.0937   24.3753 C.3     1  UNL1        0.1010
     20 C         -10.4547  -19.1098   24.6411 C.3     1  UNL1        0.0644
     21 N         -10.2767  -20.1178   25.7375 N.3     1  UNL1       -0.3215
     22 H          -9.3777  -19.9673   26.1951 H       1  UNL1        0.1188
     23 H         -10.3041  -21.0580   25.3427 H       1  UNL1        0.1188
     24 C         -11.7037  -19.1178   23.8104 C.3     1  UNL1        0.0447
     25 C         -11.7456  -18.3681   22.5118 C.ar    1  UNL1        0.0090
     26 C         -10.9371  -18.8472   21.3428 C.ar    1  UNL1        0.0300
     27 C         -10.9790  -18.0976   20.0443 C.ar    1  UNL1        0.1672
     28 F         -10.1704  -18.5767   18.8752 F       1  UNL1       -0.2018
     29 C         -11.8295  -16.8688   19.9148 C.ar    1  UNL1        0.1696
     30 F         -11.8714  -16.1191   18.6161 F       1  UNL1       -0.2017
     31 C         -12.6380  -16.3896   21.0838 C.ar    1  UNL1        0.0612
     32 C         -12.5961  -17.1393   22.3823 C.ar    1  UNL1        0.1386
     33 F         -13.4046  -16.6602   23.5514 F       1  UNL1       -0.2044
@<TRIPOS>BOND
     1     9    10    1
     2    10     8    1
     3     1     8    1
     4     1     2    1
     5     2     3    1
     6     3     4    1
     7     4     5    1
     8     5     6   am
     9     6     7    2
    10     6    19    1
    11    19    20    1
    12    20    21    1
    13    20    24    1
    14    24    25    1
    15    25    26   ar
    16    26    27   ar
    17    27    28    1
    18    27    29   ar
    19    29    30    1
    20    29    31   ar
    21    31    32   ar
    22    32    33    1
    23    10    11    1
    24    11    12   ar
    25    12    13   ar
    26    13    14   ar
    27    14    17    1
    28    17    18    3
    29    14    15   ar
    30    15    16   ar
    31     5     1    1
    32    32    25   ar
    33    16    11   ar
    34    21    22    1
    35    21    23    1
@<TRIPOS>MOLECULE
*****
 33 35 0 0 0
SMALL
GASTEIGER

@<TRIPOS>ATOM
      1 C          -8.5177  -19.1668   20.4983 C.3     1  UNL1        0.0951
      2 C          -8.1788  -19.8777   19.2217 C.3     1  UNL1        0.0233
      3 C          -9.4579  -20.1387   18.4829 C.3     1  UNL1        0.0233
      4 C         -10.5873  -19.5890   19.3028 C.3     1  UNL1        0.0935
      5 N         -10.0062  -18.9884   20.5484 N.am    1  UNL1       -0.2794
      6 C         -10.7781  -18.3256   21.6506 C.2     1  UNL1        0.2270
      7 O         -12.2718  -18.2203   21.5619 O.2     1  UNL1       -0.2748
      8 C          -7.5397  -18.7138   21.5415 C.3     1  UNL1        0.1119
      9 C          -6.5552  -20.8741   22.5969 C.3     1  UNL1        0.1136
     10 N          -6.3564  -19.5702   21.8824 N.pl3   1  UNL1       -0.2898
     11 C          -4.9743  -19.1228   21.5089 C.ar    1  UNL1        0.1318
     12 C          -3.9390  -18.9165   22.5746 C.ar    1  UNL1        0.0350
     13 C          -2.5569  -18.4691   22.2009 C.ar    1  UNL1        0.0147
     14 C          -2.2101  -18.2279   20.7616 C.ar    1  UNL1        0.0877
     15 C          -3.2453  -18.4342   19.6959 C.ar    1  UNL1        0.1105
     16 N          -4.6275  -18.8816   20.0696 N.ar    1  UNL1       -0.2285
     17 C          -0.8280  -17.7805   20.3881 C.1     1  UNL1        0.1020
     18 N           0.5541  -17.3330   20.0145 N.1     1  UNL1       -0.1908
     19 C         -10.0563  -17.7683   22.8416 C.3     1  UNL1        0.1010
     20 C          -9.6978  -16.3124   22.8876 C.3     1  UNL1        0.0644
     21 N          -9.6110  -15.5209   21.6164 N.3     1  UNL1       -0.3215
     22 H          -9.8247  -16.1261   20.8237 H       1  UNL1        0.1188
     23 H          -8.6682  -15.1456   21.5132 H       1  UNL1        0.1188
     24 C          -9.4260  -15.6483   24.2047 C.3     1  UNL1        0.0447
     25 C          -8.0337  -15.6309   24.7628 C.ar    1  UNL1        0.0090
     26 C          -6.8545  -15.7159   23.8397 C.ar    1  UNL1        0.0300
     27 C          -5.4624  -15.6986   24.3978 C.ar    1  UNL1        0.1672
     28 F          -4.2831  -15.7836   23.4746 F       1  UNL1       -0.2018
     29 C          -5.2494  -15.5963   25.8790 C.ar    1  UNL1        0.1696
     30 F          -3.8571  -15.5789   26.4371 F       1  UNL1       -0.2017
     31 C          -6.4285  -15.5113   26.8022 C.ar    1  UNL1        0.0612
     32 C          -7.8207  -15.5286   26.2441 C.ar    1  UNL1        0.1386
     33 F          -8.9999  -15.4436   27.1673 F       1  UNL1       -0.2044
@<TRIPOS>BOND
     1     9    10    1
     2    10     8    1
     3     1     8    1
     4     1     2    1
     5     2     3    1
     6     3     4    1
     7     4     5    1
     8     5     6   am
     9     6     7    2
    10     6    19    1
    11    19    20    1
    12    20    21    1
    13    20    24    1
    14    24    25    1
    15    25    26   ar
    16    26    27   ar
    17    27    28    1
    18    27    29   ar
    19    29    30    1
    20    29    31   ar
    21    31    32   ar
    22    32    33    1
    23    10    11    1
    24    11    12   ar
    25    12    13   ar
    26    13    14   ar
    27    14    17    1
    28    17    18    3
    29    14    15   ar
    30    15    16   ar
    31     5     1    1
    32    32    25   ar
    33    16    11   ar
    34    21    22    1
    35    21    23    1
@<TRIPOS>MOLECULE
*****
 33 35 0 0 0
SMALL
GASTEIGER

@<TRIPOS>ATOM
      1 C          -3.5831  -17.3581   22.2720 C.3     1  UNL1        0.0951
      2 C          -2.5724  -16.2615   22.4329 C.3     1  UNL1        0.0233
      3 C          -1.5835  -16.3743   21.3106 C.3     1  UNL1        0.0233
      4 C          -1.9831  -17.5406   20.4561 C.3     1  UNL1        0.0935
      5 N          -3.2190  -18.1486   21.0503 N.am    1  UNL1       -0.2794
      6 C          -3.9604  -19.3382   20.5165 C.2     1  UNL1        0.2270
      7 O          -3.4748  -20.0307   19.2777 O.2     1  UNL1       -0.2748
      8 C          -4.7527  -17.6184   23.1743 C.3     1  UNL1        0.1119
      9 C          -4.8519  -15.4197   24.5547 C.3     1  UNL1        0.1136
     10 N          -5.5391  -16.4698   23.7331 N.pl3   1  UNL1       -0.2898
     11 C          -7.0126  -16.3713   23.4704 C.ar    1  UNL1        0.1318
     12 C          -7.9799  -16.3612   24.6168 C.ar    1  UNL1        0.0350
     13 C          -9.4534  -16.2627   24.3539 C.ar    1  UNL1        0.0147
     14 C          -9.9596  -16.1744   22.9447 C.ar    1  UNL1        0.0877
     15 C          -8.9923  -16.1846   21.7983 C.ar    1  UNL1        0.1105
     16 N          -7.5188  -16.2830   22.0612 N.ar    1  UNL1       -0.2285
     17 C         -11.4331  -16.0759   22.6819 C.1     1  UNL1        0.1020
     18 N         -12.9066  -15.9774   22.4192 N.1     1  UNL1       -0.1908
     19 C          -5.1875  -19.8353   21.2215 C.3     1  UNL1        0.1010
     20 C          -6.3097  -20.4448   20.4344 C.3     1  UNL1        0.0644
     21 N          -6.2116  -21.8664   19.9660 N.3     1  UNL1       -0.3215
     22 H          -5.3224  -22.2637   20.2692 H       1  UNL1        0.1188
     23 H          -6.2666  -21.8935   18.9479 H       1  UNL1        0.1188
     24 C          -7.5298  -19.6326   20.1156 C.3     1  UNL1        0.0447
     25 C          -8.6929  -19.6229   21.0628 C.ar    1  UNL1        0.0090
     26 C          -8.4588  -19.7466   22.5392 C.ar    1  UNL1        0.0300
     27 C          -9.6219  -19.7370   23.4864 C.ar    1  UNL1        0.1672
     28 F          -9.3879  -19.8607   24.9629 F       1  UNL1       -0.2018
     29 C         -11.0191  -19.6036   22.9571 C.ar    1  UNL1        0.1696
     30 F         -12.1822  -19.5940   23.9043 F       1  UNL1       -0.2017
     31 C         -11.2531  -19.4799   21.4806 C.ar    1  UNL1        0.0612
     32 C         -10.0900  -19.4896   20.5335 C.ar    1  UNL1        0.1386
     33 F         -10.3241  -19.3658   19.0570 F       1  UNL1       -0.2044
@<TRIPOS>BOND
     1     9    10    1
     2    10     8    1
     3     1     8    1
     4     1     2    1
     5     2     3    1
     6     3     4    1
     7     4     5    1
     8     5     6   am
     9     6     7    2
    10     6    19    1
    11    19    20    1
    12    20    21    1
    13    20    24    1
    14    24    25    1
    15    25    26   ar
    16    26    27   ar
    17    27    28    1
    18    27    29   ar
    19    29    30    1
    20    29    31   ar
    21    31    32   ar
    22    32    33    1
    23    10    11    1
    24    11    12   ar
    25    12    13   ar
    26    13    14   ar
    27    14    17    1
    28    17    18    3
    29    14    15   ar
    30    15    16   ar
    31     5     1    1
    32    32    25   ar
    33    16    11   ar
    34    21    22    1
    35    21    23    1
@<TRIPOS>MOLECULE
*****
 33 35 0 0 0
SMALL
GASTEIGER

@<TRIPOS>ATOM
      1 C          -9.0370  -19.3668   23.2311 C.3     1  UNL1        0.0951
      2 C          -9.6875  -20.5306   23.9184 C.3     1  UNL1        0.0233
      3 C         -11.1522  -20.2334   24.0471 C.3     1  UNL1        0.0233
      4 C         -11.4068  -18.8859   23.4393 C.3     1  UNL1        0.0935
      5 N         -10.0996  -18.3504   22.9349 N.am    1  UNL1       -0.2794
      6 C          -9.8916  -17.0301   22.2541 C.2     1  UNL1        0.2270
      7 O         -11.0559  -16.1126   22.0251 O.2     1  UNL1       -0.2748
      8 C          -7.5798  -19.2415   22.8983 C.3     1  UNL1        0.1119
      9 C          -8.0912  -19.8478   20.4242 C.3     1  UNL1        0.1136
     10 N          -7.1119  -19.4499   21.4884 N.pl3   1  UNL1       -0.2898
     11 C          -5.6646  -19.2605   21.1428 C.ar    1  UNL1        0.1318
     12 C          -4.6082  -19.4994   22.1806 C.ar    1  UNL1        0.0350
     13 C          -3.1609  -19.3099   21.8349 C.ar    1  UNL1        0.0147
     14 C          -2.7701  -18.8815   20.4515 C.ar    1  UNL1        0.0877
     15 C          -3.8265  -18.6426   19.4138 C.ar    1  UNL1        0.1105
     16 N          -5.2738  -18.8321   19.7595 N.ar    1  UNL1       -0.2285
     17 C          -1.3228  -18.6921   20.1059 C.1     1  UNL1        0.1020
     18 N           0.1245  -18.5026   19.7603 N.1     1  UNL1       -0.1908
     19 C          -8.5191  -16.6274   21.8022 C.3     1  UNL1        0.1010
     20 C          -8.1531  -15.1751   21.7183 C.3     1  UNL1        0.0644
     21 N          -8.9379  -14.2539   20.8321 N.3     1  UNL1       -0.3215
     22 H          -9.6772  -14.7792   20.3652 H       1  UNL1        0.1188
     23 H          -8.3180  -13.8448   20.1330 H       1  UNL1        0.1188
     24 C          -7.0025  -14.6441   22.5208 C.3     1  UNL1        0.0447
     25 C          -6.8443  -15.0411   23.9587 C.ar    1  UNL1        0.0090
     26 C          -8.0095  -14.9379   24.8977 C.ar    1  UNL1        0.0300
     27 C          -7.8513  -15.3348   26.3355 C.ar    1  UNL1        0.1672
     28 F          -9.0165  -15.2317   27.2746 F       1  UNL1       -0.2018
     29 C          -6.5280  -15.8348   26.8343 C.ar    1  UNL1        0.1696
     30 F          -6.3698  -16.2318   28.2723 F       1  UNL1       -0.2017
     31 C          -5.3628  -15.9380   25.8953 C.ar    1  UNL1        0.0612
     32 C          -5.5210  -15.5411   24.4575 C.ar    1  UNL1        0.1386
     33 F          -4.3558  -15.6442   23.5184 F       1  UNL1       -0.2044
@<TRIPOS>BOND
     1     9    10    1
     2    10     8    1
     3     1     8    1
     4     1     2    1
     5     2     3    1
     6     3     4    1
     7     4     5    1
     8     5     6   am
     9     6     7    2
    10     6    19    1
    11    19    20    1
    12    20    21    1
    13    20    24    1
    14    24    25    1
    15    25    26   ar
    16    26    27   ar
    17    27    28    1
    18    27    29   ar
    19    29    30    1
    20    29    31   ar
    21    31    32   ar
    22    32    33    1
    23    10    11    1
    24    11    12   ar
    25    12    13   ar
    26    13    14   ar
    27    14    17    1
    28    17    18    3
    29    14    15   ar
    30    15    16   ar
    31     5     1    1
    32    32    25   ar
    33    16    11   ar
    34    21    22    1
    35    21    23    1
@<TRIPOS>MOLECULE
*****
 33 35 0 0 0
SMALL
GASTEIGER

@<TRIPOS>ATOM
      1 C          -7.7774  -15.5116   24.9984 C.3     1  UNL1        0.0951
      2 C          -8.8559  -15.3253   26.0241 C.3     1  UNL1        0.0233
      3 C          -8.2491  -15.5400   27.3790 C.3     1  UNL1        0.0233
      4 C          -6.7956  -15.8591   27.1906 C.3     1  UNL1        0.0935
      5 N          -6.5041  -15.8415   25.7193 N.am    1  UNL1       -0.2794
      6 C          -5.1729  -16.1072   25.0810 C.2     1  UNL1        0.2270
      7 O          -3.9818  -16.4260   25.9352 O.2     1  UNL1       -0.2748
      8 C          -7.9432  -15.3895   23.5126 C.3     1  UNL1        0.1119
      9 C          -7.8915  -17.1366   21.5904 C.3     1  UNL1        0.1136
     10 N          -8.6072  -16.4898   22.7391 N.pl3   1  UNL1       -0.2898
     11 C          -9.9869  -16.9433   23.1142 C.ar    1  UNL1        0.1318
     12 C         -11.1864  -16.2350   22.5579 C.ar    1  UNL1        0.0350
     13 C         -12.5661  -16.6886   22.9331 C.ar    1  UNL1        0.0147
     14 C         -12.7462  -17.8505   23.8645 C.ar    1  UNL1        0.0877
     15 C         -11.5467  -18.5588   24.4208 C.ar    1  UNL1        0.1105
     16 N         -10.1670  -18.1052   24.0456 N.ar    1  UNL1       -0.2285
     17 C         -14.1259  -18.3040   24.2397 C.1     1  UNL1        0.1020
     18 N         -15.5057  -18.7575   24.6148 N.1     1  UNL1       -0.1908
     19 C          -5.0329  -16.0540   23.5886 C.3     1  UNL1        0.1010
     20 C          -3.7872  -16.5726   22.9332 C.3     1  UNL1        0.0644
     21 N          -2.8737  -15.6300   22.2072 N.3     1  UNL1       -0.3215
     22 H          -3.2506  -14.6836   22.2591 H       1  UNL1        0.1188
     23 H          -2.7995  -15.9134   21.2302 H       1  UNL1        0.1188
     24 C          -3.4550  -18.0336   23.0039 C.3     1  UNL1        0.0447
     25 C          -4.1805  -19.0109   22.1272 C.ar    1  UNL1        0.0090
     26 C          -5.6259  -19.3192   22.3836 C.ar    1  UNL1        0.0300
     27 C          -6.3513  -20.2965   21.5069 C.ar    1  UNL1        0.1672
     28 F          -7.7967  -20.6048   21.7633 F       1  UNL1       -0.2018
     29 C          -5.6313  -20.9656   20.3738 C.ar    1  UNL1        0.1696
     30 F          -6.3567  -21.9429   19.4971 F       1  UNL1       -0.2017
     31 C          -4.1859  -20.6573   20.1174 C.ar    1  UNL1        0.0612
     32 C          -3.4605  -19.6800   20.9941 C.ar    1  UNL1        0.1386
     33 F          -2.0150  -19.3717   20.7377 F       1  UNL1       -0.2044
@<TRIPOS>BOND
     1     9    10    1
     2    10     8    1
     3     1     8    1
     4     1     2    1
     5     2     3    1
     6     3     4    1
     7     4     5    1
     8     5     6   am
     9     6     7    2
    10     6    19    1
    11    19    20    1
    12    20    21    1
    13    20    24    1
    14    24    25    1
    15    25    26   ar
    16    26    27   ar
    17    27    28    1
    18    27    29   ar
    19    29    30    1
    20    29    31   ar
    21    31    32   ar
    22    32    33    1
    23    10    11    1
    24    11    12   ar
    25    12    13   ar
    26    13    14   ar
    27    14    17    1
    28    17    18    3
    29    14    15   ar
    30    15    16   ar
    31     5     1    1
    32    32    25   ar
    33    16    11   ar
    34    21    22    1
    35    21    23    1
