@<TRIPOS>MOLECULE
*****
 33 37 0 0 0
SMALL
GASTEIGER

@<TRIPOS>ATOM
      1 C           4.7517   -3.3590   21.2609 C.2     1  UNL1        0.2542
      2 O           5.8700   -4.3452   21.0971 O.2     1  UNL1       -0.2724
      3 N           4.5646   -2.6475   22.5681 N.am    1  UNL1       -0.2569
      4 C           3.4973   -1.6404   22.8788 C.3     1  UNL1        0.1030
      5 C           3.6850   -1.1888   24.2969 C.3     1  UNL1        0.0518
      6 C           4.8682   -1.9168   24.8625 C.ar    1  UNL1        0.0207
      7 C           5.4118   -2.8184   23.7940 C.ar    1  UNL1        0.0521
      8 C           6.6081   -3.6784   24.0755 C.ar    1  UNL1        0.0147
      9 C           7.2608   -3.6369   25.4254 C.ar    1  UNL1        0.0035
     10 C           6.7172   -2.7353   26.4939 C.ar    1  UNL1        0.0289
     11 C           5.5209   -1.8752   26.2124 C.ar    1  UNL1        0.1374
     12 F           4.9773   -0.9736   27.2809 F       1  UNL1       -0.2045
     13 C           7.3699   -2.6937   27.8438 C.ar    1  UNL1        0.0250
     14 C           8.2248   -1.5820   28.3759 C.ar    1  UNL1        0.0772
     15 N           8.6655   -1.9578   29.7596 N.ar    1  UNL1       -0.3094
     16 C           9.5360   -1.1342   30.6618 C.3     1  UNL1        0.1319
     17 C           8.0829   -3.3018   30.0826 C.ar    1  UNL1        0.1483
     18 N           8.1781   -4.1702   31.3019 N.ar    1  UNL1       -0.2065
     19 C           7.4725   -5.4934   31.3373 C.ar    1  UNL1        0.2014
     20 N           6.6718   -5.9483   30.1532 N.ar    1  UNL1       -0.2094
     21 C           6.5766   -5.0798   28.9338 C.ar    1  UNL1        0.1300
     22 N           5.7758   -5.5346   27.7498 N.pl3   1  UNL1       -0.3425
     23 C           7.2822   -3.7566   28.8986 C.ar    1  UNL1        0.0669
     24 H           5.3127   -6.4031   27.7730 H       1  UNL1        0.1437
     25 H           5.7134   -4.9646   26.9495 H       1  UNL1        0.1437
     26 C           3.8206   -3.0842   20.1174 C.3     1  UNL1        0.2119
     27 C           5.9044    0.4394   16.7823 C.3     1  UNL1        0.0540
     28 C           4.9700   -0.2408   17.7385 C.ar    1  UNL1        0.0801
     29 C           3.6441    0.2864   18.2009 C.ar    1  UNL1        0.0308
     30 C           3.0521   -0.7146   19.1483 C.ar    1  UNL1        0.0577
     31 C           1.7318   -0.5913   19.8495 C.3     1  UNL1        0.0518
     32 N           4.0122   -1.8604   19.2714 N.ar    1  UNL1       -0.2458
     33 N           5.1976   -1.5676   18.4001 N.ar    1  UNL1       -0.1735
@<TRIPOS>BOND
     1    27    28    1
     2    28    29   ar
     3    29    30   ar
     4    30    31    1
     5    30    32   ar
     6    32    26    1
     7    26     1    1
     8     1     2    2
     9     1     3   am
    10     3     4    1
    11     4     5    1
    12     5     6    1
    13     6     7   ar
    14     7     8   ar
    15     8     9   ar
    16     9    10   ar
    17    10    13    1
    18    13    14   ar
    19    14    15   ar
    20    15    16    1
    21    15    17   ar
    22    17    18   ar
    23    18    19   ar
    24    19    20   ar
    25    20    21   ar
    26    21    22    1
    27    21    23   ar
    28    10    11   ar
    29    11    12    1
    30    32    33   ar
    31    33    28   ar
    32     7     3    1
    33    23    13   ar
    34    11     6   ar
    35    23    17   ar
    36    22    24    1
    37    22    25    1
@<TRIPOS>MOLECULE
*****
 33 37 0 0 0
SMALL
GASTEIGER

@<TRIPOS>ATOM
      1 C          -1.3093    3.5490   19.6592 C.2     1  UNL1        0.2542
      2 O          -2.1956    2.6578   20.4778 O.2     1  UNL1       -0.2724
      3 N           0.0500    3.0738   19.2392 N.am    1  UNL1       -0.2569
      4 C           1.0420    3.8490   18.4238 C.3     1  UNL1        0.1030
      5 C           2.2611    2.9942   18.2417 C.3     1  UNL1        0.0518
      6 C           2.0225    1.6907   18.9445 C.ar    1  UNL1        0.0207
      7 C           0.6560    1.7399   19.5610 C.ar    1  UNL1        0.0521
      8 C           0.1399    0.5637   20.3358 C.ar    1  UNL1        0.0147
      9 C           0.9905   -0.6617   20.4940 C.ar    1  UNL1        0.0035
     10 C           2.3570   -0.7109   19.8775 C.ar    1  UNL1        0.0289
     11 C           2.8730    0.4654   19.1027 C.ar    1  UNL1        0.1374
     12 F           4.2396    0.4162   18.4862 F       1  UNL1       -0.2045
     13 C           3.2075   -1.9363   20.0357 C.ar    1  UNL1        0.0250
     14 C           3.4797   -2.9634   18.9769 C.ar    1  UNL1        0.0772
     15 N           4.3756   -4.0116   19.5673 N.ar    1  UNL1       -0.3094
     16 C           4.8982   -5.2259   18.8585 C.3     1  UNL1        0.1319
     17 C           4.6572   -3.6323   20.9910 C.ar    1  UNL1        0.1483
     18 N           5.4777   -4.2891   22.0612 N.ar    1  UNL1       -0.2065
     19 C           5.5763   -3.6634   23.4209 C.ar    1  UNL1        0.2014
     20 N           4.8544   -2.3807   23.7104 N.ar    1  UNL1       -0.2094
     21 C           4.0339   -1.7239   22.6401 C.ar    1  UNL1        0.1300
     22 N           3.3120   -0.4413   22.9296 N.pl3   1  UNL1       -0.3425
     23 C           3.9353   -2.3497   21.2805 C.ar    1  UNL1        0.0669
     24 H           3.3767   -0.0305   23.8219 H       1  UNL1        0.1437
     25 H           2.7734   -0.0102   22.2271 H       1  UNL1        0.1437
     26 C          -1.7824    4.9155   19.2605 C.3     1  UNL1        0.2119
     27 C          -6.6036    5.8766   17.3335 C.3     1  UNL1        0.0540
     28 C          -5.1536    5.5049   17.4293 C.ar    1  UNL1        0.0801
     29 C          -4.2763    5.0757   16.2907 C.ar    1  UNL1        0.0308
     30 C          -2.9068    4.8027   16.8381 C.ar    1  UNL1        0.0577
     31 C          -1.7156    4.3488   16.0474 C.3     1  UNL1        0.0518
     32 N          -2.9375    5.0631   18.3150 N.ar    1  UNL1       -0.2458
     33 N          -4.3261    5.4971   18.6804 N.ar    1  UNL1       -0.1735
@<TRIPOS>BOND
     1    27    28    1
     2    28    29   ar
     3    29    30   ar
     4    30    31    1
     5    30    32   ar
     6    32    26    1
     7    26     1    1
     8     1     2    2
     9     1     3   am
    10     3     4    1
    11     4     5    1
    12     5     6    1
    13     6     7   ar
    14     7     8   ar
    15     8     9   ar
    16     9    10   ar
    17    10    13    1
    18    13    14   ar
    19    14    15   ar
    20    15    16    1
    21    15    17   ar
    22    17    18   ar
    23    18    19   ar
    24    19    20   ar
    25    20    21   ar
    26    21    22    1
    27    21    23   ar
    28    10    11   ar
    29    11    12    1
    30    32    33   ar
    31    33    28   ar
    32     7     3    1
    33    23    13   ar
    34    11     6   ar
    35    23    17   ar
    36    22    24    1
    37    22    25    1
@<TRIPOS>MOLECULE
*****
 33 37 0 0 0
SMALL
GASTEIGER

@<TRIPOS>ATOM
      1 C          -1.1296    3.3155   21.8896 C.2     1  UNL1        0.2542
      2 O          -0.8415    2.7286   23.2397 O.2     1  UNL1       -0.2724
      3 N          -0.4321    2.7797   20.6745 N.am    1  UNL1       -0.2569
      4 C          -0.6171    3.2633   19.2667 C.3     1  UNL1        0.1030
      5 C           0.2736    2.4488   18.3761 C.3     1  UNL1        0.0518
      6 C           1.0091    1.4619   19.2334 C.ar    1  UNL1        0.0207
      7 C           0.5729    1.6664   20.6540 C.ar    1  UNL1        0.0521
      8 C           1.1473    0.8125   21.7452 C.ar    1  UNL1        0.0147
      9 C           2.1578   -0.2461   21.4160 C.ar    1  UNL1        0.0035
     10 C           2.5939   -0.4506   19.9954 C.ar    1  UNL1        0.0289
     11 C           2.0195    0.4034   18.9041 C.ar    1  UNL1        0.1374
     12 F           2.4557    0.1988   17.4836 F       1  UNL1       -0.2045
     13 C           3.6044   -1.5091   19.6661 C.ar    1  UNL1        0.0250
     14 C           3.3110   -2.9559   19.4001 C.ar    1  UNL1        0.0772
     15 N           4.6110   -3.6477   19.1146 N.ar    1  UNL1       -0.3094
     16 C           4.7838   -5.1031   18.7955 C.3     1  UNL1        0.1319
     17 C           5.7079   -2.6283   19.2042 C.ar    1  UNL1        0.1483
     18 N           7.1928   -2.7329   19.0194 N.ar    1  UNL1       -0.2065
     19 C           8.0556   -1.5159   19.1755 C.ar    1  UNL1        0.2014
     20 N           7.4335   -0.1942   19.5164 N.ar    1  UNL1       -0.2094
     21 C           5.9485   -0.0896   19.7012 C.ar    1  UNL1        0.1300
     22 N           5.3264    1.2320   20.0420 N.pl3   1  UNL1       -0.3425
     23 C           5.0857   -1.3067   19.5451 C.ar    1  UNL1        0.0669
     24 H           5.8927    2.0308   20.1445 H       1  UNL1        0.1437
     25 H           4.3518    1.3007   20.1633 H       1  UNL1        0.1437
     26 C          -2.1153    4.4380   21.7547 C.3     1  UNL1        0.2119
     27 C          -6.5510    3.6952   18.9881 C.3     1  UNL1        0.0540
     28 C          -5.5816    3.8028   20.1276 C.ar    1  UNL1        0.0801
     29 C          -5.8969    3.5815   21.5773 C.ar    1  UNL1        0.0308
     30 C          -4.6368    3.7925   22.3633 C.ar    1  UNL1        0.0577
     31 C          -4.4956    3.6728   23.8518 C.3     1  UNL1        0.0518
     32 N          -3.5427    4.1442   21.3993 N.ar    1  UNL1       -0.2458
     33 N          -4.1266    4.1506   20.0176 N.ar    1  UNL1       -0.1735
@<TRIPOS>BOND
     1    27    28    1
     2    28    29   ar
     3    29    30   ar
     4    30    31    1
     5    30    32   ar
     6    32    26    1
     7    26     1    1
     8     1     2    2
     9     1     3   am
    10     3     4    1
    11     4     5    1
    12     5     6    1
    13     6     7   ar
    14     7     8   ar
    15     8     9   ar
    16     9    10   ar
    17    10    13    1
    18    13    14   ar
    19    14    15   ar
    20    15    16    1
    21    15    17   ar
    22    17    18   ar
    23    18    19   ar
    24    19    20   ar
    25    20    21   ar
    26    21    22    1
    27    21    23   ar
    28    10    11   ar
    29    11    12    1
    30    32    33   ar
    31    33    28   ar
    32     7     3    1
    33    23    13   ar
    34    11     6   ar
    35    23    17   ar
    36    22    24    1
    37    22    25    1
@<TRIPOS>MOLECULE
*****
 33 37 0 0 0
SMALL
GASTEIGER

@<TRIPOS>ATOM
      1 C          -0.9913    3.7684   19.1648 C.2     1  UNL1        0.2542
      2 O          -0.7093    3.6748   17.6946 O.2     1  UNL1       -0.2724
      3 N          -0.3228    2.8231   20.1184 N.am    1  UNL1       -0.2569
      4 C          -0.5055    2.7965   21.6070 C.3     1  UNL1        0.1030
      5 C           0.3502    1.6953   22.1594 C.3     1  UNL1        0.0518
      6 C           1.0618    1.0413   21.0122 C.ar    1  UNL1        0.0207
      7 C           0.6459    1.7383   19.7508 C.ar    1  UNL1        0.0521
      8 C           1.2028    1.2953   18.4304 C.ar    1  UNL1        0.0147
      9 C           2.1758    0.1551   18.3714 C.ar    1  UNL1        0.0035
     10 C           2.5917   -0.5420   19.6328 C.ar    1  UNL1        0.0289
     11 C           2.0347   -0.0988   20.9533 C.ar    1  UNL1        0.1374
     12 F           2.4506   -0.7959   22.2147 F       1  UNL1       -0.2045
     13 C           3.5647   -1.6821   19.5739 C.ar    1  UNL1        0.0250
     14 C           3.2459   -3.0936   19.1790 C.ar    1  UNL1        0.0772
     15 N           4.5114   -3.8948   19.2605 N.ar    1  UNL1       -0.3094
     16 C           4.6515   -5.3558   18.9511 C.3     1  UNL1        0.1319
     17 C           5.6123   -2.9783   19.7058 C.ar    1  UNL1        0.1483
     18 N           7.0720   -3.2124   19.9600 N.ar    1  UNL1       -0.2065
     19 C           7.9465   -2.0790   20.4078 C.ar    1  UNL1        0.2014
     20 N           7.3614   -0.7114   20.6015 N.ar    1  UNL1       -0.2094
     21 C           5.9016   -0.4774   20.3473 C.ar    1  UNL1        0.1300
     22 N           5.3165    0.8901   20.5410 N.pl3   1  UNL1       -0.3425
     23 C           5.0271   -1.6108   19.8995 C.ar    1  UNL1        0.0669
     24 H           5.8904    1.6340   20.8349 H       1  UNL1        0.1437
     25 H           4.3585    1.0438   20.3742 H       1  UNL1        0.1437
     26 C          -1.9418    4.8075   19.6815 C.3     1  UNL1        0.2119
     27 C          -6.2431    3.8281   22.5833 C.3     1  UNL1        0.0540
     28 C          -5.3106    3.9674   21.4166 C.ar    1  UNL1        0.0801
     29 C          -5.6397    3.6679   19.9842 C.ar    1  UNL1        0.0308
     30 C          -4.4178    3.9462   19.1598 C.ar    1  UNL1        0.0577
     31 C          -4.3008    3.7818   17.6735 C.3     1  UNL1        0.0518
     32 N          -3.3335    4.4176   20.0829 N.ar    1  UNL1       -0.2458
     33 N          -3.8853    4.4308   21.4776 N.ar    1  UNL1       -0.1735
@<TRIPOS>BOND
     1    27    28    1
     2    28    29   ar
     3    29    30   ar
     4    30    31    1
     5    30    32   ar
     6    32    26    1
     7    26     1    1
     8     1     2    2
     9     1     3   am
    10     3     4    1
    11     4     5    1
    12     5     6    1
    13     6     7   ar
    14     7     8   ar
    15     8     9   ar
    16     9    10   ar
    17    10    13    1
    18    13    14   ar
    19    14    15   ar
    20    15    16    1
    21    15    17   ar
    22    17    18   ar
    23    18    19   ar
    24    19    20   ar
    25    20    21   ar
    26    21    22    1
    27    21    23   ar
    28    10    11   ar
    29    11    12    1
    30    32    33   ar
    31    33    28   ar
    32     7     3    1
    33    23    13   ar
    34    11     6   ar
    35    23    17   ar
    36    22    24    1
    37    22    25    1
@<TRIPOS>MOLECULE
*****
 33 37 0 0 0
SMALL
GASTEIGER

@<TRIPOS>ATOM
      1 C          -1.4810    3.2303   22.5872 C.2     1  UNL1        0.2542
      2 O          -2.1676    3.0462   21.2663 O.2     1  UNL1       -0.2724
      3 N          -0.1922    2.5162   22.8685 N.am    1  UNL1       -0.2569
      4 C           0.6047    2.6020   24.1364 C.3     1  UNL1        0.1030
      5 C           1.8153    1.7298   23.9828 C.3     1  UNL1        0.0518
      6 C           1.7666    1.1050   22.6200 C.ar    1  UNL1        0.0207
      7 C           0.5258    1.5910   21.9313 C.ar    1  UNL1        0.0521
      8 C           0.2102    1.1283   20.5399 C.ar    1  UNL1        0.0147
      9 C           1.1353    0.1795   19.8370 C.ar    1  UNL1        0.0035
     10 C           2.3761   -0.3065   20.5257 C.ar    1  UNL1        0.0289
     11 C           2.6917    0.1562   21.9172 C.ar    1  UNL1        0.1374
     12 F           3.9325   -0.3298   22.6059 F       1  UNL1       -0.2045
     13 C           3.3012   -1.2553   19.8229 C.ar    1  UNL1        0.0250
     14 C           3.1803   -2.7502   19.7999 C.ar    1  UNL1        0.0772
     15 N           4.3140   -3.2946   18.9825 N.ar    1  UNL1       -0.3094
     16 C           4.5795   -4.7431   18.6974 C.3     1  UNL1        0.1319
     17 C           5.1358   -2.1360   18.5002 C.ar    1  UNL1        0.1483
     18 N           6.3731   -2.0658   17.6552 N.ar    1  UNL1       -0.2065
     19 C           6.9845   -0.7354   17.3295 C.ar    1  UNL1        0.2014
     20 N           6.3586    0.5250   17.8489 N.ar    1  UNL1       -0.2094
     21 C           5.1212    0.4548   18.6940 C.ar    1  UNL1        0.1300
     22 N           4.4952    1.7151   19.2134 N.pl3   1  UNL1       -0.3425
     23 C           4.5098   -0.8757   19.0196 C.ar    1  UNL1        0.0669
     24 H           4.8965    2.5884   18.9997 H       1  UNL1        0.1437
     25 H           3.6831    1.6691   19.7680 H       1  UNL1        0.1437
     26 C          -2.0832    4.1285   23.6267 C.3     1  UNL1        0.2119
     27 C          -7.3003    4.2933   22.8290 C.3     1  UNL1        0.0540
     28 C          -5.9621    4.1881   23.4984 C.ar    1  UNL1        0.0801
     29 C          -5.7236    3.9870   24.9657 C.ar    1  UNL1        0.0308
     30 C          -4.2416    3.9402   25.1923 C.ar    1  UNL1        0.0577
     31 C          -3.5572    3.7539   26.5140 C.3     1  UNL1        0.0518
     32 N          -3.5641    4.1124   23.8651 N.ar    1  UNL1       -0.2458
     33 N          -4.6274    4.2656   22.8183 N.ar    1  UNL1       -0.1735
@<TRIPOS>BOND
     1    27    28    1
     2    28    29   ar
     3    29    30   ar
     4    30    31    1
     5    30    32   ar
     6    32    26    1
     7    26     1    1
     8     1     2    2
     9     1     3   am
    10     3     4    1
    11     4     5    1
    12     5     6    1
    13     6     7   ar
    14     7     8   ar
    15     8     9   ar
    16     9    10   ar
    17    10    13    1
    18    13    14   ar
    19    14    15   ar
    20    15    16    1
    21    15    17   ar
    22    17    18   ar
    23    18    19   ar
    24    19    20   ar
    25    20    21   ar
    26    21    22    1
    27    21    23   ar
    28    10    11   ar
    29    11    12    1
    30    32    33   ar
    31    33    28   ar
    32     7     3    1
    33    23    13   ar
    34    11     6   ar
    35    23    17   ar
    36    22    24    1
    37    22    25    1
@<TRIPOS>MOLECULE
*****
 33 37 0 0 0
SMALL
GASTEIGER

@<TRIPOS>ATOM
      1 C           7.6151   -4.3031   26.1958 C.2     1  UNL1        0.2542
      2 O           7.0831   -5.5556   25.5648 O.2     1  UNL1       -0.2724
      3 N           7.2068   -2.9623   25.6614 N.am    1  UNL1       -0.2569
      4 C           7.6545   -1.6303   26.1864 C.3     1  UNL1        0.1030
      5 C           7.0034   -0.5629   25.3576 C.3     1  UNL1        0.0518
      6 C           6.1534   -1.2351   24.3205 C.ar    1  UNL1        0.0207
      7 C           6.2791   -2.7180   24.5083 C.ar    1  UNL1        0.0521
      8 C           5.5325   -3.6543   23.6050 C.ar    1  UNL1        0.0147
      9 C           4.6603   -3.1077   22.5139 C.ar    1  UNL1        0.0035
     10 C           4.5346   -1.6248   22.3261 C.ar    1  UNL1        0.0289
     11 C           5.2812   -0.6885   23.2295 C.ar    1  UNL1        0.1374
     12 F           5.1555    0.7944   23.0417 F       1  UNL1       -0.2045
     13 C           3.6624   -1.0782   21.2350 C.ar    1  UNL1        0.0250
     14 C           2.3006   -0.4752   21.4136 C.ar    1  UNL1        0.0772
     15 N           1.7954   -0.0629   20.0628 N.ar    1  UNL1       -0.3094
     16 C           0.4729    0.5840   19.7758 C.3     1  UNL1        0.1319
     17 C           2.8450   -0.4112   19.0493 C.ar    1  UNL1        0.1483
     18 N           2.8992   -0.2381   17.5603 N.ar    1  UNL1       -0.2065
     19 C           4.1070   -0.6924   16.7958 C.ar    1  UNL1        0.2014
     20 N           5.2610   -1.3199   17.5203 N.ar    1  UNL1       -0.2094
     21 C           5.2068   -1.4930   19.0094 C.ar    1  UNL1        0.1300
     22 N           6.3607   -2.1205   19.7339 N.pl3   1  UNL1       -0.3425
     23 C           3.9988   -1.0387   19.7738 C.ar    1  UNL1        0.0669
     24 H           7.1535   -2.4187   19.2321 H       1  UNL1        0.1437
     25 H           6.3251   -2.2342   20.7111 H       1  UNL1        0.1437
     26 C           8.5554   -4.3913   27.3611 C.3     1  UNL1        0.2119
     27 C           6.4616   -3.7091   32.1603 C.3     1  UNL1        0.0540
     28 C           7.0594   -4.3490   30.9425 C.ar    1  UNL1        0.0801
     29 C           7.3423   -5.8112   30.7637 C.ar    1  UNL1        0.0308
     30 C           7.9371   -6.0050   29.4004 C.ar    1  UNL1        0.0577
     31 C           8.3710   -7.3118   28.8054 C.3     1  UNL1        0.0518
     32 N           8.0218   -4.6626   28.7366 N.ar    1  UNL1       -0.2458
     33 N           7.4794   -3.6391   29.6896 N.ar    1  UNL1       -0.1735
@<TRIPOS>BOND
     1    27    28    1
     2    28    29   ar
     3    29    30   ar
     4    30    31    1
     5    30    32   ar
     6    32    26    1
     7    26     1    1
     8     1     2    2
     9     1     3   am
    10     3     4    1
    11     4     5    1
    12     5     6    1
    13     6     7   ar
    14     7     8   ar
    15     8     9   ar
    16     9    10   ar
    17    10    13    1
    18    13    14   ar
    19    14    15   ar
    20    15    16    1
    21    15    17   ar
    22    17    18   ar
    23    18    19   ar
    24    19    20   ar
    25    20    21   ar
    26    21    22    1
    27    21    23   ar
    28    10    11   ar
    29    11    12    1
    30    32    33   ar
    31    33    28   ar
    32     7     3    1
    33    23    13   ar
    34    11     6   ar
    35    23    17   ar
    36    22    24    1
    37    22    25    1
@<TRIPOS>MOLECULE
*****
 33 37 0 0 0
SMALL
GASTEIGER

@<TRIPOS>ATOM
      1 C           7.9298   -5.0477   30.4188 C.2     1  UNL1        0.2542
      2 O           6.5716   -5.6837   30.4496 O.2     1  UNL1       -0.2724
      3 N           8.1882   -3.7928   31.1987 N.am    1  UNL1       -0.2569
      4 C           9.4882   -3.0472   31.2641 C.3     1  UNL1        0.1030
      5 C           9.2953   -1.8567   32.1560 C.3     1  UNL1        0.0518
      6 C           7.8762   -1.8665   32.6419 C.ar    1  UNL1        0.0207
      7 C           7.1920   -3.0631   32.0503 C.ar    1  UNL1        0.0521
      8 C           5.7502   -3.3336   32.3633 C.ar    1  UNL1        0.0147
      9 C           4.9926   -2.4075   33.2681 C.ar    1  UNL1        0.0035
     10 C           5.6768   -1.2109   33.8597 C.ar    1  UNL1        0.0289
     11 C           7.1187   -0.9405   33.5466 C.ar    1  UNL1        0.1374
     12 F           7.8030    0.2561   34.1383 F       1  UNL1       -0.2045
     13 C           4.9193   -0.2849   34.7644 C.ar    1  UNL1        0.0250
     14 C           5.0132   -0.2420   36.2609 C.ar    1  UNL1        0.0772
     15 N           4.0868    0.8303   36.7529 N.ar    1  UNL1       -0.3094
     16 C           3.8656    1.2152   38.1857 C.3     1  UNL1        0.1319
     17 C           3.4204    1.4501   35.5604 C.ar    1  UNL1        0.1483
     18 N           2.4115    2.5530   35.4349 N.ar    1  UNL1       -0.2065
     19 C           1.9172    2.9667   34.0805 C.ar    1  UNL1        0.2014
     20 N           2.4317    2.2775   32.8515 N.ar    1  UNL1       -0.2094
     21 C           3.4406    1.1745   32.9771 C.ar    1  UNL1        0.1300
     22 N           3.9552    0.4853   31.7482 N.pl3   1  UNL1       -0.3425
     23 C           3.9349    0.7608   34.3316 C.ar    1  UNL1        0.0669
     24 H           3.6307    0.7568   30.8592 H       1  UNL1        0.1437
     25 H           4.6173   -0.2386   31.8306 H       1  UNL1        0.1437
     26 C           9.0296   -5.6667   29.6080 C.3     1  UNL1        0.2119
     27 C           8.1635   -7.5814   24.7639 C.3     1  UNL1        0.0540
     28 C           8.4978   -6.6497   25.8910 C.ar    1  UNL1        0.0801
     29 C           8.8827   -5.2061   25.7569 C.ar    1  UNL1        0.0308
     30 C           9.1287   -4.6622   27.1330 C.ar    1  UNL1        0.0577
     31 C           9.5360   -3.2575   27.4660 C.3     1  UNL1        0.0518
     32 N           8.8959   -5.7696   28.1175 N.ar    1  UNL1       -0.2458
     33 N           8.5060   -6.9980   27.3499 N.ar    1  UNL1       -0.1735
@<TRIPOS>BOND
     1    27    28    1
     2    28    29   ar
     3    29    30   ar
     4    30    31    1
     5    30    32   ar
     6    32    26    1
     7    26     1    1
     8     1     2    2
     9     1     3   am
    10     3     4    1
    11     4     5    1
    12     5     6    1
    13     6     7   ar
    14     7     8   ar
    15     8     9   ar
    16     9    10   ar
    17    10    13    1
    18    13    14   ar
    19    14    15   ar
    20    15    16    1
    21    15    17   ar
    22    17    18   ar
    23    18    19   ar
    24    19    20   ar
    25    20    21   ar
    26    21    22    1
    27    21    23   ar
    28    10    11   ar
    29    11    12    1
    30    32    33   ar
    31    33    28   ar
    32     7     3    1
    33    23    13   ar
    34    11     6   ar
    35    23    17   ar
    36    22    24    1
    37    22    25    1
@<TRIPOS>MOLECULE
*****
 33 37 0 0 0
SMALL
GASTEIGER

@<TRIPOS>ATOM
      1 C         -15.0863    2.6175   18.7487 C.2     1  UNL1        0.2542
      2 O         -13.9735    2.8552   17.7714 O.2     1  UNL1       -0.2724
      3 N         -15.4262    1.2195   19.1728 N.am    1  UNL1       -0.2569
      4 C         -16.5068    0.8287   20.1370 C.3     1  UNL1        0.1030
      5 C         -16.4935   -0.6656   20.2673 C.3     1  UNL1        0.0518
      6 C         -15.4047   -1.1983   19.3837 C.ar    1  UNL1        0.0207
      7 C         -14.7451   -0.0333   18.7072 C.ar    1  UNL1        0.0521
      8 C         -13.6094   -0.2636   17.7548 C.ar    1  UNL1        0.0147
      9 C         -13.1334   -1.6591   17.4787 C.ar    1  UNL1        0.0035
     10 C         -13.7930   -2.8241   18.1551 C.ar    1  UNL1        0.0289
     11 C         -14.9287   -2.5937   19.1076 C.ar    1  UNL1        0.1374
     12 F         -15.5884   -3.7587   19.7840 F       1  UNL1       -0.2045
     13 C         -13.3171   -4.2195   17.8791 C.ar    1  UNL1        0.0250
     14 C         -14.1185   -5.3141   17.2390 C.ar    1  UNL1        0.0772
     15 N         -13.2529   -6.5364   17.1590 N.ar    1  UNL1       -0.3094
     16 C         -13.6533   -7.8646   16.5885 C.3     1  UNL1        0.1319
     17 C         -11.9163   -6.1973   17.7496 C.ar    1  UNL1        0.1483
     18 N         -10.6683   -7.0074   17.9397 N.ar    1  UNL1       -0.2065
     19 C          -9.4600   -6.3858   18.5747 C.ar    1  UNL1        0.2014
     20 N          -9.4996   -4.9538   19.0198 N.ar    1  UNL1       -0.2094
     21 C         -10.7477   -4.1436   18.8297 C.ar    1  UNL1        0.1300
     22 N         -10.7875   -2.7117   19.2748 N.pl3   1  UNL1       -0.3425
     23 C         -11.9560   -4.7654   18.1946 C.ar    1  UNL1        0.0669
     24 H          -9.9944   -2.3036   19.6916 H       1  UNL1        0.1437
     25 H         -11.6066   -2.1800   19.1500 H       1  UNL1        0.1437
     26 C         -15.8593    3.7779   19.3018 C.3     1  UNL1        0.2119
     27 C         -13.6590    5.3718   23.8294 C.3     1  UNL1        0.0540
     28 C         -14.6666    4.9183   22.8150 C.ar    1  UNL1        0.0801
     29 C         -16.1314    4.7080   23.0603 C.ar    1  UNL1        0.0308
     30 C         -16.7565    4.2552   21.7741 C.ar    1  UNL1        0.0577
     31 C         -18.2056    3.9291   21.5649 C.3     1  UNL1        0.0518
     32 N         -15.6780    4.1857   20.7339 N.ar    1  UNL1       -0.2458
     33 N         -14.3864    4.5955   21.3772 N.ar    1  UNL1       -0.1735
@<TRIPOS>BOND
     1    27    28    1
     2    28    29   ar
     3    29    30   ar
     4    30    31    1
     5    30    32   ar
     6    32    26    1
     7    26     1    1
     8     1     2    2
     9     1     3   am
    10     3     4    1
    11     4     5    1
    12     5     6    1
    13     6     7   ar
    14     7     8   ar
    15     8     9   ar
    16     9    10   ar
    17    10    13    1
    18    13    14   ar
    19    14    15   ar
    20    15    16    1
    21    15    17   ar
    22    17    18   ar
    23    18    19   ar
    24    19    20   ar
    25    20    21   ar
    26    21    22    1
    27    21    23   ar
    28    10    11   ar
    29    11    12    1
    30    32    33   ar
    31    33    28   ar
    32     7     3    1
    33    23    13   ar
    34    11     6   ar
    35    23    17   ar
    36    22    24    1
    37    22    25    1
@<TRIPOS>MOLECULE
*****
 33 37 0 0 0
SMALL
GASTEIGER

@<TRIPOS>ATOM
      1 C         -16.2875    1.9855   19.7706 C.2     1  UNL1        0.2542
      2 O         -16.8449    1.3679   21.0187 O.2     1  UNL1       -0.2724
      3 N         -15.4755    1.1554   18.8211 N.am    1  UNL1       -0.2569
      4 C         -14.8567    1.6321   17.5406 C.3     1  UNL1        0.1030
      5 C         -14.1385    0.4741   16.9136 C.3     1  UNL1        0.0518
      6 C         -14.3134   -0.7184   17.8067 C.ar    1  UNL1        0.0207
      7 C         -15.1397   -0.2973   18.9856 C.ar    1  UNL1        0.0521
      8 C         -15.4795   -1.2910   20.0566 C.ar    1  UNL1        0.0147
      9 C         -14.9931   -2.7059   19.9486 C.ar    1  UNL1        0.0035
     10 C         -14.1668   -3.1270   18.7696 C.ar    1  UNL1        0.0289
     11 C         -13.8269   -2.1332   17.6987 C.ar    1  UNL1        0.1374
     12 F         -13.0006   -2.5542   16.5197 F       1  UNL1       -0.2045
     13 C         -13.6804   -4.5418   18.6616 C.ar    1  UNL1        0.0250
     14 C         -14.5307   -5.7487   18.3964 C.ar    1  UNL1        0.0772
     15 N         -13.6341   -6.9509   18.3708 N.ar    1  UNL1       -0.3094
     16 C         -14.0661   -8.3681   18.1368 C.3     1  UNL1        0.1319
     17 C         -12.2295   -6.4870   18.6201 C.ar    1  UNL1        0.1483
     18 N         -10.9282   -7.2279   18.7068 N.ar    1  UNL1       -0.2065
     19 C          -9.6556   -6.4802   18.9731 C.ar    1  UNL1        0.2014
     20 N          -9.6842   -4.9912   19.1529 N.ar    1  UNL1       -0.2094
     21 C         -10.9855   -4.2501   19.0663 C.ar    1  UNL1        0.1300
     22 N         -11.0142   -2.7612   19.2461 N.pl3   1  UNL1       -0.3425
     23 C         -12.2582   -4.9981   18.7999 C.ar    1  UNL1        0.0669
     24 H         -10.1789   -2.2704   19.4209 H       1  UNL1        0.1437
     25 H         -11.8683   -2.2749   19.1892 H       1  UNL1        0.1437
     26 C         -16.5421    3.4333   19.4719 C.3     1  UNL1        0.2119
     27 C         -12.8256    7.1833   19.5528 C.3     1  UNL1        0.0540
     28 C         -13.8726    6.2026   19.9913 C.ar    1  UNL1        0.0801
     29 C         -14.3306    5.9735   21.4012 C.ar    1  UNL1        0.0308
     30 C         -15.3864    4.9082   21.3782 C.ar    1  UNL1        0.0577
     31 C         -16.1191    4.3671   22.5700 C.3     1  UNL1        0.0518
     32 N         -15.5808    4.4790   19.9541 N.ar    1  UNL1       -0.2458
     33 N         -14.6452    5.2790   19.0970 N.ar    1  UNL1       -0.1735
@<TRIPOS>BOND
     1    27    28    1
     2    28    29   ar
     3    29    30   ar
     4    30    31    1
     5    30    32   ar
     6    32    26    1
     7    26     1    1
     8     1     2    2
     9     1     3   am
    10     3     4    1
    11     4     5    1
    12     5     6    1
    13     6     7   ar
    14     7     8   ar
    15     8     9   ar
    16     9    10   ar
    17    10    13    1
    18    13    14   ar
    19    14    15   ar
    20    15    16    1
    21    15    17   ar
    22    17    18   ar
    23    18    19   ar
    24    19    20   ar
    25    20    21   ar
    26    21    22    1
    27    21    23   ar
    28    10    11   ar
    29    11    12    1
    30    32    33   ar
    31    33    28   ar
    32     7     3    1
    33    23    13   ar
    34    11     6   ar
    35    23    17   ar
    36    22    24    1
    37    22    25    1
