@<TRIPOS>MOLECULE
*****
 28 29 0 0 0
SMALL
GASTEIGER

@<TRIPOS>ATOM
      1 C          -8.4109  -16.4194   23.0748 C.ar    1  UNL1        0.0191
      2 C          -7.7403  -17.6205   22.4769 C.ar    1  UNL1        0.0063
      3 C          -6.2837  -17.8714   22.7328 C.ar    1  UNL1        0.0581
      4 C          -5.4978  -16.9211   23.5868 C.ar    1  UNL1        0.2297
      5 N          -6.1683  -15.7200   24.1847 N.ar    1  UNL1       -0.2098
      6 C          -7.6249  -15.4691   23.9287 C.ar    1  UNL1        0.1020
      7 C         -10.4983  -16.6470   21.5448 C.2     1  UNL1       -0.0069
      8 C          -9.8674  -16.1685   22.8188 C.2     1  UNL1       -0.0014
      9 C         -11.9548  -16.3961   21.2889 C.3     1  UNL1        0.0939
     10 C         -12.4133  -15.9624   19.9280 C.3     1  UNL1        0.0262
     11 C         -13.9929  -18.0500   24.2655 C.3     1  UNL1        0.0946
     12 C         -12.9949  -17.8672   23.1608 C.2     1  UNL1        0.2232
     13 O         -12.0389  -18.9727   22.8232 O.2     1  UNL1       -0.2751
     14 N         -12.9529  -16.5789   22.3936 N.am    1  UNL1       -0.3022
     15 H         -13.5803  -15.8534   22.6152 H       1  UNL1        0.1497
     16 O          -4.0412  -17.1720   23.8427 O.3     1  UNL1       -0.4352
     17 C          -3.1099  -17.4218   22.6937 C.ar    1  UNL1        0.1578
     18 C          -2.3189  -16.2891   22.1095 C.ar    1  UNL1        0.0415
     19 C          -1.3877  -16.5389   20.9604 C.ar    1  UNL1        0.0401
     20 C          -1.2473  -17.9214   20.3957 C.ar    1  UNL1        0.1399
     21 C          -2.0382  -19.0541   20.9799 C.ar    1  UNL1        0.0514
     22 C          -2.9696  -18.8043   22.1290 C.ar    1  UNL1        0.0952
     23 CL         -3.7605  -19.9370   22.7132 Cl      1  UNL1       -0.0790
     24 O          -0.3159  -18.1711   19.2466 O.3     1  UNL1       -0.4693
     25 C          -0.7661  -17.8951   17.8426 C.3     1  UNL1        0.2772
     26 C          -2.1537  -17.3864   17.5863 C.3     1  UNL1        0.3615
     27 F          -2.4412  -16.5796   16.3549 F       1  UNL1       -0.1942
     28 F          -3.2538  -17.6844   18.5615 F       1  UNL1       -0.1942
@<TRIPOS>BOND
     1    11    12    1
     2    12    13    2
     3    12    14   am
     4    14     9    1
     5     9    10    1
     6     9     7    1
     7     7     8    2
     8     8     1    1
     9     1     2   ar
    10     2     3   ar
    11     3     4   ar
    12     4    16    1
    13    16    17    1
    14    17    18   ar
    15    18    19   ar
    16    19    20   ar
    17    20    24    1
    18    24    25    1
    19    25    26    1
    20    26    27    1
    21    26    28    1
    22    20    21   ar
    23    21    22   ar
    24    22    23    1
    25     4     5   ar
    26     5     6   ar
    27     6     1   ar
    28    22    17   ar
    29    14    15    1
@<TRIPOS>MOLECULE
*****
 28 29 0 0 0
SMALL
GASTEIGER

@<TRIPOS>ATOM
      1 C           8.4023   -8.4029   27.1147 C.ar    1  UNL1        0.0191
      2 C           7.3475   -7.9912   26.1309 C.ar    1  UNL1        0.0063
      3 C           7.3869   -6.6228   25.5178 C.ar    1  UNL1        0.0581
      4 C           8.4810   -5.6661   25.8884 C.ar    1  UNL1        0.2297
      5 N           9.5358   -6.0777   26.8722 N.ar    1  UNL1       -0.2098
      6 C           9.4965   -7.4461   27.4853 C.ar    1  UNL1        0.1020
      7 C           7.1067  -10.5881   27.6591 C.2     1  UNL1       -0.0069
      8 C           8.3629   -9.7712   27.7278 C.2     1  UNL1       -0.0014
      9 C           7.0674  -11.9565   28.2722 C.3     1  UNL1        0.0939
     10 C           8.3341  -12.7441   28.4304 C.3     1  UNL1        0.0262
     11 C           3.5874  -13.8633   28.2118 C.3     1  UNL1        0.0946
     12 C           4.8935  -13.2826   27.7569 C.2     1  UNL1        0.2232
     13 O           5.3316  -13.4472   26.3318 O.2     1  UNL1       -0.2751
     14 N           5.7613  -12.5372   28.7271 N.am    1  UNL1       -0.3022
     15 H           5.4737  -12.4291   29.6624 H       1  UNL1        0.1497
     16 O           8.5204   -4.2977   25.2753 O.3     1  UNL1       -0.4352
     17 C           7.5685   -3.9426   24.1718 C.ar    1  UNL1        0.1578
     18 C           7.8791   -4.3356   22.7578 C.ar    1  UNL1        0.0415
     19 C           6.9272   -3.9805   21.6543 C.ar    1  UNL1        0.0401
     20 C           5.6646   -3.2324   21.9647 C.ar    1  UNL1        0.1399
     21 C           5.3540   -2.8395   23.3785 C.ar    1  UNL1        0.0514
     22 C           6.3059   -3.1945   24.4821 C.ar    1  UNL1        0.0952
     23 CL          5.9952   -2.8016   25.8960 Cl      1  UNL1       -0.0790
     24 O           4.7127   -2.8774   20.8611 O.3     1  UNL1       -0.4693
     25 C           4.9365   -3.4106   19.4771 C.3     1  UNL1        0.2772
     26 C           4.1857   -4.6222   19.0098 C.3     1  UNL1        0.3615
     27 F           4.9340   -5.8542   18.5946 F       1  UNL1       -0.1942
     28 F           2.6868   -4.6019   18.9576 F       1  UNL1       -0.1942
@<TRIPOS>BOND
     1    11    12    1
     2    12    13    2
     3    12    14   am
     4    14     9    1
     5     9    10    1
     6     9     7    1
     7     7     8    2
     8     8     1    1
     9     1     2   ar
    10     2     3   ar
    11     3     4   ar
    12     4    16    1
    13    16    17    1
    14    17    18   ar
    15    18    19   ar
    16    19    20   ar
    17    20    24    1
    18    24    25    1
    19    25    26    1
    20    26    27    1
    21    26    28    1
    22    20    21   ar
    23    21    22   ar
    24    22    23    1
    25     4     5   ar
    26     5     6   ar
    27     6     1   ar
    28    22    17   ar
    29    14    15    1
@<TRIPOS>MOLECULE
*****
 28 29 0 0 0
SMALL
GASTEIGER

@<TRIPOS>ATOM
      1 C           1.6432    0.3133   19.3012 C.ar    1  UNL1        0.0191
      2 C           1.8465    1.6320   18.6159 C.ar    1  UNL1        0.0063
      3 C           0.9418    2.7869   18.9285 C.ar    1  UNL1        0.0581
      4 C          -0.1662    2.6231   19.9262 C.ar    1  UNL1        0.2297
      5 N          -0.3695    1.3044   20.6114 N.ar    1  UNL1       -0.2098
      6 C           0.5352    0.1495   20.2989 C.ar    1  UNL1        0.1020
      7 C           3.0126   -1.7494   20.0886 C.2     1  UNL1       -0.0069
      8 C           2.5479   -0.8417   18.9886 C.2     1  UNL1       -0.0014
      9 C           3.9173   -2.9043   19.7761 C.3     1  UNL1        0.0939
     10 C           3.3401   -4.1947   19.2741 C.3     1  UNL1        0.0262
     11 C           7.7572   -2.2838   18.9890 C.3     1  UNL1        0.0946
     12 C           6.2754   -2.4191   18.7995 C.2     1  UNL1        0.2232
     13 O           5.6699   -2.2047   17.4440 O.2     1  UNL1       -0.2751
     14 N           5.3990   -2.7690   19.9656 N.am    1  UNL1       -0.3022
     15 H           5.7964   -2.9097   20.8552 H       1  UNL1        0.1497
     16 O          -1.0709    3.7781   20.2387 O.3     1  UNL1       -0.4352
     17 C          -2.1085    3.6484   21.3141 C.ar    1  UNL1        0.1578
     18 C          -1.7032    3.6991   22.7575 C.ar    1  UNL1        0.0415
     19 C          -2.7408    3.5694   23.8328 C.ar    1  UNL1        0.0401
     20 C          -4.1837    3.3890   23.4649 C.ar    1  UNL1        0.1399
     21 C          -4.5891    3.3383   22.0217 C.ar    1  UNL1        0.0514
     22 C          -3.5514    3.4680   20.9462 C.ar    1  UNL1        0.0952
     23 CL         -3.9568    3.4174   19.5029 Cl      1  UNL1       -0.0790
     24 O          -5.2214    3.2593   24.5404 O.3     1  UNL1       -0.4693
     25 C          -5.6127    4.4575   25.3535 C.3     1  UNL1        0.2772
     26 C          -5.0127    4.6707   26.7116 C.3     1  UNL1        0.3615
     27 F          -5.5098    5.7846   27.5847 F       1  UNL1       -0.1942
     28 F          -3.9158    3.7700   27.1967 F       1  UNL1       -0.1942
@<TRIPOS>BOND
     1    11    12    1
     2    12    13    2
     3    12    14   am
     4    14     9    1
     5     9    10    1
     6     9     7    1
     7     7     8    2
     8     8     1    1
     9     1     2   ar
    10     2     3   ar
    11     3     4   ar
    12     4    16    1
    13    16    17    1
    14    17    18   ar
    15    18    19   ar
    16    19    20   ar
    17    20    24    1
    18    24    25    1
    19    25    26    1
    20    26    27    1
    21    26    28    1
    22    20    21   ar
    23    21    22   ar
    24    22    23    1
    25     4     5   ar
    26     5     6   ar
    27     6     1   ar
    28    22    17   ar
    29    14    15    1
@<TRIPOS>MOLECULE
*****
 28 29 0 0 0
SMALL
GASTEIGER

@<TRIPOS>ATOM
      1 C           1.9729   -0.2136   20.7207 C.ar    1  UNL1        0.0191
      2 C           2.6425    1.0321   21.2206 C.ar    1  UNL1        0.0063
      3 C           1.8438    2.2870   21.4136 C.ar    1  UNL1        0.0581
      4 C           0.3756    2.2962   21.1068 C.ar    1  UNL1        0.2297
      5 N          -0.2940    1.0505   20.6070 N.ar    1  UNL1       -0.2098
      6 C           0.5047   -0.2044   20.4140 C.ar    1  UNL1        0.1020
      7 C           4.0042   -1.4491   19.6732 C.2     1  UNL1       -0.0069
      8 C           2.7716   -1.4686   20.5277 C.2     1  UNL1       -0.0014
      9 C           4.8029   -2.7040   19.4801 C.3     1  UNL1        0.0939
     10 C           4.1344   -3.9482   18.9748 C.3     1  UNL1        0.0262
     11 C           8.7332   -2.3747   19.0395 C.3     1  UNL1        0.0946
     12 C           7.2661   -2.3639   18.7272 C.2     1  UNL1        0.2232
     13 O           6.7952   -2.0021   17.3498 O.2     1  UNL1       -0.2751
     14 N           6.2700   -2.7148   19.7924 N.am    1  UNL1       -0.3022
     15 H           6.5791   -2.9523   20.6964 H       1  UNL1        0.1497
     16 O          -0.4231    3.5512   21.2999 O.3     1  UNL1       -0.4352
     17 C          -1.6369    3.5396   22.1811 C.ar    1  UNL1        0.1578
     18 C          -1.4818    3.5951   23.6721 C.ar    1  UNL1        0.0415
     19 C          -2.6956    3.5836   24.5533 C.ar    1  UNL1        0.0401
     20 C          -4.0644    3.5164   23.9436 C.ar    1  UNL1        0.1399
     21 C          -4.2195    3.4609   22.4527 C.ar    1  UNL1        0.0514
     22 C          -3.0057    3.4725   21.5714 C.ar    1  UNL1        0.0952
     23 CL         -3.1608    3.4169   20.0805 Cl      1  UNL1       -0.0790
     24 O          -5.2782    3.5049   24.8249 O.3     1  UNL1       -0.4693
     25 C          -6.2167    4.6750   24.8243 C.3     1  UNL1        0.2772
     26 C          -7.4904    4.6144   24.0344 C.3     1  UNL1        0.3615
     27 F          -7.5191    3.9096   22.7105 F       1  UNL1       -0.1942
     28 F          -8.7354    5.2584   24.5682 F       1  UNL1       -0.1942
@<TRIPOS>BOND
     1    11    12    1
     2    12    13    2
     3    12    14   am
     4    14     9    1
     5     9    10    1
     6     9     7    1
     7     7     8    2
     8     8     1    1
     9     1     2   ar
    10     2     3   ar
    11     3     4   ar
    12     4    16    1
    13    16    17    1
    14    17    18   ar
    15    18    19   ar
    16    19    20   ar
    17    20    24    1
    18    24    25    1
    19    25    26    1
    20    26    27    1
    21    26    28    1
    22    20    21   ar
    23    21    22   ar
    24    22    23    1
    25     4     5   ar
    26     5     6   ar
    27     6     1   ar
    28    22    17   ar
    29    14    15    1
@<TRIPOS>MOLECULE
*****
 28 29 0 0 0
SMALL
GASTEIGER

@<TRIPOS>ATOM
      1 C           1.7150    0.6183   19.3467 C.ar    1  UNL1        0.0191
      2 C           1.7643    1.9035   18.5748 C.ar    1  UNL1        0.0063
      3 C           0.6800    2.9252   18.7494 C.ar    1  UNL1        0.0581
      4 C          -0.4534    2.6618   19.6959 C.ar    1  UNL1        0.2297
      5 N          -0.5026    1.3766   20.4677 N.ar    1  UNL1       -0.2098
      6 C           0.5816    0.3549   20.2931 C.ar    1  UNL1        0.1020
      7 C           3.7366   -0.3103   18.0048 C.2     1  UNL1       -0.0069
      8 C           2.7993   -0.4034   19.1721 C.2     1  UNL1       -0.0014
      9 C           4.8208   -1.3321   17.8302 C.3     1  UNL1        0.0939
     10 C           6.2486   -0.8940   17.6897 C.3     1  UNL1        0.0262
     11 C           4.3276   -5.0964   18.9862 C.3     1  UNL1        0.0946
     12 C           4.6711   -3.6367   19.0203 C.2     1  UNL1        0.2232
     13 O           5.2082   -3.0218   20.2786 O.2     1  UNL1       -0.2751
     14 N           4.4774   -2.7918   17.7961 N.am    1  UNL1       -0.3022
     15 H           4.1248   -3.1954   16.9702 H       1  UNL1        0.1497
     16 O          -1.5377    3.6836   19.8705 O.3     1  UNL1       -0.4352
     17 C          -2.4609    3.6033   21.0499 C.ar    1  UNL1        0.1578
     18 C          -3.8815    3.1599   20.8615 C.ar    1  UNL1        0.0415
     19 C          -4.8048    3.0796   22.0409 C.ar    1  UNL1        0.0401
     20 C          -4.3076    3.4429   23.4087 C.ar    1  UNL1        0.1399
     21 C          -2.8871    3.8863   23.5971 C.ar    1  UNL1        0.0514
     22 C          -1.9637    3.9666   22.4177 C.ar    1  UNL1        0.0952
     23 CL         -0.5432    4.4100   22.6060 Cl      1  UNL1       -0.0790
     24 O          -5.2310    3.3626   24.5882 O.3     1  UNL1       -0.4693
     25 C          -6.0745    4.5452   24.9621 C.3     1  UNL1        0.2772
     26 C          -7.3490    4.8217   24.2211 C.3     1  UNL1        0.3615
     27 F          -7.7665    3.9309   23.0887 F       1  UNL1       -0.1942
     28 F          -8.2061    5.9888   24.6125 F       1  UNL1       -0.1942
@<TRIPOS>BOND
     1    11    12    1
     2    12    13    2
     3    12    14   am
     4    14     9    1
     5     9    10    1
     6     9     7    1
     7     7     8    2
     8     8     1    1
     9     1     2   ar
    10     2     3   ar
    11     3     4   ar
    12     4    16    1
    13    16    17    1
    14    17    18   ar
    15    18    19   ar
    16    19    20   ar
    17    20    24    1
    18    24    25    1
    19    25    26    1
    20    26    27    1
    21    26    28    1
    22    20    21   ar
    23    21    22   ar
    24    22    23    1
    25     4     5   ar
    26     5     6   ar
    27     6     1   ar
    28    22    17   ar
    29    14    15    1
@<TRIPOS>MOLECULE
*****
 28 29 0 0 0
SMALL
GASTEIGER

@<TRIPOS>ATOM
      1 C           1.7815    0.8077   19.4140 C.ar    1  UNL1        0.0191
      2 C           1.8569    2.1486   18.7459 C.ar    1  UNL1        0.0063
      3 C           0.7406    3.1357   18.9172 C.ar    1  UNL1        0.0581
      4 C          -0.4512    2.7820   19.7565 C.ar    1  UNL1        0.2297
      5 N          -0.5266    1.4412   20.4247 N.ar    1  UNL1       -0.2098
      6 C           0.5898    0.4540   20.2534 C.ar    1  UNL1        0.1020
      7 C           3.6665   -0.2265   17.9556 C.2     1  UNL1       -0.0069
      8 C           2.8979   -0.1794   19.2428 C.2     1  UNL1       -0.0014
      9 C           4.7829   -1.2136   17.7843 C.3     1  UNL1        0.0939
     10 C           6.1994   -0.7324   17.6749 C.3     1  UNL1        0.0262
     11 C           4.3159   -4.9956   18.8928 C.3     1  UNL1        0.0946
     12 C           4.6160   -3.5272   18.9546 C.2     1  UNL1        0.2232
     13 O           5.0493   -2.9041   20.2483 O.2     1  UNL1       -0.2751
     14 N           4.4827   -2.6820   17.7226 N.am    1  UNL1       -0.3022
     15 H           4.1983   -3.0910   16.8734 H       1  UNL1        0.1497
     16 O          -1.5675    3.7692   19.9278 O.3     1  UNL1       -0.4352
     17 C          -2.4999    3.6515   21.0968 C.ar    1  UNL1        0.1578
     18 C          -1.9599    3.7054   22.4953 C.ar    1  UNL1        0.0415
     19 C          -2.8924    3.5878   23.6643 C.ar    1  UNL1        0.0401
     20 C          -4.3648    3.4163   23.4350 C.ar    1  UNL1        0.1399
     21 C          -4.9048    3.3625   22.0367 C.ar    1  UNL1        0.0514
     22 C          -3.9723    3.4801   20.8675 C.ar    1  UNL1        0.0952
     23 CL         -4.5123    3.4262   19.4692 Cl      1  UNL1       -0.0790
     24 O          -5.2972    3.2987   24.6042 O.3     1  UNL1       -0.4693
     25 C          -5.5816    4.4971   25.4602 C.3     1  UNL1        0.2772
     26 C          -4.8569    4.6787   26.7609 C.3     1  UNL1        0.3615
     27 F          -5.2249    5.8115   27.6728 F       1  UNL1       -0.1942
     28 F          -3.7642    3.7274   27.1498 F       1  UNL1       -0.1942
@<TRIPOS>BOND
     1    11    12    1
     2    12    13    2
     3    12    14   am
     4    14     9    1
     5     9    10    1
     6     9     7    1
     7     7     8    2
     8     8     1    1
     9     1     2   ar
    10     2     3   ar
    11     3     4   ar
    12     4    16    1
    13    16    17    1
    14    17    18   ar
    15    18    19   ar
    16    19    20   ar
    17    20    24    1
    18    24    25    1
    19    25    26    1
    20    26    27    1
    21    26    28    1
    22    20    21   ar
    23    21    22   ar
    24    22    23    1
    25     4     5   ar
    26     5     6   ar
    27     6     1   ar
    28    22    17   ar
    29    14    15    1
@<TRIPOS>MOLECULE
*****
 28 29 0 0 0
SMALL
GASTEIGER

@<TRIPOS>ATOM
      1 C           1.3966    1.5301   25.3682 C.ar    1  UNL1        0.0191
      2 C           0.2912    1.4561   24.3569 C.ar    1  UNL1        0.0063
      3 C           0.5888    1.6754   22.9031 C.ar    1  UNL1        0.0581
      4 C           1.9917    1.9688   22.4607 C.ar    1  UNL1        0.2297
      5 N           3.0970    2.0428   23.4720 N.ar    1  UNL1       -0.2098
      6 C           2.7994    1.8235   24.9257 C.ar    1  UNL1        0.1020
      7 C          -0.3120    1.0713   27.2708 C.2     1  UNL1       -0.0069
      8 C           1.0990    1.3108   26.8219 C.2     1  UNL1       -0.0014
      9 C          -0.6096    0.8520   28.7246 C.3     1  UNL1        0.0939
     10 C          -1.6700   -0.1269   29.1337 C.3     1  UNL1        0.0262
     11 C           2.0624    1.7186   31.5279 C.3     1  UNL1        0.0946
     12 C           1.2996    0.9591   30.4833 C.2     1  UNL1        0.2232
     13 O           1.6833   -0.4528   30.1529 O.2     1  UNL1       -0.2751
     14 N           0.1532    1.6115   29.7691 N.am    1  UNL1       -0.3022
     15 H          -0.0986    2.5382   29.9860 H       1  UNL1        0.1497
     16 O           2.2892    2.1881   21.0069 O.3     1  UNL1       -0.4352
     17 C           2.8818    1.0805   20.1872 C.ar    1  UNL1        0.1578
     18 C           2.6223   -0.3493   20.5593 C.ar    1  UNL1        0.0415
     19 C           3.2149   -1.4570   19.7396 C.ar    1  UNL1        0.0401
     20 C           4.0670   -1.1349   18.5478 C.ar    1  UNL1        0.1399
     21 C           4.3265    0.2949   18.1758 C.ar    1  UNL1        0.0514
     22 C           3.7339    1.4026   18.9955 C.ar    1  UNL1        0.0952
     23 CL          3.9934    2.8323   18.6235 Cl      1  UNL1       -0.0790
     24 O           4.6596   -2.2426   17.7281 O.3     1  UNL1       -0.4693
     25 C           5.2362   -3.4506   18.4050 C.3     1  UNL1        0.2772
     26 C           4.3887   -4.6711   18.6105 C.3     1  UNL1        0.3615
     27 F           5.0261   -6.0284   18.6526 F       1  UNL1       -0.1942
     28 F           2.9040   -4.5344   18.7739 F       1  UNL1       -0.1942
@<TRIPOS>BOND
     1    11    12    1
     2    12    13    2
     3    12    14   am
     4    14     9    1
     5     9    10    1
     6     9     7    1
     7     7     8    2
     8     8     1    1
     9     1     2   ar
    10     2     3   ar
    11     3     4   ar
    12     4    16    1
    13    16    17    1
    14    17    18   ar
    15    18    19   ar
    16    19    20   ar
    17    20    24    1
    18    24    25    1
    19    25    26    1
    20    26    27    1
    21    26    28    1
    22    20    21   ar
    23    21    22   ar
    24    22    23    1
    25     4     5   ar
    26     5     6   ar
    27     6     1   ar
    28    22    17   ar
    29    14    15    1
@<TRIPOS>MOLECULE
*****
 28 29 0 0 0
SMALL
GASTEIGER

@<TRIPOS>ATOM
      1 C           2.9453    0.4964   18.5051 C.ar    1  UNL1        0.0191
      2 C           1.4562    0.3715   18.3750 C.ar    1  UNL1        0.0063
      3 C           0.5861    1.5844   18.5223 C.ar    1  UNL1        0.0581
      4 C           1.2051    2.9223   18.7996 C.ar    1  UNL1        0.2297
      5 N           2.6942    3.0472   18.9297 N.ar    1  UNL1       -0.2098
      6 C           3.5643    1.8342   18.7824 C.ar    1  UNL1        0.1020
      7 C           3.9797   -1.6658   19.5076 C.2     1  UNL1       -0.0069
      8 C           3.8153   -0.7166   18.3578 C.2     1  UNL1       -0.0014
      9 C           4.8498   -2.8788   19.3603 C.3     1  UNL1        0.0939
     10 C           4.2705   -4.1576   18.8320 C.3     1  UNL1        0.0262
     11 C           8.7734   -2.3401   19.1056 C.3     1  UNL1        0.0946
     12 C           7.3241   -2.4059   18.7246 C.2     1  UNL1        0.2232
     13 O           6.8999   -2.0648   17.3269 O.2     1  UNL1       -0.2751
     14 N           6.2990   -2.8129   19.7413 N.am    1  UNL1       -0.3022
     15 H           6.5775   -3.0368   20.6587 H       1  UNL1        0.1497
     16 O           0.3350    4.1352   18.9469 O.3     1  UNL1       -0.4352
     17 C          -1.1274    3.9780   19.2412 C.ar    1  UNL1        0.1578
     18 C          -2.1373    4.1716   18.1491 C.ar    1  UNL1        0.0415
     19 C          -3.5997    4.0143   18.4434 C.ar    1  UNL1        0.0401
     20 C          -4.0522    3.6635   19.8298 C.ar    1  UNL1        0.1399
     21 C          -3.0424    3.4699   20.9219 C.ar    1  UNL1        0.0514
     22 C          -1.5799    3.6271   20.6276 C.ar    1  UNL1        0.0952
     23 CL         -0.5700    3.4335   21.7197 Cl      1  UNL1       -0.0790
     24 O          -5.5147    3.5062   20.1241 O.3     1  UNL1       -0.4693
     25 C          -6.1803    4.4080   21.1210 C.3     1  UNL1        0.2772
     26 C          -6.4764    3.9082   22.5039 C.3     1  UNL1        0.3615
     27 F          -7.8315    4.1303   23.1075 F       1  UNL1       -0.1942
     28 F          -5.4174    3.1862   23.2832 F       1  UNL1       -0.1942
@<TRIPOS>BOND
     1    11    12    1
     2    12    13    2
     3    12    14   am
     4    14     9    1
     5     9    10    1
     6     9     7    1
     7     7     8    2
     8     8     1    1
     9     1     2   ar
    10     2     3   ar
    11     3     4   ar
    12     4    16    1
    13    16    17    1
    14    17    18   ar
    15    18    19   ar
    16    19    20   ar
    17    20    24    1
    18    24    25    1
    19    25    26    1
    20    26    27    1
    21    26    28    1
    22    20    21   ar
    23    21    22   ar
    24    22    23    1
    25     4     5   ar
    26     5     6   ar
    27     6     1   ar
    28    22    17   ar
    29    14    15    1
@<TRIPOS>MOLECULE
*****
 28 29 0 0 0
SMALL
GASTEIGER

@<TRIPOS>ATOM
      1 C           8.2646   -5.9541   23.7666 C.ar    1  UNL1        0.0191
      2 C           7.2393   -4.8777   23.9660 C.ar    1  UNL1        0.0063
      3 C           6.8242   -4.0142   22.8119 C.ar    1  UNL1        0.0581
      4 C           7.4344   -4.2271   21.4583 C.ar    1  UNL1        0.2297
      5 N           8.4597   -5.3036   21.2588 N.ar    1  UNL1       -0.2098
      6 C           8.8749   -6.1671   22.4130 C.ar    1  UNL1        0.1020
      7 C           7.8366   -6.8692   26.1602 C.2     1  UNL1       -0.0069
      8 C           8.6798   -6.8177   24.9207 C.2     1  UNL1       -0.0014
      9 C           8.2518   -7.7327   27.3143 C.3     1  UNL1        0.0939
     10 C           9.1734   -8.8945   27.0883 C.3     1  UNL1        0.0262
     11 C           7.5329   -5.8102   30.7109 C.3     1  UNL1        0.0946
     12 C           8.0393   -6.1084   29.3309 C.2     1  UNL1        0.2232
     13 O           8.8396   -5.0805   28.5873 O.2     1  UNL1       -0.2751
     14 N           7.7453   -7.4345   28.6943 N.am    1  UNL1       -0.3022
     15 H           7.2200   -8.1091   29.1824 H       1  UNL1        0.1497
     16 O           7.0193   -3.3636   20.3042 O.3     1  UNL1       -0.4352
     17 C           5.6524   -2.7461   20.2830 C.ar    1  UNL1        0.1578
     18 C           5.4003   -1.4574   21.0081 C.ar    1  UNL1        0.0415
     19 C           4.0335   -0.8399   20.9869 C.ar    1  UNL1        0.0401
     20 C           2.9187   -1.5111   20.2408 C.ar    1  UNL1        0.1399
     21 C           3.1708   -2.7998   19.5158 C.ar    1  UNL1        0.0514
     22 C           4.5377   -3.4174   19.5369 C.ar    1  UNL1        0.0952
     23 CL          4.7897   -4.7061   18.8119 Cl      1  UNL1       -0.0790
     24 O           1.5519   -0.8936   20.2196 O.3     1  UNL1       -0.4693
     25 C           1.2301    0.1821   19.2250 C.3     1  UNL1        0.2772
     26 C           2.2837    0.6604   18.2705 C.3     1  UNL1        0.3615
     27 F           2.8908   -0.2929   17.2842 F       1  UNL1       -0.1942
     28 F           2.7304    2.0920   18.3023 F       1  UNL1       -0.1942
@<TRIPOS>BOND
     1    11    12    1
     2    12    13    2
     3    12    14   am
     4    14     9    1
     5     9    10    1
     6     9     7    1
     7     7     8    2
     8     8     1    1
     9     1     2   ar
    10     2     3   ar
    11     3     4   ar
    12     4    16    1
    13    16    17    1
    14    17    18   ar
    15    18    19   ar
    16    19    20   ar
    17    20    24    1
    18    24    25    1
    19    25    26    1
    20    26    27    1
    21    26    28    1
    22    20    21   ar
    23    21    22   ar
    24    22    23    1
    25     4     5   ar
    26     5     6   ar
    27     6     1   ar
    28    22    17   ar
    29    14    15    1
