@<TRIPOS>MOLECULE
*****
 33 37 0 0 0
SMALL
GASTEIGER

@<TRIPOS>ATOM
      1 N          -7.8938  -19.6350   21.4003 N.3     1  UNL1       -0.2679
      2 C          -8.6344  -19.2264   22.6390 C.3     1  UNL1        0.0978
      3 C          -9.5642  -20.1933   23.3102 C.3     1  UNL1        0.0224
      4 C         -10.3049  -19.7846   24.5490 C.3     1  UNL1        0.0065
      5 C         -10.1156  -18.4092   25.1166 C.3     1  UNL1        0.0277
      6 C          -9.1857  -17.4423   24.4454 C.ar    1  UNL1       -0.0073
      7 C          -8.9965  -16.0668   25.0129 C.ar    1  UNL1       -0.0015
      8 C          -8.0666  -15.0999   24.3418 C.ar    1  UNL1        0.0203
      9 C          -7.3260  -15.5085   23.1030 C.ar    1  UNL1        0.0985
     10 N          -7.5153  -16.8840   22.5355 N.ar    1  UNL1       -0.2471
     11 C          -8.4451  -17.8509   23.2067 C.ar    1  UNL1        0.0695
     12 C          -6.5567  -20.3057   21.5127 C.3     1  UNL1        0.0886
     13 C          -0.6796  -16.9757   20.2394 C.ar    1  UNL1       -0.0003
     14 C          -1.0758  -17.7559   19.0212 C.ar    1  UNL1       -0.0003
     15 C          -2.3304  -18.5780   19.0322 C.ar    1  UNL1       -0.0045
     16 C          -3.1889  -18.6198   20.2614 C.ar    1  UNL1       -0.0234
     17 C          -2.7928  -17.8395   21.4797 C.ar    1  UNL1       -0.0103
     18 C          -1.5381  -17.0175   21.4687 C.ar    1  UNL1       -0.0032
     19 C          -3.6513  -17.8813   22.7091 C.3     1  UNL1        0.0953
     20 N          -4.9059  -18.7034   22.7201 N.3     1  UNL1       -0.2934
     21 C          -5.3021  -19.4836   21.5017 C.3     1  UNL1        0.0748
     22 C          -4.4436  -19.4418   20.2724 C.3     1  UNL1        0.0432
     23 H          -5.6747  -18.0646   22.9235 H       1  UNL1        0.1236
     24 C          -8.4902  -19.3730   20.0491 C.3     1  UNL1        0.0738
     25 C          -9.8586  -19.8915   19.7200 C.3     1  UNL1        0.0347
     26 C         -10.9973  -18.9341   19.5283 C.3     1  UNL1        0.0736
     27 N         -11.2839  -17.8916   20.5682 N.3     1  UNL1       -0.2703
     28 C         -12.2641  -18.1778   21.6669 C.3     1  UNL1        0.0894
     29 C         -12.5506  -17.1354   22.7067 C.3     1  UNL1        0.0862
     30 N         -11.8568  -15.8068   22.6478 N.3     1  UNL1       -0.2951
     31 C         -10.8766  -15.5206   21.5491 C.3     1  UNL1        0.0862
     32 C         -10.5901  -16.5630   20.5093 C.3     1  UNL1        0.0894
     33 H         -11.3526  -15.6986   23.5279 H       1  UNL1        0.1233
@<TRIPOS>BOND
     1    13    14   ar
     2    14    15   ar
     3    15    16   ar
     4    16    17   ar
     5    17    18   ar
     6    17    19    1
     7    19    20    1
     8    20    21    1
     9    21    12    1
    10    12     1    1
    11     1    24    1
    12    24    25    1
    13    25    26    1
    14    26    27    1
    15    27    28    1
    16    28    29    1
    17    29    30    1
    18    30    31    1
    19    31    32    1
    20     2     1    1
    21     2     3    1
    22     3     4    1
    23     4     5    1
    24     5     6    1
    25     6     7   ar
    26     7     8   ar
    27     8     9   ar
    28     9    10   ar
    29    10    11   ar
    30    21    22    1
    31    18    13   ar
    32    32    27    1
    33    11     2    1
    34    22    16    1
    35    11     6   ar
    36    20    23    1
    37    30    33    1
@<TRIPOS>MOLECULE
*****
 33 37 0 0 0
SMALL
GASTEIGER

@<TRIPOS>ATOM
      1 N          -7.6832  -19.0203   21.4100 N.3     1  UNL1       -0.2679
      2 C          -8.9399  -19.1920   22.2107 C.3     1  UNL1        0.0978
      3 C          -8.9622  -20.1327   23.3789 C.3     1  UNL1        0.0224
      4 C         -10.2189  -20.3045   24.1797 C.3     1  UNL1        0.0065
      5 C         -11.4533  -19.5356   23.8122 C.3     1  UNL1        0.0277
      6 C         -11.4310  -18.5949   22.6440 C.ar    1  UNL1       -0.0073
      7 C         -12.6654  -17.8261   22.2766 C.ar    1  UNL1       -0.0015
      8 C         -12.6431  -16.8854   21.1084 C.ar    1  UNL1        0.0203
      9 C         -11.3865  -16.7136   20.3076 C.ar    1  UNL1        0.0985
     10 N         -10.1521  -17.4825   20.6751 N.ar    1  UNL1       -0.2471
     11 C         -10.1744  -18.4231   21.8433 C.ar    1  UNL1        0.0695
     12 C          -6.9341  -17.7216   21.4592 C.3     1  UNL1        0.0886
     13 C          -6.9556  -14.7899   27.6765 C.ar    1  UNL1       -0.0003
     14 C          -8.3631  -15.1399   27.2938 C.ar    1  UNL1       -0.0003
     15 C          -8.6403  -15.7963   25.9738 C.ar    1  UNL1       -0.0045
     16 C          -7.5100  -16.1026   25.0365 C.ar    1  UNL1       -0.0234
     17 C          -6.1025  -15.7526   25.4192 C.ar    1  UNL1       -0.0103
     18 C          -5.8253  -15.0962   26.7392 C.ar    1  UNL1       -0.0032
     19 C          -4.9722  -16.0589   24.4818 C.3     1  UNL1        0.0953
     20 N          -5.2494  -16.7152   23.1618 N.3     1  UNL1       -0.2934
     21 C          -6.6569  -17.0652   22.7792 C.3     1  UNL1        0.0748
     22 C          -7.7872  -16.7589   23.7165 C.3     1  UNL1        0.0432
     23 H          -4.7155  -17.5842   23.1472 H       1  UNL1        0.1236
     24 C          -7.1756  -20.1471   20.5600 C.3     1  UNL1        0.0738
     25 C          -5.8508  -20.7801   20.8668 C.3     1  UNL1        0.0347
     26 C          -4.6742  -20.5293   19.9707 C.3     1  UNL1        0.0736
     27 N          -3.5898  -19.5871   20.4027 N.3     1  UNL1       -0.2703
     28 C          -2.8433  -18.7833   19.3798 C.3     1  UNL1        0.0894
     29 C          -1.7589  -17.8412   19.8119 C.3     1  UNL1        0.0862
     30 N          -1.4212  -17.7030   21.2668 N.3     1  UNL1       -0.2951
     31 C          -2.1678  -18.5069   22.2897 C.3     1  UNL1        0.0862
     32 C          -3.2521  -19.4489   21.8577 C.3     1  UNL1        0.0894
     33 H          -1.5558  -16.7212   21.5084 H       1  UNL1        0.1233
@<TRIPOS>BOND
     1    13    14   ar
     2    14    15   ar
     3    15    16   ar
     4    16    17   ar
     5    17    18   ar
     6    17    19    1
     7    19    20    1
     8    20    21    1
     9    21    12    1
    10    12     1    1
    11     1    24    1
    12    24    25    1
    13    25    26    1
    14    26    27    1
    15    27    28    1
    16    28    29    1
    17    29    30    1
    18    30    31    1
    19    31    32    1
    20     2     1    1
    21     2     3    1
    22     3     4    1
    23     4     5    1
    24     5     6    1
    25     6     7   ar
    26     7     8   ar
    27     8     9   ar
    28     9    10   ar
    29    10    11   ar
    30    21    22    1
    31    18    13   ar
    32    32    27    1
    33    11     2    1
    34    22    16    1
    35    11     6   ar
    36    20    23    1
    37    30    33    1
@<TRIPOS>MOLECULE
*****
 33 37 0 0 0
SMALL
GASTEIGER

@<TRIPOS>ATOM
      1 N          -8.6757  -18.0802   21.3576 N.3     1  UNL1       -0.2679
      2 C         -10.1052  -17.6290   21.3031 C.3     1  UNL1        0.0978
      3 C         -10.6003  -16.8466   20.1229 C.3     1  UNL1        0.0224
      4 C         -12.0298  -16.3955   20.0684 C.3     1  UNL1        0.0065
      5 C         -12.9643  -16.7268   21.1941 C.3     1  UNL1        0.0277
      6 C         -12.4692  -17.5092   22.3742 C.ar    1  UNL1       -0.0073
      7 C         -13.4036  -17.8405   23.4998 C.ar    1  UNL1       -0.0015
      8 C         -12.9086  -18.6229   24.6799 C.ar    1  UNL1        0.0203
      9 C         -11.4791  -19.0741   24.7345 C.ar    1  UNL1        0.0985
     10 N         -10.5447  -18.7428   23.6089 N.ar    1  UNL1       -0.2471
     11 C         -11.0397  -17.9603   22.4287 C.ar    1  UNL1        0.0695
     12 C          -7.5745  -17.0694   21.4826 C.3     1  UNL1        0.0886
     13 C          -6.9426  -14.8375   27.9533 C.ar    1  UNL1       -0.0003
     14 C          -8.3945  -15.0626   27.6511 C.ar    1  UNL1       -0.0003
     15 C          -8.8112  -15.5540   26.2965 C.ar    1  UNL1       -0.0045
     16 C          -7.7761  -15.8203   25.2441 C.ar    1  UNL1       -0.0234
     17 C          -6.3243  -15.5952   25.5463 C.ar    1  UNL1       -0.0103
     18 C          -5.9075  -15.1038   26.9009 C.ar    1  UNL1       -0.0032
     19 C          -5.2890  -15.8614   24.4939 C.3     1  UNL1        0.0953
     20 N          -5.7058  -16.3528   23.1393 N.3     1  UNL1       -0.2934
     21 C          -7.1577  -16.5780   22.8372 C.3     1  UNL1        0.0748
     22 C          -8.1929  -16.3117   23.8896 C.3     1  UNL1        0.0432
     23 H          -5.2325  -17.2441   22.9910 H       1  UNL1        0.1236
     24 C          -8.3474  -19.5421   21.2871 C.3     1  UNL1        0.0738
     25 C          -7.0204  -20.0374   21.7805 C.3     1  UNL1        0.0347
     26 C          -5.9396  -20.3885   20.8014 C.3     1  UNL1        0.0736
     27 N          -4.6139  -19.6895   20.8651 N.3     1  UNL1       -0.2703
     28 C          -3.8668  -19.3819   19.6013 C.3     1  UNL1        0.0894
     29 C          -2.5411  -18.6829   19.6651 C.3     1  UNL1        0.0862
     30 N          -1.9626  -18.2916   20.9925 N.3     1  UNL1       -0.2951
     31 C          -2.7098  -18.5992   22.2563 C.3     1  UNL1        0.0862
     32 C          -4.0354  -19.2981   22.1926 C.3     1  UNL1        0.0894
     33 H          -1.8281  -17.2808   20.9686 H       1  UNL1        0.1233
@<TRIPOS>BOND
     1    13    14   ar
     2    14    15   ar
     3    15    16   ar
     4    16    17   ar
     5    17    18   ar
     6    17    19    1
     7    19    20    1
     8    20    21    1
     9    21    12    1
    10    12     1    1
    11     1    24    1
    12    24    25    1
    13    25    26    1
    14    26    27    1
    15    27    28    1
    16    28    29    1
    17    29    30    1
    18    30    31    1
    19    31    32    1
    20     2     1    1
    21     2     3    1
    22     3     4    1
    23     4     5    1
    24     5     6    1
    25     6     7   ar
    26     7     8   ar
    27     8     9   ar
    28     9    10   ar
    29    10    11   ar
    30    21    22    1
    31    18    13   ar
    32    32    27    1
    33    11     2    1
    34    22    16    1
    35    11     6   ar
    36    20    23    1
    37    30    33    1
@<TRIPOS>MOLECULE
*****
 33 37 0 0 0
SMALL
GASTEIGER

@<TRIPOS>ATOM
      1 N          -6.4980  -19.1072   22.1899 N.3     1  UNL1       -0.2679
      2 C          -5.2909  -19.3898   21.3455 C.3     1  UNL1        0.0978
      3 C          -5.2921  -20.5557   20.4017 C.3     1  UNL1        0.0224
      4 C          -4.0850  -20.8383   19.5572 C.3     1  UNL1        0.0065
      5 C          -2.8768  -19.9549   19.6565 C.3     1  UNL1        0.0277
      6 C          -2.8756  -18.7890   20.6002 C.ar    1  UNL1       -0.0073
      7 C          -1.6674  -17.9057   20.6995 C.ar    1  UNL1       -0.0015
      8 C          -1.6662  -16.7398   21.6432 C.ar    1  UNL1        0.0203
      9 C          -2.8732  -16.4572   22.4877 C.ar    1  UNL1        0.0985
     10 N          -4.0815  -17.3406   22.3884 N.ar    1  UNL1       -0.2471
     11 C          -4.0826  -18.5065   21.4447 C.ar    1  UNL1        0.0695
     12 C          -7.5591  -20.1545   22.3559 C.3     1  UNL1        0.0886
     13 C         -13.8905  -17.9911   23.9315 C.ar    1  UNL1       -0.0003
     14 C         -13.5956  -17.6468   22.5017 C.ar    1  UNL1       -0.0003
     15 C         -12.2703  -18.0106   21.9006 C.ar    1  UNL1       -0.0045
     16 C         -11.2400  -18.7187   22.7293 C.ar    1  UNL1       -0.0234
     17 C         -11.5349  -19.0630   24.1592 C.ar    1  UNL1       -0.0103
     18 C         -12.8601  -18.6992   24.7602 C.ar    1  UNL1       -0.0032
     19 C         -10.5045  -19.7711   24.9880 C.3     1  UNL1        0.0953
     20 N          -9.1792  -20.1350   24.3869 N.3     1  UNL1       -0.2934
     21 C          -8.8843  -19.7906   22.9570 C.3     1  UNL1        0.0748
     22 C          -9.9147  -19.0825   22.1283 C.3     1  UNL1        0.0432
     23 H          -9.0855  -21.1471   24.4714 H       1  UNL1        0.1236
     24 C          -6.6440  -17.7775   22.8685 C.3     1  UNL1        0.0738
     25 C          -7.5578  -16.7373   22.2914 C.3     1  UNL1        0.0347
     26 C          -7.7819  -15.4469   23.0226 C.3     1  UNL1        0.0736
     27 N          -7.4365  -15.3401   24.4784 N.3     1  UNL1       -0.2703
     28 C          -8.5149  -15.4503   25.5151 C.3     1  UNL1        0.0894
     29 C          -8.1696  -15.3434   26.9708 C.3     1  UNL1        0.0862
     30 N          -6.7457  -15.1264   27.3899 N.3     1  UNL1       -0.2951
     31 C          -5.6673  -15.0161   26.3532 C.3     1  UNL1        0.0862
     32 C          -6.0127  -15.1230   24.8975 C.3     1  UNL1        0.0894
     33 H          -6.4942  -15.9085   27.9944 H       1  UNL1        0.1233
@<TRIPOS>BOND
     1    13    14   ar
     2    14    15   ar
     3    15    16   ar
     4    16    17   ar
     5    17    18   ar
     6    17    19    1
     7    19    20    1
     8    20    21    1
     9    21    12    1
    10    12     1    1
    11     1    24    1
    12    24    25    1
    13    25    26    1
    14    26    27    1
    15    27    28    1
    16    28    29    1
    17    29    30    1
    18    30    31    1
    19    31    32    1
    20     2     1    1
    21     2     3    1
    22     3     4    1
    23     4     5    1
    24     5     6    1
    25     6     7   ar
    26     7     8   ar
    27     8     9   ar
    28     9    10   ar
    29    10    11   ar
    30    21    22    1
    31    18    13   ar
    32    32    27    1
    33    11     2    1
    34    22    16    1
    35    11     6   ar
    36    20    23    1
    37    30    33    1
@<TRIPOS>MOLECULE
*****
 33 37 0 0 0
SMALL
GASTEIGER

@<TRIPOS>ATOM
      1 N          -7.7695  -18.3122   22.4736 N.3     1  UNL1       -0.2679
      2 C          -9.1762  -18.5490   22.9372 C.3     1  UNL1        0.0978
      3 C          -9.4309  -19.3350   24.1892 C.3     1  UNL1        0.0224
      4 C         -10.8377  -19.5718   24.6528 C.3     1  UNL1        0.0065
      5 C         -11.9897  -19.0227   23.8645 C.3     1  UNL1        0.0277
      6 C         -11.7349  -18.2367   22.6126 C.ar    1  UNL1       -0.0073
      7 C         -12.8869  -17.6876   21.8243 C.ar    1  UNL1       -0.0015
      8 C         -12.6321  -16.9017   20.5724 C.ar    1  UNL1        0.0203
      9 C         -11.2254  -16.6648   20.1087 C.ar    1  UNL1        0.0985
     10 N         -10.0735  -17.2139   20.8970 N.ar    1  UNL1       -0.2471
     11 C         -10.3282  -17.9999   22.1489 C.ar    1  UNL1        0.0695
     12 C          -7.0042  -19.4157   21.8052 C.3     1  UNL1        0.0886
     13 C          -0.6253  -18.2519   19.5238 C.ar    1  UNL1       -0.0003
     14 C          -1.6074  -17.8380   18.4683 C.ar    1  UNL1       -0.0003
     15 C          -3.0796  -17.9879   18.7135 C.ar    1  UNL1       -0.0045
     16 C          -3.5697  -18.5518   20.0142 C.ar    1  UNL1       -0.0234
     17 C          -2.5876  -18.9658   21.0697 C.ar    1  UNL1       -0.0103
     18 C          -1.1154  -18.8158   20.8245 C.ar    1  UNL1       -0.0032
     19 C          -3.0777  -19.5297   22.3704 C.3     1  UNL1        0.0953
     20 N          -4.5499  -19.6797   22.6156 N.3     1  UNL1       -0.2934
     21 C          -5.5320  -19.2657   21.5600 C.3     1  UNL1        0.0748
     22 C          -5.0419  -18.7018   20.2594 C.3     1  UNL1        0.0432
     23 H          -4.7666  -19.1340   23.4497 H       1  UNL1        0.1236
     24 C          -7.1280  -16.9718   22.6782 C.3     1  UNL1        0.0738
     25 C          -7.9426  -15.7206   22.5341 C.3     1  UNL1        0.0347
     26 C          -8.0993  -14.7893   23.6995 C.3     1  UNL1        0.0736
     27 N          -7.6375  -15.2101   25.0632 N.3     1  UNL1       -0.2703
     28 C          -6.1825  -15.1325   25.4195 C.3     1  UNL1        0.0894
     29 C          -5.7209  -15.5533   26.7832 C.3     1  UNL1        0.0862
     30 N          -6.7141  -16.0517   27.7906 N.3     1  UNL1       -0.2951
     31 C          -8.1691  -16.1293   27.4344 C.3     1  UNL1        0.0862
     32 C          -8.6308  -15.7085   26.0707 C.3     1  UNL1        0.0894
     33 H          -6.6422  -15.4392   28.6030 H       1  UNL1        0.1233
@<TRIPOS>BOND
     1    13    14   ar
     2    14    15   ar
     3    15    16   ar
     4    16    17   ar
     5    17    18   ar
     6    17    19    1
     7    19    20    1
     8    20    21    1
     9    21    12    1
    10    12     1    1
    11     1    24    1
    12    24    25    1
    13    25    26    1
    14    26    27    1
    15    27    28    1
    16    28    29    1
    17    29    30    1
    18    30    31    1
    19    31    32    1
    20     2     1    1
    21     2     3    1
    22     3     4    1
    23     4     5    1
    24     5     6    1
    25     6     7   ar
    26     7     8   ar
    27     8     9   ar
    28     9    10   ar
    29    10    11   ar
    30    21    22    1
    31    18    13   ar
    32    32    27    1
    33    11     2    1
    34    22    16    1
    35    11     6   ar
    36    20    23    1
    37    30    33    1
@<TRIPOS>MOLECULE
*****
 33 37 0 0 0
SMALL
GASTEIGER

@<TRIPOS>ATOM
      1 N          -7.6031  -18.8103   21.9468 N.3     1  UNL1       -0.2679
      2 C          -8.9088  -18.9323   21.2185 C.3     1  UNL1        0.0978
      3 C          -8.9273  -19.3417   19.7756 C.3     1  UNL1        0.0224
      4 C         -10.2331  -19.4636   19.0473 C.3     1  UNL1        0.0065
      5 C         -11.5201  -19.1762   19.7620 C.3     1  UNL1        0.0277
      6 C         -11.5015  -18.7668   21.2050 C.ar    1  UNL1       -0.0073
      7 C         -12.7886  -18.4793   21.9196 C.ar    1  UNL1       -0.0015
      8 C         -12.7700  -18.0699   23.3626 C.ar    1  UNL1        0.0203
      9 C         -11.4644  -17.9480   24.0908 C.ar    1  UNL1        0.0985
     10 N         -10.1773  -18.2354   23.3761 N.ar    1  UNL1       -0.2471
     11 C         -10.1959  -18.6448   21.9332 C.ar    1  UNL1        0.0695
     12 C          -6.5657  -19.8853   21.8117 C.3     1  UNL1        0.0886
     13 C          -0.4228  -17.9151   19.4383 C.ar    1  UNL1       -0.0003
     14 C          -1.4386  -17.7809   18.3428 C.ar    1  UNL1       -0.0003
     15 C          -2.8703  -18.1482   18.5984 C.ar    1  UNL1       -0.0045
     16 C          -3.2863  -18.6495   19.9495 C.ar    1  UNL1       -0.0234
     17 C          -2.2705  -18.7836   21.0450 C.ar    1  UNL1       -0.0103
     18 C          -0.8388  -18.4164   20.7894 C.ar    1  UNL1       -0.0032
     19 C          -2.6865  -19.2850   22.3962 C.3     1  UNL1        0.0953
     20 N          -4.1182  -19.6522   22.6518 N.3     1  UNL1       -0.2934
     21 C          -5.1340  -19.5181   21.5562 C.3     1  UNL1        0.0748
     22 C          -4.7180  -19.0168   20.2050 C.3     1  UNL1        0.0432
     23 H          -4.4389  -19.0677   23.4238 H       1  UNL1        0.1236
     24 C          -7.3348  -17.6133   22.8100 C.3     1  UNL1        0.0738
     25 C          -7.5945  -16.2339   22.2813 C.3     1  UNL1        0.0347
     26 C          -7.9110  -15.1148   23.2286 C.3     1  UNL1        0.0736
     27 N          -7.5263  -15.2246   24.6744 N.3     1  UNL1       -0.2703
     28 C          -8.5858  -15.4041   25.7209 C.3     1  UNL1        0.0894
     29 C          -8.2011  -15.5139   27.1665 C.3     1  UNL1        0.0862
     30 N          -6.7569  -15.4441   27.5656 N.3     1  UNL1       -0.2951
     31 C          -5.6974  -15.2646   26.5191 C.3     1  UNL1        0.0862
     32 C          -6.0821  -15.1548   25.0735 C.3     1  UNL1        0.0894
     33 H          -6.5440  -16.3140   28.0540 H       1  UNL1        0.1233
@<TRIPOS>BOND
     1    13    14   ar
     2    14    15   ar
     3    15    16   ar
     4    16    17   ar
     5    17    18   ar
     6    17    19    1
     7    19    20    1
     8    20    21    1
     9    21    12    1
    10    12     1    1
    11     1    24    1
    12    24    25    1
    13    25    26    1
    14    26    27    1
    15    27    28    1
    16    28    29    1
    17    29    30    1
    18    30    31    1
    19    31    32    1
    20     2     1    1
    21     2     3    1
    22     3     4    1
    23     4     5    1
    24     5     6    1
    25     6     7   ar
    26     7     8   ar
    27     8     9   ar
    28     9    10   ar
    29    10    11   ar
    30    21    22    1
    31    18    13   ar
    32    32    27    1
    33    11     2    1
    34    22    16    1
    35    11     6   ar
    36    20    23    1
    37    30    33    1
@<TRIPOS>MOLECULE
*****
 33 37 0 0 0
SMALL
GASTEIGER

@<TRIPOS>ATOM
      1 N          -6.0442  -19.4214   21.5220 N.3     1  UNL1       -0.2679
      2 C          -5.3923  -18.5131   22.5221 C.3     1  UNL1        0.0978
      3 C          -4.0364  -18.8492   23.0684 C.3     1  UNL1        0.0224
      4 C          -3.3846  -17.9409   24.0685 C.3     1  UNL1        0.0065
      5 C          -4.0887  -16.6965   24.5222 C.3     1  UNL1        0.0277
      6 C          -5.4446  -16.3605   23.9758 C.ar    1  UNL1       -0.0073
      7 C          -6.1487  -15.1162   24.4295 C.ar    1  UNL1       -0.0015
      8 C          -7.5046  -14.7801   23.8832 C.ar    1  UNL1        0.0203
      9 C          -8.1565  -15.6883   22.8831 C.ar    1  UNL1        0.0985
     10 N          -7.4524  -16.9327   22.4294 N.ar    1  UNL1       -0.2471
     11 C          -6.0964  -17.2687   22.9758 C.ar    1  UNL1        0.0695
     12 C          -7.2265  -20.2530   21.9230 C.3     1  UNL1        0.0886
     13 C         -13.4966  -17.8285   23.3574 C.ar    1  UNL1       -0.0003
     14 C         -12.9236  -18.4668   24.5879 C.ar    1  UNL1       -0.0003
     15 C         -11.5549  -19.0793   24.5471 C.ar    1  UNL1       -0.0045
     16 C         -10.7593  -19.0536   23.2758 C.ar    1  UNL1       -0.0234
     17 C         -11.3323  -18.4154   22.0453 C.ar    1  UNL1       -0.0103
     18 C         -12.7009  -17.8028   22.0861 C.ar    1  UNL1       -0.0032
     19 C         -10.5367  -18.3896   20.7739 C.3     1  UNL1        0.0953
     20 N          -9.1681  -19.0022   20.7331 N.3     1  UNL1       -0.2934
     21 C          -8.5951  -19.6405   21.9637 C.3     1  UNL1        0.0748
     22 C          -9.3907  -19.6662   23.2351 C.3     1  UNL1        0.0432
     23 H          -8.5224  -18.2623   20.4573 H       1  UNL1        0.1236
     24 C          -5.5138  -19.4981   20.1210 C.3     1  UNL1        0.0738
     25 C          -4.1312  -20.0227   19.8701 C.3     1  UNL1        0.0347
     26 C          -3.1769  -19.2431   19.0149 C.3     1  UNL1        0.0736
     27 N          -2.2208  -18.2760   19.6479 N.3     1  UNL1       -0.2703
     28 C          -2.7387  -17.1744   20.5244 C.3     1  UNL1        0.0894
     29 C          -1.7826  -16.2074   21.1574 C.3     1  UNL1        0.0862
     30 N          -0.3087  -16.3419   20.9139 N.3     1  UNL1       -0.2951
     31 C           0.2092  -17.4434   20.0374 C.3     1  UNL1        0.0862
     32 C          -0.7468  -18.4105   19.4044 C.3     1  UNL1        0.0894
     33 H           0.1309  -16.4605   21.8266 H       1  UNL1        0.1233
@<TRIPOS>BOND
     1    13    14   ar
     2    14    15   ar
     3    15    16   ar
     4    16    17   ar
     5    17    18   ar
     6    17    19    1
     7    19    20    1
     8    20    21    1
     9    21    12    1
    10    12     1    1
    11     1    24    1
    12    24    25    1
    13    25    26    1
    14    26    27    1
    15    27    28    1
    16    28    29    1
    17    29    30    1
    18    30    31    1
    19    31    32    1
    20     2     1    1
    21     2     3    1
    22     3     4    1
    23     4     5    1
    24     5     6    1
    25     6     7   ar
    26     7     8   ar
    27     8     9   ar
    28     9    10   ar
    29    10    11   ar
    30    21    22    1
    31    18    13   ar
    32    32    27    1
    33    11     2    1
    34    22    16    1
    35    11     6   ar
    36    20    23    1
    37    30    33    1
