@<TRIPOS>MOLECULE
*****
 29 32 0 0 0
SMALL
GASTEIGER

@<TRIPOS>ATOM
      1 C          -7.6270  -18.4781   22.2977 C.3     1  UNL1        0.2026
      2 C          -8.4238  -18.8866   21.0942 C.ar    1  UNL1        0.0163
      3 C          -8.2414  -19.9932   20.0982 C.ar    1  UNL1        0.0104
      4 C          -9.2209  -20.1596   18.9744 C.ar    1  UNL1        0.0583
      5 CL         -9.0386  -21.2662   17.9783 Cl      1  UNL1       -0.0822
      6 C         -10.3827  -19.2194   18.8467 C.ar    1  UNL1        0.0224
      7 C         -10.5650  -18.1129   19.8428 C.ar    1  UNL1        0.0544
      8 CL        -11.7268  -17.1727   19.7151 Cl      1  UNL1       -0.0826
      9 C          -9.5856  -17.9464   20.9665 C.ar    1  UNL1       -0.0106
     10 C          -9.5068  -16.9569   22.0911 C.3     1  UNL1        0.0470
     11 C          -8.2964  -17.2855   22.9138 C.3     1  UNL1        0.1066
     12 N          -7.8362  -16.5505   24.1377 N.3     1  UNL1       -0.2682
     13 C          -8.5568  -16.4880   25.4518 C.3     1  UNL1        0.0748
     14 C          -7.7405  -15.6478   26.3887 C.3     1  UNL1        0.0480
     15 C          -6.5153  -15.1911   25.6537 C.3     1  UNL1        0.1278
     16 O          -5.4228  -14.3280   26.2118 O.3     1  UNL1       -0.3830
     17 C          -6.5744  -15.7489   24.2625 C.3     1  UNL1        0.1018
     18 H          -4.7479  -14.1801   25.5309 H       1  UNL1        0.2104
     19 O          -6.3799  -19.1451   22.7973 O.3     1  UNL1       -0.4734
     20 C          -2.3847  -18.0537   21.0374 C.ar    1  UNL1        0.1059
     21 C          -2.7266  -17.6373   22.4373 C.ar    1  UNL1        0.0215
     22 C          -4.0583  -18.0011   23.0240 C.ar    1  UNL1        0.0382
     23 C          -5.0482  -18.7813   22.2108 C.ar    1  UNL1        0.1390
     24 C          -4.7063  -19.1977   20.8108 C.ar    1  UNL1        0.0382
     25 C          -3.3746  -18.8340   20.2241 C.ar    1  UNL1        0.0215
     26 C           0.2787  -17.3262   19.8641 C.3     1  UNL1        0.1816
     27 S          -1.0530  -17.6899   20.4508 S.O2    1  UNL1        0.0105
     28 O          -0.8907  -19.0940   19.9483 O.2     1  UNL1       -0.1686
     29 O          -1.2152  -16.2859   20.9532 O.2     1  UNL1       -0.1686
@<TRIPOS>BOND
     1    26    27    1
     2    27    28    2
     3    27    29    2
     4    27    20    1
     5    20    21   ar
     6    21    22   ar
     7    22    23   ar
     8    23    19    1
     9     1    19    1
    10     1     2    1
    11     2     3   ar
    12     3     4   ar
    13     4     5    1
    14     4     6   ar
    15     6     7   ar
    16     7     8    1
    17     7     9   ar
    18     9    10    1
    19    10    11    1
    20    11    12    1
    21    12    13    1
    22    13    14    1
    23    14    15    1
    24    15    16    1
    25    15    17    1
    26    23    24   ar
    27    24    25   ar
    28    25    20   ar
    29    11     1    1
    30    17    12    1
    31     9     2   ar
    32    16    18    1
@<TRIPOS>MOLECULE
*****
 29 32 0 0 0
SMALL
GASTEIGER

@<TRIPOS>ATOM
      1 C          -7.8509  -19.1335   21.7542 C.3     1  UNL1        0.2026
      2 C          -8.3569  -18.0585   22.6698 C.ar    1  UNL1        0.0163
      3 C          -7.8294  -17.5108   23.9627 C.ar    1  UNL1        0.0104
      4 C          -8.5668  -16.4114   24.6680 C.ar    1  UNL1        0.0583
      5 CL         -8.0392  -15.8636   25.9610 Cl      1  UNL1       -0.0822
      6 C          -9.8317  -15.8596   24.0803 C.ar    1  UNL1        0.0224
      7 C         -10.3593  -16.4073   22.7873 C.ar    1  UNL1        0.0544
      8 CL        -11.6243  -15.8555   22.1997 Cl      1  UNL1       -0.0826
      9 C          -9.6219  -17.5067   22.0821 C.ar    1  UNL1       -0.0106
     10 C          -9.8976  -18.2407   20.8033 C.3     1  UNL1        0.0470
     11 C          -8.8030  -19.2461   20.6007 C.3     1  UNL1        0.1066
     12 N          -8.6818  -20.1971   19.4470 N.3     1  UNL1       -0.2682
     13 C          -7.6964  -21.3220   19.3314 C.3     1  UNL1        0.0748
     14 C          -7.9303  -22.0103   18.0193 C.3     1  UNL1        0.0480
     15 C          -9.0605  -21.3108   17.3240 C.3     1  UNL1        0.1278
     16 O          -9.6268  -21.6689   15.9820 O.3     1  UNL1       -0.3830
     17 C          -9.5249  -20.1902   18.2064 C.3     1  UNL1        0.1018
     18 H         -10.3497  -21.0603   15.7632 H       1  UNL1        0.2104
     19 O          -6.6103  -19.9521   21.9567 O.3     1  UNL1       -0.4734
     20 C          -2.5937  -18.2690   20.8237 C.ar    1  UNL1        0.1059
     21 C          -3.4343  -18.9621   19.7928 C.ar    1  UNL1        0.0215
     22 C          -4.7732  -19.5232   20.1704 C.ar    1  UNL1        0.0382
     23 C          -5.2715  -19.3911   21.5790 C.ar    1  UNL1        0.1390
     24 C          -4.4309  -18.6979   22.6100 C.ar    1  UNL1        0.0382
     25 C          -3.0920  -18.1368   22.2324 C.ar    1  UNL1        0.0215
     26 C           0.0840  -17.1468   20.0685 C.3     1  UNL1        0.1816
     27 S          -1.2548  -17.7079   20.4461 S.O2    1  UNL1        0.0105
     28 O          -0.8726  -19.0265   19.8418 O.2     1  UNL1       -0.1686
     29 O          -1.6370  -16.3893   21.0505 O.2     1  UNL1       -0.1686
@<TRIPOS>BOND
     1    26    27    1
     2    27    28    2
     3    27    29    2
     4    27    20    1
     5    20    21   ar
     6    21    22   ar
     7    22    23   ar
     8    23    19    1
     9     1    19    1
    10     1     2    1
    11     2     3   ar
    12     3     4   ar
    13     4     5    1
    14     4     6   ar
    15     6     7   ar
    16     7     8    1
    17     7     9   ar
    18     9    10    1
    19    10    11    1
    20    11    12    1
    21    12    13    1
    22    13    14    1
    23    14    15    1
    24    15    16    1
    25    15    17    1
    26    23    24   ar
    27    24    25   ar
    28    25    20   ar
    29    11     1    1
    30    17    12    1
    31     9     2   ar
    32    16    18    1
@<TRIPOS>MOLECULE
*****
 29 32 0 0 0
SMALL
GASTEIGER

@<TRIPOS>ATOM
      1 C           2.8119    0.1232   31.6115 C.3     1  UNL1        0.2026
      2 C           2.3377    1.4142   32.2104 C.ar    1  UNL1        0.0163
      3 C           1.1130    2.2446   31.9645 C.ar    1  UNL1        0.0104
      4 C           0.9031    3.5166   32.7312 C.ar    1  UNL1        0.0583
      5 CL         -0.3216    4.3471   32.4854 Cl      1  UNL1       -0.0822
      6 C           1.9180    3.9583   33.7436 C.ar    1  UNL1        0.0224
      7 C           3.1426    3.1278   33.9895 C.ar    1  UNL1        0.0544
      8 CL          4.1575    3.5695   35.0020 Cl      1  UNL1       -0.0826
      9 C           3.3525    1.8558   33.2228 C.ar    1  UNL1       -0.0106
     10 C           4.4538    0.8377   33.2497 C.3     1  UNL1        0.0470
     11 C           4.1197   -0.2331   32.2539 C.3     1  UNL1        0.1066
     12 N           4.9480   -1.4470   31.9532 N.3     1  UNL1       -0.2682
     13 C           5.7920   -1.6579   30.7313 C.3     1  UNL1        0.0748
     14 C           6.4433   -3.0043   30.8445 C.3     1  UNL1        0.0480
     15 C           6.0018   -3.6256   32.1364 C.3     1  UNL1        0.1278
     16 O           6.4124   -4.9729   32.6525 O.3     1  UNL1       -0.3830
     17 C           5.0776   -2.6631   32.8216 C.3     1  UNL1        0.1018
     18 H           5.9862   -5.1347   33.5088 H       1  UNL1        0.2104
     19 O           2.1026   -0.6719   30.5557 O.3     1  UNL1       -0.4734
     20 C           0.0647    1.4348   27.1412 C.ar    1  UNL1        0.1059
     21 C           1.5310    1.6402   27.3813 C.ar    1  UNL1        0.0215
     22 C           2.2104    0.9380   28.5194 C.ar    1  UNL1        0.0382
     23 C           1.4234    0.0303   29.4176 C.ar    1  UNL1        0.1390
     24 C          -0.0430   -0.1752   29.1775 C.ar    1  UNL1        0.0382
     25 C          -0.7224    0.5270   28.0394 C.ar    1  UNL1        0.0215
     26 C          -1.2940    2.8392   24.8650 C.3     1  UNL1        0.1816
     27 S          -0.6146    2.1370   26.0031 S.O2    1  UNL1        0.0105
     28 O          -1.2865    3.0617   26.9746 O.2     1  UNL1       -0.1686
     29 O           0.0572    1.2124   25.0316 O.2     1  UNL1       -0.1686
@<TRIPOS>BOND
     1    26    27    1
     2    27    28    2
     3    27    29    2
     4    27    20    1
     5    20    21   ar
     6    21    22   ar
     7    22    23   ar
     8    23    19    1
     9     1    19    1
    10     1     2    1
    11     2     3   ar
    12     3     4   ar
    13     4     5    1
    14     4     6   ar
    15     6     7   ar
    16     7     8    1
    17     7     9   ar
    18     9    10    1
    19    10    11    1
    20    11    12    1
    21    12    13    1
    22    13    14    1
    23    14    15    1
    24    15    16    1
    25    15    17    1
    26    23    24   ar
    27    24    25   ar
    28    25    20   ar
    29    11     1    1
    30    17    12    1
    31     9     2   ar
    32    16    18    1
