@<TRIPOS>MOLECULE
*****
 24 25 0 0 0
SMALL
GASTEIGER

@<TRIPOS>ATOM
      1 N           1.1219    1.4068   29.5693 N.3     1  UNL1       -0.2711
      2 C           1.8183    0.1320   29.1954 C.3     1  UNL1        0.0939
      3 C           2.6994   -0.5614   30.1918 C.3     1  UNL1        0.1123
      4 N           2.8841    0.0200   31.5621 N.am    1  UNL1       -0.2612
      5 C           3.7652   -0.6735   32.5585 C.2     1  UNL1        0.3072
      6 O           4.4616   -1.9483   32.1846 O.2     1  UNL1       -0.2523
      7 N           3.9500   -0.0921   33.9289 N.am    1  UNL1       -0.2640
      8 C           3.2536    1.1828   34.3028 C.3     1  UNL1        0.0955
      9 C           3.4383    1.7642   35.6731 C.3     1  UNL1        0.0327
     10 C           4.3194    1.0708   36.6695 C.3     1  UNL1        0.1025
     11 C           5.0158   -0.2040   36.2956 C.3     1  UNL1        0.0327
     12 C           4.8311   -0.7855   34.9253 C.3     1  UNL1        0.0955
     13 C           2.1878    1.2948   31.9360 C.3     1  UNL1        0.1123
     14 C           1.3067    1.9882   30.9396 C.3     1  UNL1        0.0939
     15 C           0.5036    3.5310   28.2072 C.3     1  UNL1        0.0173
     16 C           0.2408    2.1002   28.5729 C.3     1  UNL1        0.0577
     17 C          -0.9030    1.3628   27.9422 C.3     1  UNL1        0.0173
     18 C           4.5041    1.6523   38.0399 C.2     1  UNL1        0.3163
     19 O           5.6441    2.5891   38.3097 O.2     1  UNL1       -0.2501
     20 O           3.5489    1.2969   39.1404 O.3     1  UNL1       -0.4558
     21 C           2.1393    1.8084   39.1042 C.3     1  UNL1        0.1363
     22 C           2.6514    3.2179   39.0753 C.3     1  UNL1        0.0437
     23 C           1.6271    0.3989   39.1331 C.3     1  UNL1        0.0437
     24 C           0.7296    2.3200   39.0680 C.3     1  UNL1        0.0437
@<TRIPOS>BOND
     1    15    16    1
     2    16    17    1
     3    16     1    1
     4     1     2    1
     5     2     3    1
     6     3     4    1
     7     4     5   am
     8     5     6    2
     9     5     7   am
    10     7     8    1
    11     8     9    1
    12     9    10    1
    13    10    18    1
    14    18    19    2
    15    18    20    1
    16    20    21    1
    17    21    22    1
    18    21    23    1
    19    21    24    1
    20    10    11    1
    21    11    12    1
    22     4    13    1
    23    13    14    1
    24    14     1    1
    25    12     7    1
@<TRIPOS>MOLECULE
*****
 24 25 0 0 0
SMALL
GASTEIGER

@<TRIPOS>ATOM
      1 N           6.4111   -3.4806   31.3963 N.3     1  UNL1       -0.2711
      2 C           6.9096   -4.8560   31.7277 C.3     1  UNL1        0.0939
      3 C           7.3334   -5.7851   30.6290 C.3     1  UNL1        0.1123
      4 N           7.2587   -5.3389   29.1989 N.am    1  UNL1       -0.2612
      5 C           7.6824   -6.2680   28.1001 C.2     1  UNL1        0.3072
      6 O           8.1809   -7.6434   28.4315 O.2     1  UNL1       -0.2523
      7 N           7.6077   -5.8218   26.6700 N.am    1  UNL1       -0.2640
      8 C           7.1092   -4.4463   26.3386 C.3     1  UNL1        0.0955
      9 C           7.0345   -4.0001   24.9085 C.3     1  UNL1        0.0327
     10 C           7.4583   -4.9292   23.8098 C.3     1  UNL1        0.1025
     11 C           7.9567   -6.3046   24.1412 C.3     1  UNL1        0.0327
     12 C           8.0315   -6.7509   25.5713 C.3     1  UNL1        0.0955
     13 C           6.7602   -3.9635   28.8675 C.3     1  UNL1        0.1123
     14 C           6.3364   -3.0344   29.9662 C.3     1  UNL1        0.0939
     15 C           4.6540   -2.7326   33.1578 C.3     1  UNL1        0.0173
     16 C           5.9874   -2.5515   32.4950 C.3     1  UNL1        0.0577
     17 C           6.8970   -1.4414   32.9309 C.3     1  UNL1        0.0173
     18 C           7.3836   -4.4829   22.3796 C.2     1  UNL1        0.3163
     19 O           8.0166   -5.3115   21.3013 O.2     1  UNL1       -0.2501
     20 O           6.6758   -3.2080   22.0278 O.3     1  UNL1       -0.4558
     21 C           5.5735   -3.2183   21.0106 C.3     1  UNL1        0.1363
     22 C           6.5129   -2.6534   19.9868 C.3     1  UNL1        0.0437
     23 C           4.6340   -3.7832   22.0345 C.3     1  UNL1        0.0437
     24 C           4.4711   -3.2286   19.9934 C.3     1  UNL1        0.0437
@<TRIPOS>BOND
     1    15    16    1
     2    16    17    1
     3    16     1    1
     4     1     2    1
     5     2     3    1
     6     3     4    1
     7     4     5   am
     8     5     6    2
     9     5     7   am
    10     7     8    1
    11     8     9    1
    12     9    10    1
    13    10    18    1
    14    18    19    2
    15    18    20    1
    16    20    21    1
    17    21    22    1
    18    21    23    1
    19    21    24    1
    20    10    11    1
    21    11    12    1
    22     4    13    1
    23    13    14    1
    24    14     1    1
    25    12     7    1
@<TRIPOS>MOLECULE
*****
 24 25 0 0 0
SMALL
GASTEIGER

@<TRIPOS>ATOM
      1 N         -11.6285   -5.7854   18.7175 N.3     1  UNL1       -0.2711
      2 C         -12.6037   -6.9238   18.7706 C.3     1  UNL1        0.0939
      3 C         -14.0545   -6.6566   19.0420 C.3     1  UNL1        0.1123
      4 N         -14.5302   -5.2509   19.2603 N.am    1  UNL1       -0.2612
      5 C         -15.9810   -4.9836   19.5317 C.2     1  UNL1        0.3072
      6 O         -16.9562   -6.1220   19.5848 O.2     1  UNL1       -0.2523
      7 N         -16.4566   -3.5779   19.7500 N.am    1  UNL1       -0.2640
      8 C         -15.4814   -2.4393   19.6969 C.3     1  UNL1        0.0955
      9 C         -15.9570   -1.0336   19.9152 C.3     1  UNL1        0.0327
     10 C         -17.4079   -0.7664   20.1866 C.3     1  UNL1        0.1025
     11 C         -18.3831   -1.9048   20.2397 C.3     1  UNL1        0.0327
     12 C         -17.9075   -3.3106   20.0214 C.3     1  UNL1        0.0955
     13 C         -13.5550   -4.1124   19.2072 C.3     1  UNL1        0.1123
     14 C         -12.1041   -4.3797   18.9358 C.3     1  UNL1        0.0939
     15 C          -9.5374   -7.3080   18.9600 C.3     1  UNL1        0.0173
     16 C         -10.1776   -6.0526   18.4461 C.3     1  UNL1        0.0577
     17 C          -9.3671   -5.0645   17.6608 C.3     1  UNL1        0.0173
     18 C         -17.8835    0.6394   20.4049 C.2     1  UNL1        0.3163
     19 O         -17.5893    1.6978   19.3835 O.2     1  UNL1       -0.2501
     20 O         -18.6532    0.9868   21.6446 O.3     1  UNL1       -0.4558
     21 C         -18.6569    2.3974   22.1545 C.3     1  UNL1        0.1363
     22 C         -17.3177    2.1709   22.7909 C.3     1  UNL1        0.0437
     23 C         -19.9962    2.6239   21.5181 C.3     1  UNL1        0.0437
     24 C         -18.6605    3.8081   22.6645 C.3     1  UNL1        0.0437
@<TRIPOS>BOND
     1    15    16    1
     2    16    17    1
     3    16     1    1
     4     1     2    1
     5     2     3    1
     6     3     4    1
     7     4     5   am
     8     5     6    2
     9     5     7   am
    10     7     8    1
    11     8     9    1
    12     9    10    1
    13    10    18    1
    14    18    19    2
    15    18    20    1
    16    20    21    1
    17    21    22    1
    18    21    23    1
    19    21    24    1
    20    10    11    1
    21    11    12    1
    22     4    13    1
    23    13    14    1
    24    14     1    1
    25    12     7    1
@<TRIPOS>MOLECULE
*****
 24 25 0 0 0
SMALL
GASTEIGER

@<TRIPOS>ATOM
      1 N         -11.7776   -6.4294   18.8427 N.3     1  UNL1       -0.2711
      2 C         -12.3907   -7.6662   18.2559 C.3     1  UNL1        0.0939
      3 C         -13.8827   -7.7966   18.1722 C.3     1  UNL1        0.1123
      4 N         -14.7616   -6.6901   18.6752 N.am    1  UNL1       -0.2612
      5 C         -16.2536   -6.8204   18.5914 C.2     1  UNL1        0.3072
      6 O         -16.8666   -8.0573   18.0047 O.2     1  UNL1       -0.2523
      7 N         -17.1325   -5.7139   19.0945 N.am    1  UNL1       -0.2640
      8 C         -16.5195   -4.4770   19.6813 C.3     1  UNL1        0.0955
      9 C         -17.3984   -3.3705   20.1843 C.3     1  UNL1        0.0327
     10 C         -18.8904   -3.5009   20.1006 C.3     1  UNL1        0.1025
     11 C         -19.5034   -4.7377   19.5138 C.3     1  UNL1        0.0327
     12 C         -18.6245   -5.8443   19.0107 C.3     1  UNL1        0.0955
     13 C         -14.1486   -5.4533   19.2620 C.3     1  UNL1        0.1123
     14 C         -12.6566   -5.3229   19.3458 C.3     1  UNL1        0.0939
     15 C          -9.4210   -7.5229   18.8595 C.3     1  UNL1        0.0173
     16 C         -10.2857   -6.2991   18.9265 C.3     1  UNL1        0.0577
     17 C          -9.6584   -4.9449   19.0772 C.3     1  UNL1        0.0173
     18 C         -19.7693   -2.3943   20.6037 C.2     1  UNL1        0.3163
     19 O         -20.1957   -2.3700   22.0416 O.2     1  UNL1       -0.2501
     20 O         -20.2219   -1.3121   19.6688 O.3     1  UNL1       -0.4558
     21 C         -19.2098   -0.4647   18.9564 C.3     1  UNL1        0.1363
     22 C         -18.8024    0.1477   20.2637 C.3     1  UNL1        0.0437
     23 C         -19.6172   -1.0772   17.6492 C.3     1  UNL1        0.0437
     24 C         -18.1975    0.3827   18.2440 C.3     1  UNL1        0.0437
@<TRIPOS>BOND
     1    15    16    1
     2    16    17    1
     3    16     1    1
     4     1     2    1
     5     2     3    1
     6     3     4    1
     7     4     5   am
     8     5     6    2
     9     5     7   am
    10     7     8    1
    11     8     9    1
    12     9    10    1
    13    10    18    1
    14    18    19    2
    15    18    20    1
    16    20    21    1
    17    21    22    1
    18    21    23    1
    19    21    24    1
    20    10    11    1
    21    11    12    1
    22     4    13    1
    23    13    14    1
    24    14     1    1
    25    12     7    1
@<TRIPOS>MOLECULE
*****
 24 25 0 0 0
SMALL
GASTEIGER

@<TRIPOS>ATOM
      1 N           2.5169   -0.3249   19.4674 N.3     1  UNL1       -0.2711
      2 C           3.4071   -0.3407   18.2602 C.3     1  UNL1        0.0939
      3 C           4.7156   -1.0728   18.3028 C.3     1  UNL1        0.1123
      4 N           5.1340   -1.7890   19.5525 N.am    1  UNL1       -0.2612
      5 C           6.4425   -2.5211   19.5951 C.2     1  UNL1        0.3072
      6 O           7.3327   -2.5369   18.3879 O.2     1  UNL1       -0.2523
      7 N           6.8609   -3.2374   20.8448 N.am    1  UNL1       -0.2640
      8 C           5.9707   -3.2216   22.0521 C.3     1  UNL1        0.0955
      9 C           6.3890   -3.9379   23.3018 C.3     1  UNL1        0.0327
     10 C           7.6975   -4.6700   23.3444 C.3     1  UNL1        0.1025
     11 C           8.5877   -4.6858   22.1372 C.3     1  UNL1        0.0327
     12 C           8.1694   -3.9694   20.8874 C.3     1  UNL1        0.0955
     13 C           4.2438   -1.7732   20.7597 C.3     1  UNL1        0.1123
     14 C           2.9353   -1.0412   20.7171 C.3     1  UNL1        0.0939
     15 C           0.9241    1.3710   18.3112 C.3     1  UNL1        0.0173
     16 C           1.2084    0.4072   19.4248 C.3     1  UNL1        0.0577
     17 C           0.1841    0.1754   20.4958 C.3     1  UNL1        0.0173
     18 C           8.1159   -5.3863   24.5942 C.2     1  UNL1        0.3163
     19 O           8.9599   -4.6825   25.6152 O.2     1  UNL1       -0.2501
     20 O           7.6901   -6.8062   24.8231 O.3     1  UNL1       -0.4558
     21 C           8.5194   -7.7075   25.6890 C.3     1  UNL1        0.1363
     22 C           7.5149   -7.5696   26.7945 C.3     1  UNL1        0.0437
     23 C           9.5238   -7.8454   24.5836 C.3     1  UNL1        0.0437
     24 C           9.3487   -8.6089   26.5551 C.3     1  UNL1        0.0437
@<TRIPOS>BOND
     1    15    16    1
     2    16    17    1
     3    16     1    1
     4     1     2    1
     5     2     3    1
     6     3     4    1
     7     4     5   am
     8     5     6    2
     9     5     7   am
    10     7     8    1
    11     8     9    1
    12     9    10    1
    13    10    18    1
    14    18    19    2
    15    18    20    1
    16    20    21    1
    17    21    22    1
    18    21    23    1
    19    21    24    1
    20    10    11    1
    21    11    12    1
    22     4    13    1
    23    13    14    1
    24    14     1    1
    25    12     7    1
@<TRIPOS>MOLECULE
*****
 24 25 0 0 0
SMALL
GASTEIGER

@<TRIPOS>ATOM
      1 N           6.4559   -2.7611   26.9841 N.3     1  UNL1       -0.2711
      2 C           7.1822   -3.8306   26.2234 C.3     1  UNL1        0.0939
      3 C           6.8603   -4.0736   24.7787 C.3     1  UNL1        0.1123
      4 N           5.8121   -3.2470   24.0946 N.am    1  UNL1       -0.2612
      5 C           5.4902   -3.4899   22.6498 C.2     1  UNL1        0.3072
      6 O           6.2164   -4.5594   21.8891 O.2     1  UNL1       -0.2523
      7 N           4.4420   -2.6633   21.9657 N.am    1  UNL1       -0.2640
      8 C           3.7157   -1.5937   22.7264 C.3     1  UNL1        0.0955
      9 C           2.6676   -0.7671   22.0422 C.3     1  UNL1        0.0327
     10 C           2.3456   -1.0100   20.5975 C.3     1  UNL1        0.1025
     11 C           3.0719   -2.0795   19.8368 C.3     1  UNL1        0.0327
     12 C           4.1201   -2.9062   20.5209 C.3     1  UNL1        0.0955
     13 C           5.0858   -2.1775   24.8552 C.3     1  UNL1        0.1123
     14 C           5.4078   -1.9345   26.3000 C.3     1  UNL1        0.0939
     15 C           6.3604   -1.2355   29.0849 C.3     1  UNL1        0.0173
     16 C           6.7778   -2.5182   28.4289 C.3     1  UNL1        0.0577
     17 C           7.5172   -3.5580   29.2176 C.3     1  UNL1        0.0173
     18 C           1.2974   -0.1833   19.9134 C.2     1  UNL1        0.3163
     19 O          -0.0420    0.0137   20.5593 O.2     1  UNL1       -0.2501
     20 O           1.5886    0.4462   18.5834 O.3     1  UNL1       -0.4558
     21 C           2.7250    1.4153   18.4451 C.3     1  UNL1        0.1363
     22 C           3.4833    0.4100   17.6302 C.3     1  UNL1        0.0437
     23 C           1.9668    2.4207   19.2601 C.3     1  UNL1        0.0437
     24 C           3.8616    2.3845   18.3069 C.3     1  UNL1        0.0437
@<TRIPOS>BOND
     1    15    16    1
     2    16    17    1
     3    16     1    1
     4     1     2    1
     5     2     3    1
     6     3     4    1
     7     4     5   am
     8     5     6    2
     9     5     7   am
    10     7     8    1
    11     8     9    1
    12     9    10    1
    13    10    18    1
    14    18    19    2
    15    18    20    1
    16    20    21    1
    17    21    22    1
    18    21    23    1
    19    21    24    1
    20    10    11    1
    21    11    12    1
    22     4    13    1
    23    13    14    1
    24    14     1    1
    25    12     7    1
@<TRIPOS>MOLECULE
*****
 24 25 0 0 0
SMALL
GASTEIGER

@<TRIPOS>ATOM
      1 N           3.6541   -0.4699   27.5716 N.3     1  UNL1       -0.2711
      2 C           2.6134    0.5842   27.3358 C.3     1  UNL1        0.0939
      3 C           2.1032    0.8374   25.9482 C.3     1  UNL1        0.1123
      4 N           2.6337    0.0364   24.7963 N.am    1  UNL1       -0.2612
      5 C           2.1235    0.2896   23.4086 C.2     1  UNL1        0.3072
      6 O           1.0828    1.3438   23.1729 O.2     1  UNL1       -0.2523
      7 N           2.6540   -0.5114   22.2567 N.am    1  UNL1       -0.2640
      8 C           3.6947   -1.5656   22.4924 C.3     1  UNL1        0.0955
      9 C           4.2252   -2.3666   21.3405 C.3     1  UNL1        0.0327
     10 C           3.7150   -2.1135   19.9528 C.3     1  UNL1        0.1025
     11 C           2.6743   -1.0593   19.7171 C.3     1  UNL1        0.0327
     12 C           2.1438   -0.2582   20.8690 C.3     1  UNL1        0.0955
     13 C           3.6744   -1.0178   25.0320 C.3     1  UNL1        0.1123
     14 C           4.1846   -1.2710   26.4197 C.3     1  UNL1        0.0939
     15 C           3.2352   -0.6131   30.1316 C.3     1  UNL1        0.0173
     16 C           4.1643   -0.7231   28.9592 C.3     1  UNL1        0.0577
     17 C           5.6036   -1.0864   29.1745 C.3     1  UNL1        0.0173
     18 C           4.2455   -2.9145   18.8009 C.2     1  UNL1        0.3163
     19 O           4.1982   -4.4131   18.8447 O.2     1  UNL1       -0.2501
     20 O           4.8233   -2.2170   17.6053 O.3     1  UNL1       -0.4558
     21 C           5.9389   -1.2297   17.7796 C.3     1  UNL1        0.1363
     22 C           5.0758   -0.1512   17.1950 C.3     1  UNL1        0.0437
     23 C           6.8020   -2.3082   18.3642 C.3     1  UNL1        0.0437
     24 C           7.0547   -0.2423   17.9539 C.3     1  UNL1        0.0437
@<TRIPOS>BOND
     1    15    16    1
     2    16    17    1
     3    16     1    1
     4     1     2    1
     5     2     3    1
     6     3     4    1
     7     4     5   am
     8     5     6    2
     9     5     7   am
    10     7     8    1
    11     8     9    1
    12     9    10    1
    13    10    18    1
    14    18    19    2
    15    18    20    1
    16    20    21    1
    17    21    22    1
    18    21    23    1
    19    21    24    1
    20    10    11    1
    21    11    12    1
    22     4    13    1
    23    13    14    1
    24    14     1    1
    25    12     7    1
@<TRIPOS>MOLECULE
*****
 24 25 0 0 0
SMALL
GASTEIGER

@<TRIPOS>ATOM
      1 N           4.0621   -1.5202   18.9884 N.3     1  UNL1       -0.2711
      2 C           3.5319   -0.5402   17.9842 C.3     1  UNL1        0.0939
      3 C           2.5715    0.5288   18.4143 C.3     1  UNL1        0.1123
      4 N           2.1413    0.6178   19.8485 N.am    1  UNL1       -0.2612
      5 C           1.1810    1.6868   20.2785 C.2     1  UNL1        0.3072
      6 O           0.6507    2.6668   19.2744 O.2     1  UNL1       -0.2523
      7 N           0.7508    1.7757   21.7127 N.am    1  UNL1       -0.2640
      8 C           1.2810    0.7957   22.7170 C.3     1  UNL1        0.0955
      9 C           0.8509    0.8847   24.1512 C.3     1  UNL1        0.0327
     10 C          -0.1095    1.9537   24.5812 C.3     1  UNL1        0.1025
     11 C          -0.6397    2.9337   23.5771 C.3     1  UNL1        0.0327
     12 C          -0.2096    2.8447   22.1428 C.3     1  UNL1        0.0955
     13 C           2.6716   -0.3622   20.8526 C.3     1  UNL1        0.1123
     14 C           3.6320   -1.4312   20.4226 C.3     1  UNL1        0.0939
     15 C           6.3873   -2.2153   18.0610 C.3     1  UNL1        0.0173
     16 C           5.0225   -2.5892   18.5584 C.3     1  UNL1        0.0577
     17 C           4.6180   -4.0320   18.6257 C.3     1  UNL1        0.0173
     18 C          -0.5397    2.0426   26.0155 C.2     1  UNL1        0.3163
     19 O          -1.2310    3.2761   26.5160 O.2     1  UNL1       -0.2501
     20 O          -0.2784    0.8981   26.9492 O.3     1  UNL1       -0.4558
     21 C          -0.0246    1.1601   28.4042 C.3     1  UNL1        0.1363
     22 C           1.2883    1.7988   28.0602 C.3     1  UNL1        0.0437
     23 C          -1.3376    0.5215   28.7482 C.3     1  UNL1        0.0437
     24 C           0.2292    1.4222   29.8592 C.3     1  UNL1        0.0437
@<TRIPOS>BOND
     1    15    16    1
     2    16    17    1
     3    16     1    1
     4     1     2    1
     5     2     3    1
     6     3     4    1
     7     4     5   am
     8     5     6    2
     9     5     7   am
    10     7     8    1
    11     8     9    1
    12     9    10    1
    13    10    18    1
    14    18    19    2
    15    18    20    1
    16    20    21    1
    17    21    22    1
    18    21    23    1
    19    21    24    1
    20    10    11    1
    21    11    12    1
    22     4    13    1
    23    13    14    1
    24    14     1    1
    25    12     7    1
@<TRIPOS>MOLECULE
*****
 24 25 0 0 0
SMALL
GASTEIGER

@<TRIPOS>ATOM
      1 N           4.7060   -2.3138   19.2979 N.3     1  UNL1       -0.2711
      2 C           5.5328   -1.3331   18.5203 C.3     1  UNL1        0.0939
      3 C           5.0446    0.0718   18.3261 C.3     1  UNL1        0.1123
      4 N           3.7295    0.4962   18.9096 N.am    1  UNL1       -0.2612
      5 C           3.2413    1.9012   18.7154 C.2     1  UNL1        0.3072
      6 O           4.0681    2.8818   17.9378 O.2     1  UNL1       -0.2523
      7 N           1.9262    2.3255   19.2989 N.am    1  UNL1       -0.2640
      8 C           1.0993    1.3449   20.0765 C.3     1  UNL1        0.0955
      9 C          -0.2158    1.7693   20.6599 C.3     1  UNL1        0.0327
     10 C          -0.7040    3.1742   20.4658 C.3     1  UNL1        0.1025
     11 C           0.1228    4.1548   19.6882 C.3     1  UNL1        0.0327
     12 C           1.4380    3.7305   19.1047 C.3     1  UNL1        0.0955
     13 C           2.9027   -0.4844   19.6872 C.3     1  UNL1        0.1123
     14 C           3.3909   -1.8894   19.8813 C.3     1  UNL1        0.0939
     15 C           4.4950   -4.8567   18.8095 C.3     1  UNL1        0.0173
     16 C           5.1942   -3.7187   19.4921 C.3     1  UNL1        0.0577
     17 C           6.3816   -3.9857   20.3688 C.3     1  UNL1        0.0173
     18 C          -2.0192    3.5986   21.0493 C.2     1  UNL1        0.3163
     19 O          -2.1206    4.8859   21.8125 O.2     1  UNL1       -0.2501
     20 O          -3.2328    2.7356   20.8695 O.3     1  UNL1       -0.4558
     21 C          -4.5820    3.3665   20.6922 C.3     1  UNL1        0.1363
     22 C          -4.2581    3.6556   19.2564 C.3     1  UNL1        0.0437
     23 C          -4.9059    3.0775   22.1280 C.3     1  UNL1        0.0437
     24 C          -5.9313    3.9975   20.5148 C.3     1  UNL1        0.0437
@<TRIPOS>BOND
     1    15    16    1
     2    16    17    1
     3    16     1    1
     4     1     2    1
     5     2     3    1
     6     3     4    1
     7     4     5   am
     8     5     6    2
     9     5     7   am
    10     7     8    1
    11     8     9    1
    12     9    10    1
    13    10    18    1
    14    18    19    2
    15    18    20    1
    16    20    21    1
    17    21    22    1
    18    21    23    1
    19    21    24    1
    20    10    11    1
    21    11    12    1
    22     4    13    1
    23    13    14    1
    24    14     1    1
    25    12     7    1
