@<TRIPOS>MOLECULE
*****
 37 40 0 0 0
SMALL
GASTEIGER

@<TRIPOS>ATOM
      1 C           4.9008   -3.2079   22.5318 C.ar    1  UNL1        0.0611
      2 C           5.8787   -3.7741   23.5183 C.ar    1  UNL1        0.1037
      3 N           5.7756   -2.9752   24.7837 N.ar    1  UNL1       -0.2269
      4 C           4.7340   -1.9154   24.5793 C.ar    1  UNL1        0.1407
      5 N           4.2080   -0.8380   25.4806 N.ar    1  UNL1       -0.3374
      6 C           3.1413    0.0956   24.9902 C.ar    1  UNL1        0.0735
      7 C           2.6007   -0.0482   23.5985 C.ar    1  UNL1        0.0201
      8 C           3.1266   -1.1256   22.6971 C.ar    1  UNL1        0.0047
      9 C           4.1933   -2.0592   23.1875 C.ar    1  UNL1        0.0386
     10 H           4.5629   -0.7436   26.3941 H       1  UNL1        0.1674
     11 C           1.5339    0.8855   23.1081 C.ar    1  UNL1        0.0399
     12 C           1.1186    2.0570   23.9478 C.ar    1  UNL1        0.1034
     13 N           0.0518    2.9906   23.4574 N.ar    1  UNL1       -0.2121
     14 C          -0.5995    2.7528   22.1273 C.ar    1  UNL1        0.2203
     15 N          -0.1840    1.5813   21.2876 N.ar    1  UNL1       -0.2121
     16 C           0.8826    0.6477   21.7780 C.ar    1  UNL1        0.1034
     17 N          -1.6661    3.6864   21.6369 N.pl3   1  UNL1       -0.2747
     18 C          -1.8879    5.0001   22.3262 C.3     1  UNL1        0.1151
     19 C          -2.5110    3.3064   20.4572 C.3     1  UNL1        0.1151
     20 C           4.6707   -3.7034   21.1348 C.2     1  UNL1        0.2015
     21 O           4.0648   -5.0568   20.9094 O.2     1  UNL1       -0.2864
     22 C           4.3889   -1.1223   18.1334 C.ar    1  UNL1        0.0920
     23 C           5.7983   -1.1294   17.6201 C.ar    1  UNL1        0.0204
     24 C           6.8319   -1.9945   18.2784 C.ar    1  UNL1        0.0312
     25 C           6.4561   -2.8525   19.4500 C.ar    1  UNL1        0.1454
     26 F           7.4896   -3.7176   20.1083 F       1  UNL1       -0.2040
     27 C           5.0466   -2.8454   19.9632 C.ar    1  UNL1        0.0951
     28 C           4.0131   -1.9803   19.3049 C.ar    1  UNL1        0.1598
     29 F           2.6036   -1.9732   19.8182 F       1  UNL1       -0.2026
     30 N           3.3553   -0.2572   17.4751 N.pl3   1  UNL1       -0.2166
     31 H           2.9995   -0.5020   16.5904 H       1  UNL1        0.1734
     32 S           2.8639    0.9809   18.1647 S.O2    1  UNL1        0.0540
     33 O           4.2506    1.5517   18.1281 O.2     1  UNL1       -0.1545
     34 O           1.4772    0.4101   18.2013 O.2     1  UNL1       -0.1545
     35 C           2.3724    2.2189   18.8544 C.3     1  UNL1        0.1724
     36 C           2.6434    3.9254   20.7947 C.3     1  UNL1        0.0019
     37 C           3.2380    2.9064   19.8684 C.3     1  UNL1        0.0273
@<TRIPOS>BOND
     1    36    37    1
     2    37    35    1
     3    35    32    1
     4    32    33    2
     5    32    34    2
     6    32    30    1
     7    30    22    1
     8    22    23   ar
     9    23    24   ar
    10    24    25   ar
    11    25    26    1
    12    25    27   ar
    13    27    20    1
    14    20    21    2
    15    20     1    1
    16     1     2   ar
    17     2     3   ar
    18     3     4   ar
    19     4     5   ar
    20     5     6   ar
    21     6     7   ar
    22     7    11    1
    23    11    12   ar
    24    12    13   ar
    25    13    14   ar
    26    14    17    1
    27    17    18    1
    28    17    19    1
    29    14    15   ar
    30    15    16   ar
    31     7     8   ar
    32     8     9   ar
    33    27    28   ar
    34    28    29    1
    35    28    22   ar
    36     9     1   ar
    37     9     4    1
    38    16    11   ar
    39    30    31    1
    40     5    10    1
@<TRIPOS>MOLECULE
*****
 37 40 0 0 0
SMALL
GASTEIGER

@<TRIPOS>ATOM
      1 C           1.2626    0.8340   22.5482 C.ar    1  UNL1        0.0611
      2 C           0.4764    1.8133   23.3686 C.ar    1  UNL1        0.1037
      3 N           0.9466    1.7106   24.7893 N.ar    1  UNL1       -0.2269
      4 C           2.0234    0.6678   24.8469 C.ar    1  UNL1        0.1407
      5 N           2.8513    0.1417   25.9817 N.ar    1  UNL1       -0.3374
      6 C           3.8744   -0.9262   25.7313 C.ar    1  UNL1        0.0735
      7 C           4.0697   -1.4680   24.3463 C.ar    1  UNL1        0.0201
      8 C           3.2418   -0.9418   23.2115 C.ar    1  UNL1        0.0047
      9 C           2.2187    0.1261   23.4619 C.ar    1  UNL1        0.0386
     10 H           2.7231    0.4972   26.8907 H       1  UNL1        0.1674
     11 C           5.0929   -2.5359   24.0960 C.ar    1  UNL1        0.0399
     12 C           5.0328   -3.3524   22.8392 C.ar    1  UNL1        0.1034
     13 N           6.0560   -4.4204   22.5889 N.ar    1  UNL1       -0.2121
     14 C           7.1393   -4.6718   23.5955 C.ar    1  UNL1        0.2203
     15 N           7.1994   -3.8552   24.8523 N.ar    1  UNL1       -0.2121
     16 C           6.1762   -2.7873   25.1026 C.ar    1  UNL1        0.1034
     17 N           8.1625   -5.7397   23.3452 N.pl3   1  UNL1       -0.2747
     18 C           8.1685   -6.9837   24.1833 C.3     1  UNL1        0.1151
     19 C           9.1797   -5.5635   22.2570 C.3     1  UNL1        0.1151
     20 C           1.1180    0.6032   21.0732 C.2     1  UNL1        0.2015
     21 O          -0.2029    0.1738   20.5071 O.2     1  UNL1       -0.2864
     22 C           4.1159   -0.1815   18.5937 C.ar    1  UNL1        0.0920
     23 C           4.6476    1.1990   18.3460 C.ar    1  UNL1        0.0204
     24 C           4.0029    2.3809   19.0074 C.ar    1  UNL1        0.0312
     25 C           2.8264    2.1824   19.9164 C.ar    1  UNL1        0.1454
     26 F           2.1816    3.3643   20.5777 F       1  UNL1       -0.2040
     27 C           2.2946    0.8018   20.1641 C.ar    1  UNL1        0.0951
     28 C           2.9394   -0.3801   19.5027 C.ar    1  UNL1        0.1598
     29 F           2.4075   -1.7606   19.7505 F       1  UNL1       -0.2026
     30 N           4.7606   -1.3634   17.9324 N.pl3   1  UNL1       -0.2166
     31 H           4.2646   -1.8814   17.2579 H       1  UNL1        0.1734
     32 S           6.1612   -1.7562   18.2987 S.O2    1  UNL1        0.0540
     33 O           5.6450   -2.4576   19.5200 O.2     1  UNL1       -0.1545
     34 O           6.6773   -1.0548   17.0775 O.2     1  UNL1       -0.1545
     35 C           7.5617   -2.1489   18.6650 C.3     1  UNL1        0.1724
     36 C           8.8801   -2.1151   20.9035 C.3     1  UNL1        0.0019
     37 C           7.8465   -2.7399   20.0140 C.3     1  UNL1        0.0273
@<TRIPOS>BOND
     1    36    37    1
     2    37    35    1
     3    35    32    1
     4    32    33    2
     5    32    34    2
     6    32    30    1
     7    30    22    1
     8    22    23   ar
     9    23    24   ar
    10    24    25   ar
    11    25    26    1
    12    25    27   ar
    13    27    20    1
    14    20    21    2
    15    20     1    1
    16     1     2   ar
    17     2     3   ar
    18     3     4   ar
    19     4     5   ar
    20     5     6   ar
    21     6     7   ar
    22     7    11    1
    23    11    12   ar
    24    12    13   ar
    25    13    14   ar
    26    14    17    1
    27    17    18    1
    28    17    19    1
    29    14    15   ar
    30    15    16   ar
    31     7     8   ar
    32     8     9   ar
    33    27    28   ar
    34    28    29    1
    35    28    22   ar
    36     9     1   ar
    37     9     4    1
    38    16    11   ar
    39    30    31    1
    40     5    10    1
@<TRIPOS>MOLECULE
*****
 37 40 0 0 0
SMALL
GASTEIGER

@<TRIPOS>ATOM
      1 C           6.7078   -3.3722   30.0320 C.ar    1  UNL1        0.0611
      2 C           6.8135   -4.2852   31.2174 C.ar    1  UNL1        0.1037
      3 N           6.9857   -5.6861   30.7096 N.ar    1  UNL1       -0.2269
      4 C           6.9865   -5.6389   29.2104 C.ar    1  UNL1        0.1407
      5 N           7.1214   -6.7133   28.1724 N.ar    1  UNL1       -0.3374
      6 C           7.0846   -6.3577   26.7157 C.ar    1  UNL1        0.0735
      7 C           6.9128   -4.9276   26.2969 C.ar    1  UNL1        0.0201
      8 C           6.7779   -3.8532   27.3348 C.ar    1  UNL1        0.0047
      9 C           6.8148   -4.2088   28.7916 C.ar    1  UNL1        0.0386
     10 H           7.2341   -7.6519   28.4473 H       1  UNL1        0.1674
     11 C           6.8760   -4.5720   24.8401 C.ar    1  UNL1        0.0399
     12 C           7.6748   -5.3702   23.8528 C.ar    1  UNL1        0.1034
     13 N           7.6380   -5.0146   22.3960 N.ar    1  UNL1       -0.2121
     14 C           6.8024   -3.8607   21.9265 C.ar    1  UNL1        0.2203
     15 N           6.0036   -3.0625   22.9139 N.ar    1  UNL1       -0.2121
     16 C           6.0404   -3.4181   24.3706 C.ar    1  UNL1        0.1034
     17 N           6.7655   -3.5051   20.4698 N.pl3   1  UNL1       -0.2747
     18 C           7.9306   -2.8009   19.8400 C.3     1  UNL1        0.1151
     19 C           5.5636   -3.8537   19.6428 C.3     1  UNL1        0.1151
     20 C           6.5270   -1.8839   30.0788 C.2     1  UNL1        0.2015
     21 O           7.7084   -0.9786   29.8930 O.2     1  UNL1       -0.2864
     22 C           2.8441   -0.5706   29.3990 C.ar    1  UNL1        0.0920
     23 C           2.4399   -0.1347   30.7762 C.ar    1  UNL1        0.0204
     24 C           3.3981   -0.2819   31.9209 C.ar    1  UNL1        0.0312
     25 C           4.7604   -0.8649   31.6885 C.ar    1  UNL1        0.1454
     26 F           5.7185   -1.0121   32.8331 F       1  UNL1       -0.2040
     27 C           5.1646   -1.3008   30.3113 C.ar    1  UNL1        0.0951
     28 C           4.2064   -1.1536   29.1666 C.ar    1  UNL1        0.1598
     29 F           4.6107   -1.5895   27.7894 F       1  UNL1       -0.2026
     30 N           1.8859   -0.4235   28.2544 N.pl3   1  UNL1       -0.2166
     31 H           1.8695   -1.0970   27.5365 H       1  UNL1        0.1734
     32 S           0.9529    0.7499   28.2034 S.O2    1  UNL1        0.0540
     33 O          -0.1971   -0.1496   28.5471 O.2     1  UNL1       -0.1545
     34 O           2.1030    1.6495   27.8597 O.2     1  UNL1       -0.1545
     35 C           0.0200    1.9234   28.1524 C.3     1  UNL1        0.1724
     36 C          -0.5361    1.8231   25.6165 C.3     1  UNL1        0.0019
     37 C          -0.9727    2.0443   27.0344 C.3     1  UNL1        0.0273
@<TRIPOS>BOND
     1    36    37    1
     2    37    35    1
     3    35    32    1
     4    32    33    2
     5    32    34    2
     6    32    30    1
     7    30    22    1
     8    22    23   ar
     9    23    24   ar
    10    24    25   ar
    11    25    26    1
    12    25    27   ar
    13    27    20    1
    14    20    21    2
    15    20     1    1
    16     1     2   ar
    17     2     3   ar
    18     3     4   ar
    19     4     5   ar
    20     5     6   ar
    21     6     7   ar
    22     7    11    1
    23    11    12   ar
    24    12    13   ar
    25    13    14   ar
    26    14    17    1
    27    17    18    1
    28    17    19    1
    29    14    15   ar
    30    15    16   ar
    31     7     8   ar
    32     8     9   ar
    33    27    28   ar
    34    28    29    1
    35    28    22   ar
    36     9     1   ar
    37     9     4    1
    38    16    11   ar
    39    30    31    1
    40     5    10    1
@<TRIPOS>MOLECULE
*****
 37 40 0 0 0
SMALL
GASTEIGER

@<TRIPOS>ATOM
      1 C           1.1251    1.5464   20.3987 C.ar    1  UNL1        0.0611
      2 C           0.0631    2.5524   20.7305 C.ar    1  UNL1        0.1037
      3 N          -0.1040    2.5755   22.2210 N.ar    1  UNL1       -0.2269
      4 C           0.8547    1.5837   22.8103 C.ar    1  UNL1        0.1407
      5 N           1.1341    1.1776   24.2270 N.ar    1  UNL1       -0.3374
      6 C           2.1731    0.1355   24.5174 C.ar    1  UNL1        0.0735
      7 C           2.9327   -0.5006   23.3911 C.ar    1  UNL1        0.0201
      8 C           2.6533   -0.0945   21.9745 C.ar    1  UNL1        0.0047
      9 C           1.6143    0.9477   21.6841 C.ar    1  UNL1        0.0386
     10 H           0.6355    1.5950   24.9662 H       1  UNL1        0.1674
     11 C           3.9718   -1.5427   23.6816 C.ar    1  UNL1        0.0399
     12 C           4.7222   -1.5122   24.9800 C.ar    1  UNL1        0.1034
     13 N           5.7612   -2.5544   25.2705 N.ar    1  UNL1       -0.2121
     14 C           6.0498   -3.6271   24.2625 C.ar    1  UNL1        0.2203
     15 N           5.2993   -3.6576   22.9640 N.ar    1  UNL1       -0.2121
     16 C           4.2603   -2.6154   22.6736 C.ar    1  UNL1        0.1034
     17 N           7.0888   -4.6692   24.5529 N.pl3   1  UNL1       -0.2747
     18 C           7.9506   -5.1981   23.4450 C.3     1  UNL1        0.1151
     19 C           7.2660   -5.1824   25.9511 C.3     1  UNL1        0.1151
     20 C           1.6123    1.1998   19.0230 C.2     1  UNL1        0.2015
     21 O           0.6572    0.6503   18.0054 O.2     1  UNL1       -0.2864
     22 C           5.3952    0.4207   18.1103 C.ar    1  UNL1        0.0920
     23 C           5.9396    1.8090   17.9488 C.ar    1  UNL1        0.0204
     24 C           5.0415    2.9943   18.1454 C.ar    1  UNL1        0.0312
     25 C           3.5991    2.7913   18.5034 C.ar    1  UNL1        0.1454
     26 F           2.7011    3.9766   18.7000 F       1  UNL1       -0.2040
     27 C           3.0548    1.4029   18.6649 C.ar    1  UNL1        0.0951
     28 C           3.9528    0.2177   18.4684 C.ar    1  UNL1        0.1598
     29 F           3.4083   -1.1707   18.6299 F       1  UNL1       -0.2026
     30 N           6.2932   -0.7646   17.9138 N.pl3   1  UNL1       -0.2166
     31 H           7.0477   -0.7115   17.2835 H       1  UNL1        0.1734
     32 S           6.0418   -2.0309   18.6775 S.O2    1  UNL1        0.0540
     33 O           6.4732   -1.3527   19.9440 O.2     1  UNL1       -0.1545
     34 O           5.6104   -2.7091   17.4111 O.2     1  UNL1       -0.1545
     35 C           5.7903   -3.2972   19.4412 C.3     1  UNL1        0.1724
     36 C           3.7364   -4.8672   19.7004 C.3     1  UNL1        0.0019
     37 C           4.8760   -4.3442   18.8772 C.3     1  UNL1        0.0273
@<TRIPOS>BOND
     1    36    37    1
     2    37    35    1
     3    35    32    1
     4    32    33    2
     5    32    34    2
     6    32    30    1
     7    30    22    1
     8    22    23   ar
     9    23    24   ar
    10    24    25   ar
    11    25    26    1
    12    25    27   ar
    13    27    20    1
    14    20    21    2
    15    20     1    1
    16     1     2   ar
    17     2     3   ar
    18     3     4   ar
    19     4     5   ar
    20     5     6   ar
    21     6     7   ar
    22     7    11    1
    23    11    12   ar
    24    12    13   ar
    25    13    14   ar
    26    14    17    1
    27    17    18    1
    28    17    19    1
    29    14    15   ar
    30    15    16   ar
    31     7     8   ar
    32     8     9   ar
    33    27    28   ar
    34    28    29    1
    35    28    22   ar
    36     9     1   ar
    37     9     4    1
    38    16    11   ar
    39    30    31    1
    40     5    10    1
@<TRIPOS>MOLECULE
*****
 37 40 0 0 0
SMALL
GASTEIGER

@<TRIPOS>ATOM
      1 C           5.2817   -2.8832   23.4435 C.ar    1  UNL1        0.0611
      2 C           6.0258   -3.2410   24.6958 C.ar    1  UNL1        0.1037
      3 N           5.5394   -2.3449   25.7960 N.ar    1  UNL1       -0.2269
      4 C           4.4948   -1.4332   25.2236 C.ar    1  UNL1        0.1407
      5 N           3.6681   -0.3431   25.8385 N.ar    1  UNL1       -0.3374
      6 C           2.6821    0.4144   24.9994 C.ar    1  UNL1        0.0735
      7 C           2.5228    0.0817   23.5454 C.ar    1  UNL1        0.0201
      8 C           3.3496   -1.0084   22.9306 C.ar    1  UNL1        0.0047
      9 C           4.3356   -1.7659   23.7697 C.ar    1  UNL1        0.0386
     10 H           3.7726   -0.1247   26.7927 H       1  UNL1        0.1674
     11 C           1.5368    0.8392   22.7064 C.ar    1  UNL1        0.0399
     12 C           1.2957    0.4334   21.2826 C.ar    1  UNL1        0.1034
     13 N           0.3096    1.1909   20.4435 N.ar    1  UNL1       -0.2121
     14 C          -0.4353    2.3541   21.0283 C.ar    1  UNL1        0.2203
     15 N          -0.1941    2.7599   22.4521 N.ar    1  UNL1       -0.2121
     16 C           0.7919    2.0024   23.2911 C.ar    1  UNL1        0.1034
     17 N          -1.4213    3.1116   20.1893 N.pl3   1  UNL1       -0.2747
     18 C          -0.9851    3.7301   18.8943 C.3     1  UNL1        0.1151
     19 C          -2.8435    3.2506   20.6453 C.3     1  UNL1        0.1151
     20 C           5.4537   -3.5292   22.1007 C.2     1  UNL1        0.2015
     21 O           4.4400   -4.5196   21.6095 O.2     1  UNL1       -0.2864
     22 C           7.7861   -1.6309   19.5109 C.ar    1  UNL1        0.0920
     23 C           9.0110   -2.4959   19.5457 C.ar    1  UNL1        0.0204
     24 C           9.0502   -3.7053   20.4322 C.ar    1  UNL1        0.0312
     25 C           7.8645   -4.0498   21.2838 C.ar    1  UNL1        0.1454
     26 F           7.9037   -5.2592   22.1703 F       1  UNL1       -0.2040
     27 C           6.6395   -3.1848   21.2490 C.ar    1  UNL1        0.0951
     28 C           6.6003   -1.9754   20.3626 C.ar    1  UNL1        0.1598
     29 F           5.3753   -1.1104   20.3278 F       1  UNL1       -0.2026
     30 N           7.7469   -0.4215   18.6245 N.pl3   1  UNL1       -0.2166
     31 H           8.5073    0.2037   18.6108 H       1  UNL1        0.1734
     32 S           6.5491   -0.1646   17.7588 S.O2    1  UNL1        0.0540
     33 O           6.7064   -1.5213   17.1385 O.2     1  UNL1       -0.1545
     34 O           6.3917    1.1920   18.3791 O.2     1  UNL1       -0.1545
     35 C           5.3513    0.0923   16.8932 C.3     1  UNL1        0.1724
     36 C           2.9701    0.0046   17.9287 C.3     1  UNL1        0.0019
     37 C           4.0709   -0.6472   17.1457 C.3     1  UNL1        0.0273
@<TRIPOS>BOND
     1    36    37    1
     2    37    35    1
     3    35    32    1
     4    32    33    2
     5    32    34    2
     6    32    30    1
     7    30    22    1
     8    22    23   ar
     9    23    24   ar
    10    24    25   ar
    11    25    26    1
    12    25    27   ar
    13    27    20    1
    14    20    21    2
    15    20     1    1
    16     1     2   ar
    17     2     3   ar
    18     3     4   ar
    19     4     5   ar
    20     5     6   ar
    21     6     7   ar
    22     7    11    1
    23    11    12   ar
    24    12    13   ar
    25    13    14   ar
    26    14    17    1
    27    17    18    1
    28    17    19    1
    29    14    15   ar
    30    15    16   ar
    31     7     8   ar
    32     8     9   ar
    33    27    28   ar
    34    28    29    1
    35    28    22   ar
    36     9     1   ar
    37     9     4    1
    38    16    11   ar
    39    30    31    1
    40     5    10    1
@<TRIPOS>MOLECULE
*****
 37 40 0 0 0
SMALL
GASTEIGER

@<TRIPOS>ATOM
      1 C           5.4236   -2.5593   19.3608 C.ar    1  UNL1        0.0611
      2 C           6.0127   -1.9158   18.1406 C.ar    1  UNL1        0.1037
      3 N           7.5032   -2.0697   18.2094 N.ar    1  UNL1       -0.2269
      4 C           7.8352   -2.8083   19.4720 C.ar    1  UNL1        0.1407
      5 N           9.1419   -3.2444   20.0657 N.ar    1  UNL1       -0.3374
      6 C           9.1632   -3.9831   21.3709 C.ar    1  UNL1        0.0735
      7 C           7.8779   -4.2857   22.0826 C.ar    1  UNL1        0.0201
      8 C           6.5713   -3.8496   21.4889 C.ar    1  UNL1        0.0047
      9 C           6.5499   -3.1109   20.1836 C.ar    1  UNL1        0.0386
     10 H           9.9855   -3.0458   19.5986 H       1  UNL1        0.1674
     11 C           7.8993   -5.0244   23.3879 C.ar    1  UNL1        0.0399
     12 C           7.0222   -4.5748   24.5186 C.ar    1  UNL1        0.1034
     13 N           7.0436   -5.3136   25.8240 N.ar    1  UNL1       -0.2121
     14 C           7.9421   -6.5019   25.9986 C.ar    1  UNL1        0.2203
     15 N           8.8192   -6.9515   24.8678 N.ar    1  UNL1       -0.2121
     16 C           8.7978   -6.2128   23.5625 C.ar    1  UNL1        0.1034
     17 N           7.9635   -7.2406   27.3038 N.pl3   1  UNL1       -0.2747
     18 C           8.1209   -8.7322   27.3189 C.3     1  UNL1        0.1151
     19 C           7.8275   -6.4878   28.5940 C.3     1  UNL1        0.1151
     20 C           3.9642   -2.6375   19.6988 C.2     1  UNL1        0.2015
     21 O           3.1605   -3.8330   19.2808 O.2     1  UNL1       -0.2864
     22 C           2.6454   -0.4154   22.7110 C.ar    1  UNL1        0.0920
     23 C           1.9973    0.7145   21.9671 C.ar    1  UNL1        0.0204
     24 C           2.0048    0.7270   20.4672 C.ar    1  UNL1        0.0312
     25 C           2.6604   -0.3903   19.7111 C.ar    1  UNL1        0.1454
     26 F           2.6679   -0.3777   18.2112 F       1  UNL1       -0.2040
     27 C           3.3085   -1.5201   20.4549 C.ar    1  UNL1        0.0951
     28 C           3.3010   -1.5327   21.9549 C.ar    1  UNL1        0.1598
     29 F           3.9492   -2.6626   22.6986 F       1  UNL1       -0.2026
     30 N           2.6379   -0.4279   24.2109 N.pl3   1  UNL1       -0.2166
     31 H           1.7953   -0.5774   24.6977 H       1  UNL1        0.1734
     32 S           3.9141   -0.2127   24.9691 S.O2    1  UNL1        0.0540
     33 O           4.0408    1.1555   24.3675 O.2     1  UNL1       -0.1545
     34 O           3.7874   -1.5809   25.5707 O.2     1  UNL1       -0.1545
     35 C           5.1903    0.0024   25.7274 C.3     1  UNL1        0.1724
     36 C           6.5452   -0.9073   23.7057 C.3     1  UNL1        0.0019
     37 C           6.5048   -0.3572   25.1006 C.3     1  UNL1        0.0273
@<TRIPOS>BOND
     1    36    37    1
     2    37    35    1
     3    35    32    1
     4    32    33    2
     5    32    34    2
     6    32    30    1
     7    30    22    1
     8    22    23   ar
     9    23    24   ar
    10    24    25   ar
    11    25    26    1
    12    25    27   ar
    13    27    20    1
    14    20    21    2
    15    20     1    1
    16     1     2   ar
    17     2     3   ar
    18     3     4   ar
    19     4     5   ar
    20     5     6   ar
    21     6     7   ar
    22     7    11    1
    23    11    12   ar
    24    12    13   ar
    25    13    14   ar
    26    14    17    1
    27    17    18    1
    28    17    19    1
    29    14    15   ar
    30    15    16   ar
    31     7     8   ar
    32     8     9   ar
    33    27    28   ar
    34    28    29    1
    35    28    22   ar
    36     9     1   ar
    37     9     4    1
    38    16    11   ar
    39    30    31    1
    40     5    10    1
@<TRIPOS>MOLECULE
*****
 37 40 0 0 0
SMALL
GASTEIGER

@<TRIPOS>ATOM
      1 C           4.5110   -1.8014   18.6291 C.ar    1  UNL1        0.0611
      2 C           5.3303   -2.9835   18.2030 C.ar    1  UNL1        0.1037
      3 N           5.6604   -3.7842   19.4277 N.ar    1  UNL1       -0.2269
      4 C           5.0452   -3.0970   20.6106 C.ar    1  UNL1        0.1407
      5 N           5.0400   -3.4289   22.0734 N.ar    1  UNL1       -0.3374
      6 C           4.3245   -2.5352   23.0426 C.ar    1  UNL1        0.0735
      7 C           3.6141   -1.3098   22.5491 C.ar    1  UNL1        0.0201
      8 C           3.6192   -0.9780   21.0863 C.ar    1  UNL1        0.0047
      9 C           4.3348   -1.8716   20.1171 C.ar    1  UNL1        0.0386
     10 H           5.5063   -4.2331   22.3974 H       1  UNL1        0.1674
     11 C           2.8985   -0.4162   23.5184 C.ar    1  UNL1        0.0399
     12 C           3.2723   -0.4335   24.9709 C.ar    1  UNL1        0.1034
     13 N           2.5567    0.4602   25.9402 N.ar    1  UNL1       -0.2121
     14 C           1.4674    1.3711   25.4569 C.ar    1  UNL1        0.2203
     15 N           1.0937    1.3883   24.0042 N.ar    1  UNL1       -0.2121
     16 C           1.8092    0.4947   23.0350 C.ar    1  UNL1        0.1034
     17 N           0.7519    2.2647   26.4261 N.pl3   1  UNL1       -0.2747
     18 C           1.5274    3.2440   27.2563 C.3     1  UNL1        0.1151
     19 C          -0.7392    2.1789   26.5651 C.3     1  UNL1        0.1151
     20 C           3.9639   -0.7362   17.7258 C.2     1  UNL1        0.2015
     21 O           3.7972   -1.0084   16.2602 O.2     1  UNL1       -0.2864
     22 C           1.7586    2.3356   18.9306 C.ar    1  UNL1        0.0920
     23 C           2.8226    3.2765   19.4128 C.ar    1  UNL1        0.0204
     24 C           4.2670    2.8799   19.3326 C.ar    1  UNL1        0.0312
     25 C           4.6475    1.5424   18.7703 C.ar    1  UNL1        0.1454
     26 F           6.0919    1.1458   18.6902 F       1  UNL1       -0.2040
     27 C           3.5835    0.6015   18.2881 C.ar    1  UNL1        0.0951
     28 C           2.1391    0.9981   18.3683 C.ar    1  UNL1        0.1598
     29 F           1.0751    0.0570   17.8860 F       1  UNL1       -0.2026
     30 N           0.3142    2.7322   19.0107 N.pl3   1  UNL1       -0.2166
     31 H          -0.2080    2.8588   18.1858 H       1  UNL1        0.1734
     32 S          -0.3345    2.9358   20.3477 S.O2    1  UNL1        0.0540
     33 O          -0.2055    4.4213   20.1841 O.2     1  UNL1       -0.1545
     34 O          -0.4636    1.4504   20.5114 O.2     1  UNL1       -0.1545
     35 C          -0.9833    3.1394   21.6847 C.3     1  UNL1        0.1724
     36 C          -3.3522    3.2773   20.6266 C.3     1  UNL1        0.0019
     37 C          -2.4188    3.5672   21.7645 C.3     1  UNL1        0.0273
@<TRIPOS>BOND
     1    36    37    1
     2    37    35    1
     3    35    32    1
     4    32    33    2
     5    32    34    2
     6    32    30    1
     7    30    22    1
     8    22    23   ar
     9    23    24   ar
    10    24    25   ar
    11    25    26    1
    12    25    27   ar
    13    27    20    1
    14    20    21    2
    15    20     1    1
    16     1     2   ar
    17     2     3   ar
    18     3     4   ar
    19     4     5   ar
    20     5     6   ar
    21     6     7   ar
    22     7    11    1
    23    11    12   ar
    24    12    13   ar
    25    13    14   ar
    26    14    17    1
    27    17    18    1
    28    17    19    1
    29    14    15   ar
    30    15    16   ar
    31     7     8   ar
    32     8     9   ar
    33    27    28   ar
    34    28    29    1
    35    28    22   ar
    36     9     1   ar
    37     9     4    1
    38    16    11   ar
    39    30    31    1
    40     5    10    1
@<TRIPOS>MOLECULE
*****
 37 40 0 0 0
SMALL
GASTEIGER

@<TRIPOS>ATOM
      1 C           5.0541   -3.4319   20.5598 C.ar    1  UNL1        0.0611
      2 C           6.2281   -4.3004   20.2172 C.ar    1  UNL1        0.1037
      3 N           7.0707   -4.4480   21.4493 N.ar    1  UNL1       -0.2269
      4 C           6.4176   -3.6706   22.5535 C.ar    1  UNL1        0.1407
      5 N           6.7967   -3.4535   23.9884 N.ar    1  UNL1       -0.3374
      6 C           5.9295   -2.6083   24.8736 C.ar    1  UNL1        0.0735
      7 C           4.6831   -1.9803   24.3238 C.ar    1  UNL1        0.0201
      8 C           4.3040   -2.1974   22.8889 C.ar    1  UNL1        0.0047
      9 C           5.1712   -3.0426   22.0037 C.ar    1  UNL1        0.0386
     10 H           7.6147   -3.8657   24.3492 H       1  UNL1        0.1674
     11 C           3.8159   -1.1351   25.2091 C.ar    1  UNL1        0.0399
     12 C           3.8398   -1.3362   26.6953 C.ar    1  UNL1        0.1034
     13 N           2.9726   -0.4910   27.5806 N.ar    1  UNL1       -0.2121
     14 C           2.0814    0.5552   26.9796 C.ar    1  UNL1        0.2203
     15 N           2.0575    0.7563   25.4932 N.ar    1  UNL1       -0.2121
     16 C           2.9248   -0.0889   24.6081 C.ar    1  UNL1        0.1034
     17 N           1.2142    1.4004   27.8648 N.pl3   1  UNL1       -0.2747
     18 C           0.2156    0.7516   28.7767 C.3     1  UNL1        0.1151
     19 C           1.3457    2.8944   27.8380 C.3     1  UNL1        0.1151
     20 C           3.9558   -3.0241   19.6231 C.2     1  UNL1        0.2015
     21 O           2.9832   -4.0476   19.1170 O.2     1  UNL1       -0.2864
     22 C           2.4894    0.6321   19.1408 C.ar    1  UNL1        0.0920
     23 C           3.5791    1.2700   18.3311 C.ar    1  UNL1        0.0204
     24 C           4.7943    0.4766   17.9520 C.ar    1  UNL1        0.0312
     25 C           4.9200   -0.9547   18.3827 C.ar    1  UNL1        0.1454
     26 F           6.1352   -1.7481   18.0036 F       1  UNL1       -0.2040
     27 C           3.8303   -1.5927   19.1924 C.ar    1  UNL1        0.0951
     28 C           2.6150   -0.7993   19.5714 C.ar    1  UNL1        0.1598
     29 F           1.5254   -1.4373   20.3812 F       1  UNL1       -0.2026
     30 N           1.2742    1.4255   19.5199 N.pl3   1  UNL1       -0.2166
     31 H           0.7676    1.9104   18.8288 H       1  UNL1        0.1734
     32 S           0.8307    1.4801   20.9518 S.O2    1  UNL1        0.0540
     33 O           2.1145    2.1611   21.3234 O.2     1  UNL1       -0.1545
     34 O          -0.4531    0.7991   20.5801 O.2     1  UNL1       -0.1545
     35 C           0.3872    1.5346   22.3836 C.3     1  UNL1        0.1724
     36 C          -0.6610    3.0609   24.2063 C.3     1  UNL1        0.0019
     37 C           0.3323    2.8502   23.1022 C.3     1  UNL1        0.0273
@<TRIPOS>BOND
     1    36    37    1
     2    37    35    1
     3    35    32    1
     4    32    33    2
     5    32    34    2
     6    32    30    1
     7    30    22    1
     8    22    23   ar
     9    23    24   ar
    10    24    25   ar
    11    25    26    1
    12    25    27   ar
    13    27    20    1
    14    20    21    2
    15    20     1    1
    16     1     2   ar
    17     2     3   ar
    18     3     4   ar
    19     4     5   ar
    20     5     6   ar
    21     6     7   ar
    22     7    11    1
    23    11    12   ar
    24    12    13   ar
    25    13    14   ar
    26    14    17    1
    27    17    18    1
    28    17    19    1
    29    14    15   ar
    30    15    16   ar
    31     7     8   ar
    32     8     9   ar
    33    27    28   ar
    34    28    29    1
    35    28    22   ar
    36     9     1   ar
    37     9     4    1
    38    16    11   ar
    39    30    31    1
    40     5    10    1
@<TRIPOS>MOLECULE
*****
 37 40 0 0 0
SMALL
GASTEIGER

@<TRIPOS>ATOM
      1 C           0.6926    2.0669   22.7689 C.ar    1  UNL1        0.0611
      2 C          -0.4713    2.5813   21.9748 C.ar    1  UNL1        0.1037
      3 N          -0.5787    1.7595   20.7245 N.ar    1  UNL1       -0.2269
      4 C           0.5188    0.7372   20.7459 C.ar    1  UNL1        0.1407
      5 N           0.9041   -0.3421   19.7782 N.ar    1  UNL1       -0.3374
      6 C           2.0753   -1.2314   20.0740 C.ar    1  UNL1        0.0735
      7 C           2.8610   -1.0414   21.3375 C.ar    1  UNL1        0.0201
      8 C           2.4757    0.0379   22.3052 C.ar    1  UNL1        0.0047
      9 C           1.3045    0.9272   22.0095 C.ar    1  UNL1        0.0386
     10 H           0.3884   -0.4667   18.9489 H       1  UNL1        0.1674
     11 C           4.0322   -1.9308   21.6332 C.ar    1  UNL1        0.0399
     12 C           5.0336   -2.2344   20.5585 C.ar    1  UNL1        0.1034
     13 N           6.2048   -3.1238   20.8543 N.ar    1  UNL1       -0.2121
     14 C           6.3745   -3.7095   22.2247 C.ar    1  UNL1        0.2203
     15 N           5.3730   -3.4059   23.2994 N.ar    1  UNL1       -0.2121
     16 C           4.2019   -2.5165   23.0037 C.ar    1  UNL1        0.1034
     17 N           7.5456   -4.5989   22.5205 N.pl3   1  UNL1       -0.2747
     18 C           7.7433   -5.1432   23.9041 C.3     1  UNL1        0.1151
     19 C           8.5190   -4.9438   21.4326 C.3     1  UNL1        0.1151
     20 C           1.1623    2.5988   24.0905 C.2     1  UNL1        0.2015
     21 O           2.3898    3.4579   24.1598 O.2     1  UNL1       -0.2864
     22 C           0.0858    0.8004   27.4606 C.ar    1  UNL1        0.0920
     23 C          -1.1116    1.6167   27.8475 C.ar    1  UNL1        0.0204
     24 C          -1.5511    2.7603   26.9821 C.ar    1  UNL1        0.0312
     25 C          -0.7932    3.0877   25.7298 C.ar    1  UNL1        0.1454
     26 F          -1.2327    4.2313   24.8644 F       1  UNL1       -0.2040
     27 C           0.4042    2.2714   25.3429 C.ar    1  UNL1        0.0951
     28 C           0.8438    1.1278   26.2083 C.ar    1  UNL1        0.1598
     29 F           2.0413    0.3115   25.8213 F       1  UNL1       -0.2026
     30 N           0.5253   -0.3432   28.3260 N.pl3   1  UNL1       -0.2166
     31 H           0.0290   -1.1932   28.3080 H       1  UNL1        0.1734
     32 S           1.7211   -0.1917   29.2188 S.O2    1  UNL1        0.0540
     33 O           2.5150   -1.0785   28.3059 O.2     1  UNL1       -0.1545
     34 O           0.9272    0.6950   30.1317 O.2     1  UNL1       -0.1545
     35 C           2.9169   -0.0402   30.1117 C.3     1  UNL1        0.1724
     36 C           3.7309    2.0168   28.7491 C.3     1  UNL1        0.0019
     37 C           3.8038    1.1623   29.9798 C.3     1  UNL1        0.0273
@<TRIPOS>BOND
     1    36    37    1
     2    37    35    1
     3    35    32    1
     4    32    33    2
     5    32    34    2
     6    32    30    1
     7    30    22    1
     8    22    23   ar
     9    23    24   ar
    10    24    25   ar
    11    25    26    1
    12    25    27   ar
    13    27    20    1
    14    20    21    2
    15    20     1    1
    16     1     2   ar
    17     2     3   ar
    18     3     4   ar
    19     4     5   ar
    20     5     6   ar
    21     6     7   ar
    22     7    11    1
    23    11    12   ar
    24    12    13   ar
    25    13    14   ar
    26    14    17    1
    27    17    18    1
    28    17    19    1
    29    14    15   ar
    30    15    16   ar
    31     7     8   ar
    32     8     9   ar
    33    27    28   ar
    34    28    29    1
    35    28    22   ar
    36     9     1   ar
    37     9     4    1
    38    16    11   ar
    39    30    31    1
    40     5    10    1
