@<TRIPOS>MOLECULE
*****
 36 39 0 0 0
SMALL
GASTEIGER

@<TRIPOS>ATOM
      1 O          -8.6366  -17.6952   27.0438 O.2     1  UNL1       -0.2707
      2 C          -8.5491  -16.3441   26.3981 C.2     1  UNL1        0.2707
      3 N          -9.0834  -16.1394   25.0116 N.am    1  UNL1       -0.2808
      4 H          -9.0260  -15.2526   24.5878 H       1  UNL1        0.1550
      5 C          -9.7053  -17.2858   24.2707 C.ar    1  UNL1        0.0536
      6 C         -10.4839  -18.3277   25.0179 C.ar    1  UNL1        0.0353
      7 C         -11.1058  -19.4741   24.2770 C.ar    1  UNL1        0.1003
      8 N         -10.9491  -19.5787   22.7889 N.ar    1  UNL1       -0.2392
      9 C         -10.1706  -18.5368   22.0417 C.ar    1  UNL1        0.1357
     10 C          -9.5486  -17.3903   22.7826 C.ar    1  UNL1        0.0384
     11 C         -10.0139  -18.6414   20.5536 C.2     1  UNL1        0.2636
     12 O         -11.0382  -18.0265   19.6465 O.2     1  UNL1       -0.2685
     13 N          -8.8330  -19.3609   19.9725 N.am    1  UNL1       -0.2996
     14 H          -8.1607  -19.7645   20.5678 H       1  UNL1        0.1498
     15 C          -8.6763  -19.4655   18.4844 C.3     1  UNL1        0.0897
     16 C          -8.8614  -20.7883   17.8018 C.3     1  UNL1        0.0196
     17 C          -9.2200  -21.5806   16.5797 C.3     1  UNL1        0.0017
     18 C          -8.8235  -22.2873   17.8419 C.3     1  UNL1        0.0017
     19 C          -7.9272  -15.1976   27.1391 C.3     1  UNL1        0.2897
     20 O          -6.4390  -15.0106   27.1191 O.3     1  UNL1       -0.4656
     21 C          -5.6313  -15.5448   25.9735 C.ar    1  UNL1        0.1393
     22 C          -4.6913  -16.6935   26.1898 C.ar    1  UNL1        0.0370
     23 C          -3.8837  -17.2276   25.0442 C.ar    1  UNL1        0.0063
     24 C          -4.0160  -16.6131   23.6823 C.ar    1  UNL1        0.0392
     25 C          -4.9560  -15.4644   23.4660 C.ar    1  UNL1        0.0063
     26 C          -5.7637  -14.9303   24.6116 C.ar    1  UNL1        0.0370
     27 C          -3.2083  -17.1473   22.5367 C.2     1  UNL1        0.1961
     28 O          -1.8753  -16.5411   22.2119 O.2     1  UNL1       -0.2866
     29 C          -3.7337  -18.2876   21.7160 C.ar    1  UNL1        0.0460
     30 C          -4.8995  -19.0922   22.2095 C.ar    1  UNL1        0.0151
     31 C          -5.4248  -20.2326   21.3887 C.ar    1  UNL1        0.0578
     32 CL         -6.5906  -21.0372   21.8821 Cl      1  UNL1       -0.0822
     33 C          -4.7843  -20.5683   20.0745 C.ar    1  UNL1        0.0119
     34 C          -3.6186  -19.7637   19.5811 C.ar    1  UNL1        0.0077
     35 C          -3.0932  -18.6234   20.4018 C.ar    1  UNL1        0.0377
     36 BR         -1.9274  -17.8187   19.9083 Br      1  UNL1       -0.0489
@<TRIPOS>BOND
     1     1     2    2
     2     2    19    1
     3    19    20    1
     4    20    21    1
     5    21    22   ar
     6    22    23   ar
     7    23    24   ar
     8    24    27    1
     9    27    28    2
    10    27    29    1
    11    29    30   ar
    12    30    31   ar
    13    31    32    1
    14    31    33   ar
    15    33    34   ar
    16    34    35   ar
    17    35    36    1
    18    24    25   ar
    19    25    26   ar
    20     2     3   am
    21     3     5    1
    22     5     6   ar
    23     6     7   ar
    24     7     8   ar
    25     8     9   ar
    26     9    11    1
    27    11    12    2
    28    11    13   am
    29    13    15    1
    30    15    16    1
    31    16    17    1
    32    17    18    1
    33     9    10   ar
    34    26    21   ar
    35    10     5   ar
    36    35    29   ar
    37    18    16    1
    38     3     4    1
    39    13    14    1
@<TRIPOS>MOLECULE
*****
 36 39 0 0 0
SMALL
GASTEIGER

@<TRIPOS>ATOM
      1 O          -4.0328  -21.2122   19.7690 O.2     1  UNL1       -0.2707
      2 C          -3.6158  -19.8200   20.1405 C.2     1  UNL1        0.2707
      3 N          -4.6548  -18.7820   20.4452 N.am    1  UNL1       -0.2808
      4 H          -4.3810  -17.8683   20.6890 H       1  UNL1        0.1550
      5 C          -6.1108  -19.1361   20.3785 C.ar    1  UNL1        0.0536
      6 C          -6.7708  -19.3487   19.0484 C.ar    1  UNL1        0.0353
      7 C          -8.2269  -19.7028   18.9817 C.ar    1  UNL1        0.1003
      8 N          -9.0230  -19.8443   20.2451 N.ar    1  UNL1       -0.2392
      9 C          -8.3630  -19.6318   21.5752 C.ar    1  UNL1        0.1357
     10 C          -6.9069  -19.2776   21.6419 C.ar    1  UNL1        0.0384
     11 C          -9.1591  -19.7733   22.8386 C.2     1  UNL1        0.2636
     12 O          -8.7310  -20.7551   23.8888 O.2     1  UNL1       -0.2685
     13 N         -10.3833  -18.9332   23.0518 N.am    1  UNL1       -0.2996
     14 H         -10.6643  -18.2888   22.3625 H       1  UNL1        0.1498
     15 C         -11.1794  -19.0747   24.3152 C.3     1  UNL1        0.0897
     16 C         -12.5930  -18.5761   24.3708 C.3     1  UNL1        0.0196
     17 C         -13.9173  -18.5008   25.0711 C.3     1  UNL1        0.0017
     18 C         -13.7171  -17.7878   23.7667 C.3     1  UNL1        0.0017
     19 C          -2.1596  -19.4659   20.2072 C.3     1  UNL1        0.2897
     20 O          -1.6260  -18.7051   21.3846 O.3     1  UNL1       -0.4656
     21 C          -2.5517  -17.8739   22.2226 C.ar    1  UNL1        0.1393
     22 C          -3.3038  -18.5027   23.3579 C.ar    1  UNL1        0.0370
     23 C          -4.2294  -17.6715   24.1959 C.ar    1  UNL1        0.0063
     24 C          -4.4030  -16.2115   23.8985 C.ar    1  UNL1        0.0392
     25 C          -3.6510  -15.5828   22.7632 C.ar    1  UNL1        0.0063
     26 C          -2.7253  -16.4140   21.9252 C.ar    1  UNL1        0.0370
     27 C          -5.3288  -15.3803   24.7365 C.2     1  UNL1        0.1961
     28 O          -4.7694  -14.3953   25.7198 O.2     1  UNL1       -0.2866
     29 C          -6.8137  -15.5341   24.5912 C.ar    1  UNL1        0.0460
     30 C          -7.4284  -15.6241   23.2259 C.ar    1  UNL1        0.0151
     31 C          -8.9134  -15.7779   23.0806 C.ar    1  UNL1        0.0578
     32 CL         -9.5281  -15.8679   21.7152 Cl      1  UNL1       -0.0822
     33 C          -9.7838  -15.8418   24.3006 C.ar    1  UNL1        0.0119
     34 C          -9.1691  -15.7518   25.6659 C.ar    1  UNL1        0.0077
     35 C          -7.6841  -15.5980   25.8112 C.ar    1  UNL1        0.0377
     36 BR         -7.0695  -15.5081   27.1765 Br      1  UNL1       -0.0489
@<TRIPOS>BOND
     1     1     2    2
     2     2    19    1
     3    19    20    1
     4    20    21    1
     5    21    22   ar
     6    22    23   ar
     7    23    24   ar
     8    24    27    1
     9    27    28    2
    10    27    29    1
    11    29    30   ar
    12    30    31   ar
    13    31    32    1
    14    31    33   ar
    15    33    34   ar
    16    34    35   ar
    17    35    36    1
    18    24    25   ar
    19    25    26   ar
    20     2     3   am
    21     3     5    1
    22     5     6   ar
    23     6     7   ar
    24     7     8   ar
    25     8     9   ar
    26     9    11    1
    27    11    12    2
    28    11    13   am
    29    13    15    1
    30    15    16    1
    31    16    17    1
    32    17    18    1
    33     9    10   ar
    34    26    21   ar
    35    10     5   ar
    36    35    29   ar
    37    18    16    1
    38     3     4    1
    39    13    14    1
@<TRIPOS>MOLECULE
*****
 36 39 0 0 0
SMALL
GASTEIGER

@<TRIPOS>ATOM
      1 O          -2.2211    4.8702   19.9566 O.2     1  UNL1       -0.2707
      2 C          -2.1277    3.4425   20.4070 C.2     1  UNL1        0.2707
      3 N          -3.3719    2.6879   20.7708 N.am    1  UNL1       -0.2808
      4 H          -3.3106    1.7508   21.0664 H       1  UNL1        0.1550
      5 C          -4.7096    3.3610   20.6841 C.ar    1  UNL1        0.0536
      6 C          -5.3494    3.5886   19.3466 C.ar    1  UNL1        0.0353
      7 C          -6.6871    4.2617   19.2599 C.ar    1  UNL1        0.1003
      8 N          -7.3850    4.7073   20.5107 N.ar    1  UNL1       -0.2392
      9 C          -6.7452    4.4796   21.8482 C.ar    1  UNL1        0.1357
     10 C          -5.4075    3.8065   21.9349 C.ar    1  UNL1        0.0384
     11 C          -7.4431    4.9251   23.0990 C.2     1  UNL1        0.2636
     12 O          -8.5816    4.1190   23.6503 O.2     1  UNL1       -0.2685
     13 N          -7.0024    6.1767   23.7985 N.am    1  UNL1       -0.2996
     14 H          -6.2551    6.7058   23.4367 H       1  UNL1        0.1498
     15 C          -7.7003    6.6222   25.0493 C.3     1  UNL1        0.0897
     16 C          -7.0780    6.3612   26.3889 C.3     1  UNL1        0.0196
     17 C          -5.9484    5.8180   27.2129 C.3     1  UNL1        0.0017
     18 C          -7.1297    6.4524   27.8852 C.3     1  UNL1        0.0017
     19 C          -0.7899    2.7694   20.4937 C.3     1  UNL1        0.2897
     20 O          -0.6966    1.2741   20.4200 O.3     1  UNL1       -0.4656
     21 C           0.5503    0.6254   19.8960 C.ar    1  UNL1        0.1393
     22 C           1.1072   -0.5891   20.5778 C.ar    1  UNL1        0.0370
     23 C           2.3541   -1.2378   20.0538 C.ar    1  UNL1        0.0063
     24 C           3.0440   -0.6719   18.8480 C.ar    1  UNL1        0.0392
     25 C           2.4871    0.5426   18.1663 C.ar    1  UNL1        0.0063
     26 C           1.2403    1.1912   18.6903 C.ar    1  UNL1        0.0370
     27 C           4.2909   -1.3206   18.3240 C.2     1  UNL1        0.1961
     28 O           4.5202   -1.4193   16.8450 O.2     1  UNL1       -0.2866
     29 C           5.3084   -1.8706   19.2791 C.ar    1  UNL1        0.0460
     30 C           6.2758   -0.9471   19.9582 C.ar    1  UNL1        0.0151
     31 C           7.2933   -1.4972   20.9133 C.ar    1  UNL1        0.0578
     32 CL          8.2608   -0.5736   21.5924 Cl      1  UNL1       -0.0822
     33 C           7.3434   -2.9707   21.1893 C.ar    1  UNL1        0.0119
     34 C           6.3759   -3.8942   20.5102 C.ar    1  UNL1        0.0077
     35 C           5.3585   -3.3442   19.5551 C.ar    1  UNL1        0.0377
     36 BR          4.3910   -4.2677   18.8761 Br      1  UNL1       -0.0489
@<TRIPOS>BOND
     1     1     2    2
     2     2    19    1
     3    19    20    1
     4    20    21    1
     5    21    22   ar
     6    22    23   ar
     7    23    24   ar
     8    24    27    1
     9    27    28    2
    10    27    29    1
    11    29    30   ar
    12    30    31   ar
    13    31    32    1
    14    31    33   ar
    15    33    34   ar
    16    34    35   ar
    17    35    36    1
    18    24    25   ar
    19    25    26   ar
    20     2     3   am
    21     3     5    1
    22     5     6   ar
    23     6     7   ar
    24     7     8   ar
    25     8     9   ar
    26     9    11    1
    27    11    12    2
    28    11    13   am
    29    13    15    1
    30    15    16    1
    31    16    17    1
    32    17    18    1
    33     9    10   ar
    34    26    21   ar
    35    10     5   ar
    36    35    29   ar
    37    18    16    1
    38     3     4    1
    39    13    14    1
@<TRIPOS>MOLECULE
*****
 36 39 0 0 0
SMALL
GASTEIGER

@<TRIPOS>ATOM
      1 O           6.3394   -6.2407   26.7322 O.2     1  UNL1       -0.2707
      2 C           7.4530   -5.3095   26.3542 C.2     1  UNL1        0.2707
      3 N           8.1861   -4.5465   27.4173 N.am    1  UNL1       -0.2808
      4 H           8.9170   -3.9354   27.1691 H       1  UNL1        0.1550
      5 C           7.8057   -4.7146   28.8584 C.ar    1  UNL1        0.0536
      6 C           8.2067   -5.9552   29.6002 C.ar    1  UNL1        0.0353
      7 C           7.8263   -6.1233   31.0414 C.ar    1  UNL1        0.1003
      8 N           7.0449   -5.0509   31.7408 N.ar    1  UNL1       -0.2392
      9 C           6.6439   -3.8103   30.9991 C.ar    1  UNL1        0.1357
     10 C           7.0243   -3.6422   29.5579 C.ar    1  UNL1        0.0384
     11 C           5.8625   -2.7379   31.6986 C.2     1  UNL1        0.2636
     12 O           5.9525   -1.3164   31.2280 O.2     1  UNL1       -0.2685
     13 N           4.9910   -3.0868   32.8685 N.am    1  UNL1       -0.2996
     14 H           4.9319   -4.0198   33.1773 H       1  UNL1        0.1498
     15 C           4.2096   -2.0144   33.5680 C.3     1  UNL1        0.0897
     16 C           4.8920   -1.1084   34.5495 C.3     1  UNL1        0.0196
     17 C           6.0803   -0.2842   34.9478 C.3     1  UNL1        0.0017
     18 C           4.8856   -0.3633   35.8514 C.3     1  UNL1        0.0017
     19 C           7.8334   -5.1414   24.9129 C.3     1  UNL1        0.2897
     20 O           7.6644   -3.8101   24.2430 O.3     1  UNL1       -0.4656
     21 C           6.6746   -3.6523   23.1269 C.ar    1  UNL1        0.1393
     22 C           5.2681   -3.2257   23.4266 C.ar    1  UNL1        0.0370
     23 C           4.2784   -3.0679   22.3105 C.ar    1  UNL1        0.0063
     24 C           4.6951   -3.3368   20.8949 C.ar    1  UNL1        0.0392
     25 C           6.1016   -3.7635   20.5953 C.ar    1  UNL1        0.0063
     26 C           7.0913   -3.9212   21.7113 C.ar    1  UNL1        0.0370
     27 C           3.7054   -3.1791   19.7788 C.2     1  UNL1        0.1961
     28 O           3.2290   -4.3839   19.0229 O.2     1  UNL1       -0.2866
     29 C           3.1919   -1.8165   19.4188 C.ar    1  UNL1        0.0460
     30 C           1.9499   -1.2863   20.0716 C.ar    1  UNL1        0.0151
     31 C           1.4364    0.0763   19.7115 C.ar    1  UNL1        0.0578
     32 CL          0.1944    0.6065   20.3643 Cl      1  UNL1       -0.0822
     33 C           2.1651    0.9088   18.6986 C.ar    1  UNL1        0.0119
     34 C           3.4071    0.3786   18.0457 C.ar    1  UNL1        0.0077
     35 C           3.9206   -0.9840   18.4058 C.ar    1  UNL1        0.0377
     36 BR          5.1626   -1.5141   17.7529 Br      1  UNL1       -0.0489
@<TRIPOS>BOND
     1     1     2    2
     2     2    19    1
     3    19    20    1
     4    20    21    1
     5    21    22   ar
     6    22    23   ar
     7    23    24   ar
     8    24    27    1
     9    27    28    2
    10    27    29    1
    11    29    30   ar
    12    30    31   ar
    13    31    32    1
    14    31    33   ar
    15    33    34   ar
    16    34    35   ar
    17    35    36    1
    18    24    25   ar
    19    25    26   ar
    20     2     3   am
    21     3     5    1
    22     5     6   ar
    23     6     7   ar
    24     7     8   ar
    25     8     9   ar
    26     9    11    1
    27    11    12    2
    28    11    13   am
    29    13    15    1
    30    15    16    1
    31    16    17    1
    32    17    18    1
    33     9    10   ar
    34    26    21   ar
    35    10     5   ar
    36    35    29   ar
    37    18    16    1
    38     3     4    1
    39    13    14    1
@<TRIPOS>MOLECULE
*****
 36 39 0 0 0
SMALL
GASTEIGER

@<TRIPOS>ATOM
      1 O          -1.8598    4.7277   19.9215 O.2     1  UNL1       -0.2707
      2 C          -1.9410    3.3318   20.4647 C.2     1  UNL1        0.2707
      3 N          -3.2775    2.6789   20.6583 N.am    1  UNL1       -0.2808
      4 H          -3.3307    1.7627   21.0147 H       1  UNL1        0.1550
      5 C          -4.5328    3.4219   20.3088 C.ar    1  UNL1        0.0536
      6 C          -4.9631    3.5352   18.8763 C.ar    1  UNL1        0.0353
      7 C          -6.2184    4.2781   18.5268 C.ar    1  UNL1        0.1003
      8 N          -7.0434    4.9078   19.6097 N.ar    1  UNL1       -0.2392
      9 C          -6.6131    4.7945   21.0422 C.ar    1  UNL1        0.1357
     10 C          -5.3578    4.0515   21.3917 C.ar    1  UNL1        0.0384
     11 C          -7.4382    5.4242   22.1251 C.2     1  UNL1        0.2636
     12 O          -7.8273    6.8696   22.0271 O.2     1  UNL1       -0.2685
     13 N          -7.8740    4.6086   23.3061 N.am    1  UNL1       -0.2996
     14 H          -7.6186    3.6600   23.3705 H       1  UNL1        0.1498
     15 C          -8.6991    5.2383   24.3891 C.3     1  UNL1        0.0897
     16 C         -10.1144    4.7929   24.6086 C.3     1  UNL1        0.0196
     17 C         -11.5642    5.1228   24.8068 C.3     1  UNL1        0.0017
     18 C         -11.1162    3.6914   24.7908 C.3     1  UNL1        0.0017
     19 C          -0.6856    2.5888   20.8142 C.3     1  UNL1        0.2897
     20 O          -0.6020    1.1086   20.5861 O.3     1  UNL1       -0.4656
     21 C           0.6515    0.5060   20.0242 C.ar    1  UNL1        0.1393
     22 C           1.1676    0.9568   18.6899 C.ar    1  UNL1        0.0370
     23 C           2.4210    0.3541   18.1281 C.ar    1  UNL1        0.0063
     24 C           3.1583   -0.6994   18.9005 C.ar    1  UNL1        0.0392
     25 C           2.6422   -1.1501   20.2348 C.ar    1  UNL1        0.0063
     26 C           1.3888   -0.5475   20.7966 C.ar    1  UNL1        0.0370
     27 C           4.4118   -1.3020   18.3386 C.2     1  UNL1        0.1961
     28 O           4.6186   -1.3542   16.8538 O.2     1  UNL1       -0.2866
     29 C           5.4584   -1.8524   19.2614 C.ar    1  UNL1        0.0460
     30 C           6.4676   -0.9338   19.8839 C.ar    1  UNL1        0.0151
     31 C           7.5142   -1.4843   20.8068 C.ar    1  UNL1        0.0578
     32 CL          8.5234   -0.5656   21.4292 Cl      1  UNL1       -0.0822
     33 C           7.5516   -2.9534   21.1071 C.ar    1  UNL1        0.0119
     34 C           6.5424   -3.8721   20.4846 C.ar    1  UNL1        0.0077
     35 C           5.4958   -3.3216   19.5618 C.ar    1  UNL1        0.0377
     36 BR          4.4866   -4.2403   18.9393 Br      1  UNL1       -0.0489
@<TRIPOS>BOND
     1     1     2    2
     2     2    19    1
     3    19    20    1
     4    20    21    1
     5    21    22   ar
     6    22    23   ar
     7    23    24   ar
     8    24    27    1
     9    27    28    2
    10    27    29    1
    11    29    30   ar
    12    30    31   ar
    13    31    32    1
    14    31    33   ar
    15    33    34   ar
    16    34    35   ar
    17    35    36    1
    18    24    25   ar
    19    25    26   ar
    20     2     3   am
    21     3     5    1
    22     5     6   ar
    23     6     7   ar
    24     7     8   ar
    25     8     9   ar
    26     9    11    1
    27    11    12    2
    28    11    13   am
    29    13    15    1
    30    15    16    1
    31    16    17    1
    32    17    18    1
    33     9    10   ar
    34    26    21   ar
    35    10     5   ar
    36    35    29   ar
    37    18    16    1
    38     3     4    1
    39    13    14    1
@<TRIPOS>MOLECULE
*****
 36 39 0 0 0
SMALL
GASTEIGER

@<TRIPOS>ATOM
      1 O           8.8699   -3.7305   25.1987 O.2     1  UNL1       -0.2707
      2 C           7.4359   -3.8462   24.7742 C.2     1  UNL1        0.2707
      3 N           6.5009   -4.7450   25.5278 N.am    1  UNL1       -0.2808
      4 H           5.5597   -4.8210   25.2492 H       1  UNL1        0.1550
      5 C           6.9999   -5.5281   26.7058 C.ar    1  UNL1        0.0536
      6 C           7.7577   -6.8048   26.4911 C.ar    1  UNL1        0.0353
      7 C           8.2567   -7.5878   27.6691 C.ar    1  UNL1        0.1003
      8 N           7.9981   -7.0943   29.0618 N.ar    1  UNL1       -0.2392
      9 C           7.2404   -5.8177   29.2765 C.ar    1  UNL1        0.1357
     10 C           6.7413   -5.0346   28.0984 C.ar    1  UNL1        0.0384
     11 C           6.9817   -5.3241   30.6691 C.2     1  UNL1        0.2636
     12 O           6.8308   -6.3029   31.7958 O.2     1  UNL1       -0.2685
     13 N           6.8739   -3.8519   30.9352 N.am    1  UNL1       -0.2996
     14 H           6.9730   -3.2095   30.1957 H       1  UNL1        0.1498
     15 C           6.6153   -3.3584   32.3278 C.3     1  UNL1        0.0897
     16 C           5.3570   -2.6014   32.6337 C.3     1  UNL1        0.0196
     17 C           4.2696   -1.6615   32.2045 C.3     1  UNL1        0.0017
     18 C           4.2649   -2.2300   33.5926 C.3     1  UNL1        0.0017
     19 C           6.9369   -3.0631   23.5962 C.3     1  UNL1        0.2897
     20 O           6.1121   -3.7390   22.5412 O.3     1  UNL1       -0.4656
     21 C           5.5893   -2.9496   21.3778 C.ar    1  UNL1        0.1393
     22 C           6.5060   -2.5804   20.2493 C.ar    1  UNL1        0.0370
     23 C           5.9831   -1.7911   19.0860 C.ar    1  UNL1        0.0063
     24 C           4.5436   -1.3709   19.0510 C.ar    1  UNL1        0.0392
     25 C           3.6269   -1.7401   20.1794 C.ar    1  UNL1        0.0063
     26 C           4.1498   -2.5295   21.3428 C.ar    1  UNL1        0.0370
     27 C           4.0207   -0.5815   17.8875 C.2     1  UNL1        0.1961
     28 O           4.0271   -1.1796   16.5119 O.2     1  UNL1       -0.2866
     29 C           3.4915    0.8058   18.0997 C.ar    1  UNL1        0.0460
     30 C           2.0318    1.0184   18.3715 C.ar    1  UNL1        0.0151
     31 C           1.5026    2.4059   18.5836 C.ar    1  UNL1        0.0578
     32 CL          0.0428    2.6184   18.8554 Cl      1  UNL1       -0.0822
     33 C           2.4332    3.5807   18.5240 C.ar    1  UNL1        0.0119
     34 C           3.8930    3.3682   18.2522 C.ar    1  UNL1        0.0077
     35 C           4.4222    1.9808   18.0401 C.ar    1  UNL1        0.0377
     36 BR          5.8819    1.7683   17.7683 Br      1  UNL1       -0.0489
@<TRIPOS>BOND
     1     1     2    2
     2     2    19    1
     3    19    20    1
     4    20    21    1
     5    21    22   ar
     6    22    23   ar
     7    23    24   ar
     8    24    27    1
     9    27    28    2
    10    27    29    1
    11    29    30   ar
    12    30    31   ar
    13    31    32    1
    14    31    33   ar
    15    33    34   ar
    16    34    35   ar
    17    35    36    1
    18    24    25   ar
    19    25    26   ar
    20     2     3   am
    21     3     5    1
    22     5     6   ar
    23     6     7   ar
    24     7     8   ar
    25     8     9   ar
    26     9    11    1
    27    11    12    2
    28    11    13   am
    29    13    15    1
    30    15    16    1
    31    16    17    1
    32    17    18    1
    33     9    10   ar
    34    26    21   ar
    35    10     5   ar
    36    35    29   ar
    37    18    16    1
    38     3     4    1
    39    13    14    1
@<TRIPOS>MOLECULE
*****
 36 39 0 0 0
SMALL
GASTEIGER

@<TRIPOS>ATOM
      1 O           1.9490    3.1539   22.9517 O.2     1  UNL1       -0.2707
      2 C           0.7267    2.2897   22.8566 C.2     1  UNL1        0.2707
      3 N           0.5915    1.0823   23.7362 N.am    1  UNL1       -0.2808
      4 H          -0.2107    0.5150   23.6738 H       1  UNL1        0.1550
      5 C           1.6787    0.7390   24.7110 C.ar    1  UNL1        0.0536
      6 C           1.6035    1.2365   26.1241 C.ar    1  UNL1        0.0353
      7 C           2.6907    0.8933   27.0989 C.ar    1  UNL1        0.1003
      8 N           3.8530    0.0526   26.6606 N.ar    1  UNL1       -0.2392
      9 C           3.9283   -0.4449   25.2476 C.ar    1  UNL1        0.1357
     10 C           2.8410   -0.1017   24.2727 C.ar    1  UNL1        0.0384
     11 C           5.0906   -1.2856   24.8093 C.2     1  UNL1        0.2636
     12 O           6.4604   -0.6813   24.7162 O.2     1  UNL1       -0.2685
     13 N           4.8832   -2.7305   24.4640 N.am    1  UNL1       -0.2996
     14 H           3.9842   -3.1270   24.5251 H       1  UNL1        0.1498
     15 C           6.0456   -3.5712   24.0257 C.3     1  UNL1        0.0897
     16 C           6.8078   -4.3805   25.0327 C.3     1  UNL1        0.0196
     17 C           6.8275   -5.3942   26.1381 C.3     1  UNL1        0.0017
     18 C           8.1084   -4.7684   25.6715 C.3     1  UNL1        0.0017
     19 C          -0.3605    2.6330   21.8817 C.3     1  UNL1        0.2897
     20 O          -0.6181    1.7435   20.7017 O.3     1  UNL1       -0.4656
     21 C           0.5241    1.0440   20.0263 C.ar    1  UNL1        0.1393
     22 C           0.8998   -0.3486   20.4381 C.ar    1  UNL1        0.0370
     23 C           2.0419   -1.0480   19.7627 C.ar    1  UNL1        0.0063
     24 C           2.8084   -0.3549   18.6754 C.ar    1  UNL1        0.0392
     25 C           2.4327    1.0376   18.2636 C.ar    1  UNL1        0.0063
     26 C           1.2906    1.7371   18.9390 C.ar    1  UNL1        0.0370
     27 C           3.9506   -1.0544   18.0000 C.2     1  UNL1        0.1961
     28 O           3.9486   -1.2271   16.5099 O.2     1  UNL1       -0.2866
     29 C           5.0946   -1.5812   18.8145 C.ar    1  UNL1        0.0460
     30 C           6.2152   -0.6671   19.2129 C.ar    1  UNL1        0.0151
     31 C           7.3593   -1.1940   20.0275 C.ar    1  UNL1        0.0578
     32 CL          8.4800   -0.2799   20.4258 Cl      1  UNL1       -0.0822
     33 C           7.3828   -2.6348   20.4437 C.ar    1  UNL1        0.0119
     34 C           6.2622   -3.5489   20.0454 C.ar    1  UNL1        0.0077
     35 C           5.1181   -3.0221   19.2308 C.ar    1  UNL1        0.0377
     36 BR          3.9975   -3.9362   18.8325 Br      1  UNL1       -0.0489
@<TRIPOS>BOND
     1     1     2    2
     2     2    19    1
     3    19    20    1
     4    20    21    1
     5    21    22   ar
     6    22    23   ar
     7    23    24   ar
     8    24    27    1
     9    27    28    2
    10    27    29    1
    11    29    30   ar
    12    30    31   ar
    13    31    32    1
    14    31    33   ar
    15    33    34   ar
    16    34    35   ar
    17    35    36    1
    18    24    25   ar
    19    25    26   ar
    20     2     3   am
    21     3     5    1
    22     5     6   ar
    23     6     7   ar
    24     7     8   ar
    25     8     9   ar
    26     9    11    1
    27    11    12    2
    28    11    13   am
    29    13    15    1
    30    15    16    1
    31    16    17    1
    32    17    18    1
    33     9    10   ar
    34    26    21   ar
    35    10     5   ar
    36    35    29   ar
    37    18    16    1
    38     3     4    1
    39    13    14    1
@<TRIPOS>MOLECULE
*****
 36 39 0 0 0
SMALL
GASTEIGER

@<TRIPOS>ATOM
      1 O          -1.6528    5.4256   21.0835 O.2     1  UNL1       -0.2707
      2 C          -1.8664    4.2100   20.2310 C.2     1  UNL1        0.2707
      3 N          -2.9226    3.2110   20.6005 N.am    1  UNL1       -0.2808
      4 H          -3.0628    2.4132   20.0410 H       1  UNL1        0.1550
      5 C          -3.7652    3.4277   21.8224 C.ar    1  UNL1        0.0536
      6 C          -5.2326    3.7056   21.6820 C.ar    1  UNL1        0.0353
      7 C          -6.0751    3.9223   22.9039 C.ar    1  UNL1        0.1003
      8 N          -5.4504    3.8611   24.2663 N.ar    1  UNL1       -0.2392
      9 C          -3.9831    3.5832   24.4067 C.ar    1  UNL1        0.1357
     10 C          -3.1404    3.3665   23.1847 C.ar    1  UNL1        0.0384
     11 C          -3.3583    3.5220   25.7690 C.2     1  UNL1        0.2636
     12 O          -4.1136    4.0244   26.9637 O.2     1  UNL1       -0.2685
     13 N          -1.9784    2.9584   25.9367 N.am    1  UNL1       -0.2996
     14 H          -1.4827    2.6286   25.1526 H       1  UNL1        0.1498
     15 C          -1.3537    2.8972   27.2990 C.3     1  UNL1        0.0897
     16 C          -1.0057    1.5702   27.9056 C.3     1  UNL1        0.0196
     17 C          -1.3622    0.4129   28.7907 C.3     1  UNL1        0.0017
     18 C          -0.0462    0.4291   28.0711 C.3     1  UNL1        0.0017
     19 C          -1.0238    3.9933   19.0091 C.3     1  UNL1        0.2897
     20 O           0.4700    4.0927   19.1009 O.3     1  UNL1       -0.4656
     21 C           1.3238    2.9131   18.7403 C.ar    1  UNL1        0.1393
     22 C           2.8043    3.0830   18.5699 C.ar    1  UNL1        0.0370
     23 C           3.6579    1.9035   18.2094 C.ar    1  UNL1        0.0063
     24 C           3.0310    0.5541   18.0192 C.ar    1  UNL1        0.0392
     25 C           1.5504    0.3842   18.1897 C.ar    1  UNL1        0.0063
     26 C           0.6968    1.5637   18.5502 C.ar    1  UNL1        0.0370
     27 C           3.8847   -0.6255   17.6587 C.2     1  UNL1        0.1961
     28 O           3.8671   -1.1640   16.2588 O.2     1  UNL1       -0.2866
     29 C           4.7559   -1.2664   18.6979 C.ar    1  UNL1        0.0460
     30 C           4.1554   -2.1957   19.7107 C.ar    1  UNL1        0.0151
     31 C           5.0267   -2.8366   20.7501 C.ar    1  UNL1        0.0578
     32 CL          4.4262   -3.7659   21.7629 Cl      1  UNL1       -0.0822
     33 C           6.4985   -2.5482   20.7765 C.ar    1  UNL1        0.0119
     34 C           7.0990   -1.6189   19.7637 C.ar    1  UNL1        0.0077
     35 C           6.2277   -0.9780   18.7245 C.ar    1  UNL1        0.0377
     36 BR          6.8283   -0.0487   17.7117 Br      1  UNL1       -0.0489
@<TRIPOS>BOND
     1     1     2    2
     2     2    19    1
     3    19    20    1
     4    20    21    1
     5    21    22   ar
     6    22    23   ar
     7    23    24   ar
     8    24    27    1
     9    27    28    2
    10    27    29    1
    11    29    30   ar
    12    30    31   ar
    13    31    32    1
    14    31    33   ar
    15    33    34   ar
    16    34    35   ar
    17    35    36    1
    18    24    25   ar
    19    25    26   ar
    20     2     3   am
    21     3     5    1
    22     5     6   ar
    23     6     7   ar
    24     7     8   ar
    25     8     9   ar
    26     9    11    1
    27    11    12    2
    28    11    13   am
    29    13    15    1
    30    15    16    1
    31    16    17    1
    32    17    18    1
    33     9    10   ar
    34    26    21   ar
    35    10     5   ar
    36    35    29   ar
    37    18    16    1
    38     3     4    1
    39    13    14    1
@<TRIPOS>MOLECULE
*****
 36 39 0 0 0
SMALL
GASTEIGER

@<TRIPOS>ATOM
      1 O           8.8756   -5.8086   28.8407 O.2     1  UNL1       -0.2707
      2 C           7.4004   -5.7854   29.1114 C.2     1  UNL1        0.2707
      3 N           6.4276   -5.9106   27.9765 N.am    1  UNL1       -0.2808
      4 H           5.4594   -5.8954   28.1541 H       1  UNL1        0.1550
      5 C           6.9301   -6.0590   26.5710 C.ar    1  UNL1        0.0536
      6 C           7.5447   -7.3533   26.1269 C.ar    1  UNL1        0.0353
      7 C           8.0471   -7.5017   24.7214 C.ar    1  UNL1        0.1003
      8 N           7.9350   -6.3558   23.7599 N.ar    1  UNL1       -0.2392
      9 C           7.3204   -5.0616   24.2039 C.ar    1  UNL1        0.1357
     10 C           6.8180   -4.9131   25.6095 C.ar    1  UNL1        0.0384
     11 C           7.2083   -3.9157   23.2425 C.2     1  UNL1        0.2636
     12 O           7.7880   -2.5787   23.5982 O.2     1  UNL1       -0.2685
     13 N           6.5166   -4.1068   21.9253 N.am    1  UNL1       -0.2996
     14 H           6.1361   -4.9843   21.6919 H       1  UNL1        0.1498
     15 C           6.4045   -2.9609   20.9638 C.3     1  UNL1        0.0897
     16 C           5.7718   -3.1688   19.6198 C.3     1  UNL1        0.0196
     17 C           5.6292   -2.7825   18.1775 C.3     1  UNL1        0.0017
     18 C           4.8184   -3.9150   18.7343 C.3     1  UNL1        0.0017
     19 C           6.8980   -5.6370   30.5170 C.3     1  UNL1        0.2897
     20 O           7.2591   -4.4214   31.3181 O.3     1  UNL1       -0.4656
     21 C           6.2960   -3.2758   31.4182 C.ar    1  UNL1        0.1393
     22 C           5.5214   -3.0555   32.6837 C.ar    1  UNL1        0.0370
     23 C           4.5583   -1.9100   32.7838 C.ar    1  UNL1        0.0063
     24 C           4.3698   -0.9846   31.6184 C.ar    1  UNL1        0.0392
     25 C           5.1443   -1.2049   30.3529 C.ar    1  UNL1        0.0063
     26 C           6.1074   -2.3505   30.2528 C.ar    1  UNL1        0.0370
     27 C           3.4066    0.1610   31.7185 C.2     1  UNL1        0.1961
     28 O           3.2034    0.8574   33.0314 O.2     1  UNL1       -0.2866
     29 C           2.6467    0.6102   30.5057 C.ar    1  UNL1        0.0460
     30 C           1.3997   -0.1132   30.0915 C.ar    1  UNL1        0.0151
     31 C           0.6398    0.3360   28.8787 C.ar    1  UNL1        0.0578
     32 CL         -0.6072   -0.3874   28.4644 Cl      1  UNL1       -0.0822
     33 C           1.1270    1.5086   28.0802 C.ar    1  UNL1        0.0119
     34 C           2.3741    2.2320   28.4944 C.ar    1  UNL1        0.0077
     35 C           3.1339    1.7828   29.7071 C.ar    1  UNL1        0.0377
     36 BR          4.3810    2.5062   30.1214 Br      1  UNL1       -0.0489
@<TRIPOS>BOND
     1     1     2    2
     2     2    19    1
     3    19    20    1
     4    20    21    1
     5    21    22   ar
     6    22    23   ar
     7    23    24   ar
     8    24    27    1
     9    27    28    2
    10    27    29    1
    11    29    30   ar
    12    30    31   ar
    13    31    32    1
    14    31    33   ar
    15    33    34   ar
    16    34    35   ar
    17    35    36    1
    18    24    25   ar
    19    25    26   ar
    20     2     3   am
    21     3     5    1
    22     5     6   ar
    23     6     7   ar
    24     7     8   ar
    25     8     9   ar
    26     9    11    1
    27    11    12    2
    28    11    13   am
    29    13    15    1
    30    15    16    1
    31    16    17    1
    32    17    18    1
    33     9    10   ar
    34    26    21   ar
    35    10     5   ar
    36    35    29   ar
    37    18    16    1
    38     3     4    1
    39    13    14    1
