@<TRIPOS>MOLECULE
*****
 38 44 0 0 0
SMALL
GASTEIGER

@<TRIPOS>ATOM
      1 C           3.7531   -0.8547   16.8047 C.3     1  UNL1        0.0339
      2 C           3.5614   -0.7834   18.2906 C.3     1  UNL1        0.1349
      3 C           4.3827   -1.6534   19.1954 C.3     1  UNL1        0.1205
      4 N           4.1910   -1.5821   20.6814 N.pl3   1  UNL1       -0.3019
      5 C           5.0123   -2.4520   21.5861 C.ar    1  UNL1        0.0749
      6 C           4.8206   -2.3807   23.0721 C.ar    1  UNL1       -0.0053
      7 C           5.6420   -3.2508   23.9769 C.ar    1  UNL1        0.0032
      8 C           6.6549   -4.1921   23.3956 C.ar    1  UNL1        0.0745
      9 C           7.6029   -5.1646   24.0324 C.ar    1  UNL1        0.1821
     10 N           8.3804   -5.8370   22.9400 N.ar    1  UNL1       -0.0613
     11 O           7.9130   -5.2800   21.6281 O.2     1  UNL1       -0.3498
     12 C           6.8466   -4.2634   21.9096 C.ar    1  UNL1        0.2065
     13 C           6.0253   -3.3934   21.0049 C.ar    1  UNL1        0.1899
     14 F           6.2170   -3.4647   19.5189 F       1  UNL1       -0.1996
     15 C           3.8077   -1.4395   23.6534 C.3     1  UNL1        0.0468
     16 C           2.9864   -0.5695   22.7486 C.3     1  UNL1        0.1606
     17 C           2.7948   -0.4982   24.2346 C.2     1  UNL1        0.2387
     18 O           3.6160   -1.3682   25.1394 O.2     1  UNL1       -0.2741
     19 N           1.7818    0.4432   24.8159 N.am    1  UNL1       -0.2389
     20 C           0.9605    1.3131   23.9111 C.2     1  UNL1        0.3122
     21 O          -0.0525    2.2545   24.4924 O.2     1  UNL1       -0.2520
     22 N           1.1522    1.2418   22.4251 N.am    1  UNL1       -0.2389
     23 C           2.1651    0.3006   21.8439 C.2     1  UNL1        0.2387
     24 O           2.1277    0.3983   21.0536 O.2     1  UNL1       -0.2741
     25 C           3.1781   -0.6408   21.2626 C.3     1  UNL1        0.1166
     26 C           2.3568    0.2293   20.3579 C.3     1  UNL1        0.1341
     27 C           1.3438    1.1705   20.9391 C.3     1  UNL1        0.0338
     28 O           2.5484    0.1580   18.8719 O.3     1  UNL1       -0.3553
     29 H           1.6560    0.4900   25.7912 H       1  UNL1        0.1591
     30 H           0.6131    1.8129   21.8313 H       1  UNL1        0.1591
     31 N           7.7478   -5.4200   25.5034 N.am    1  UNL1       -0.2035
     32 C           8.0025   -4.3834   26.5573 C.3     1  UNL1        0.1430
     33 C           8.0756   -5.0794   27.8840 C.3     1  UNL1        0.1564
     34 C           8.3260   -3.8433   28.6960 C.3     1  UNL1        0.0456
     35 C           8.2417   -5.1801   29.3714 C.3     1  UNL1        0.0456
     36 O           7.8661   -6.5462   27.6501 O.3     1  UNL1       -0.4398
     37 C           7.6635   -6.7567   26.1787 C.2     1  UNL1        0.4098
     38 O           7.4195   -8.0728   25.5017 O.2     1  UNL1       -0.2258
@<TRIPOS>BOND
     1     2     1    1
     2     2     3    1
     3     3     4    1
     4     4     5    1
     5     5     6   ar
     6     6     7   ar
     7     7     8   ar
     8     8     9   ar
     9     9    31    1
    10    31    32    1
    11    32    33    1
    12    33    34    1
    13    34    35    1
    14    33    36    1
    15    36    37    1
    16    37    38    2
    17     9    10   ar
    18    10    11   ar
    19    11    12   ar
    20    12    13   ar
    21    13    14    1
    22     6    15    1
    23    15    16    1
    24    16    17    1
    25    17    18    2
    26    17    19   am
    27    19    20   am
    28    20    21    2
    29    20    22   am
    30    22    23   am
    31    23    24    2
    32    25    16    1
    33    25    26    1
    34    26    27    1
    35    26    28    1
    36    28     2    1
    37    25     4    1
    38    13     5   ar
    39    23    16    1
    40    12     8   ar
    41    37    31   am
    42    35    33    1
    43    19    29    1
    44    22    30    1
@<TRIPOS>MOLECULE
*****
 38 44 0 0 0
SMALL
GASTEIGER

@<TRIPOS>ATOM
      1 C           7.9085   -2.8977   28.5463 C.3     1  UNL1        0.0339
      2 C           6.6476   -2.1562   28.8787 C.3     1  UNL1        0.1349
      3 C           6.3835   -1.7204   30.2894 C.3     1  UNL1        0.1205
      4 N           5.1227   -0.9789   30.6218 N.pl3   1  UNL1       -0.3019
      5 C           4.8586   -0.5431   32.0325 C.ar    1  UNL1        0.0749
      6 C           3.5978    0.1984   32.3649 C.ar    1  UNL1       -0.0053
      7 C           3.3337    0.6342   33.7758 C.ar    1  UNL1        0.0032
      8 C           4.3305    0.3285   34.8542 C.ar    1  UNL1        0.0745
      9 C           4.3432    0.6291   36.3237 C.ar    1  UNL1        0.1821
     10 N           5.6119    0.0734   36.8996 N.ar    1  UNL1       -0.0613
     11 O           6.3832   -0.5707   35.7859 O.2     1  UNL1       -0.3498
     12 C           5.5913   -0.4130   34.5218 C.ar    1  UNL1        0.2065
     13 C           5.8554   -0.8488   33.1110 C.ar    1  UNL1        0.1899
     14 F           7.1162   -1.5903   32.7787 F       1  UNL1       -0.1996
     15 C           2.6010    0.5040   31.2865 C.3     1  UNL1        0.0468
     16 C           2.8651    0.0682   29.8758 C.3     1  UNL1        0.1606
     17 C           1.6042    0.8097   30.2081 C.2     1  UNL1        0.2387
     18 O           1.3401    1.2455   31.6189 O.2     1  UNL1       -0.2741
     19 N           0.6074    1.1154   29.1296 N.am    1  UNL1       -0.2389
     20 C           0.8715    0.6796   27.7189 C.2     1  UNL1        0.3122
     21 O          -0.1253    0.9853   26.6404 O.2     1  UNL1       -0.2520
     22 N           2.1324   -0.0619   27.3865 N.am    1  UNL1       -0.2389
     23 C           3.1291   -0.3676   28.4649 C.2     1  UNL1        0.2387
     24 O           3.7249   -0.7596   28.1087 O.2     1  UNL1       -0.2741
     25 C           4.1259   -0.6732   29.5434 C.3     1  UNL1        0.1166
     26 C           4.3900   -1.1090   28.1325 C.3     1  UNL1        0.1341
     27 C           3.3932   -0.8034   27.0542 C.3     1  UNL1        0.0338
     28 O           5.6508   -1.8505   27.8002 O.3     1  UNL1       -0.3553
     29 H          -0.2201    1.6021   29.3478 H       1  UNL1        0.1591
     30 H           2.3057   -0.3479   26.4606 H       1  UNL1        0.1591
     31 N           3.2747    1.3575   37.0839 N.am    1  UNL1       -0.2035
     32 C           2.5188    0.8295   38.2670 C.3     1  UNL1        0.1430
     33 C           1.5516    1.8874   38.7088 C.3     1  UNL1        0.1564
     34 C           0.9725    1.1040   39.8494 C.3     1  UNL1        0.0456
     35 C           0.4724    2.4883   39.5600 C.3     1  UNL1        0.0456
     36 O           1.7096    3.0693   37.7986 O.3     1  UNL1       -0.4398
     37 C           2.7747    2.7417   36.7944 C.2     1  UNL1        0.4098
     38 O           3.2552    3.6406   35.6939 O.2     1  UNL1       -0.2258
@<TRIPOS>BOND
     1     2     1    1
     2     2     3    1
     3     3     4    1
     4     4     5    1
     5     5     6   ar
     6     6     7   ar
     7     7     8   ar
     8     8     9   ar
     9     9    31    1
    10    31    32    1
    11    32    33    1
    12    33    34    1
    13    34    35    1
    14    33    36    1
    15    36    37    1
    16    37    38    2
    17     9    10   ar
    18    10    11   ar
    19    11    12   ar
    20    12    13   ar
    21    13    14    1
    22     6    15    1
    23    15    16    1
    24    16    17    1
    25    17    18    2
    26    17    19   am
    27    19    20   am
    28    20    21    2
    29    20    22   am
    30    22    23   am
    31    23    24    2
    32    25    16    1
    33    25    26    1
    34    26    27    1
    35    26    28    1
    36    28     2    1
    37    25     4    1
    38    13     5   ar
    39    23    16    1
    40    12     8   ar
    41    37    31   am
    42    35    33    1
    43    19    29    1
    44    22    30    1
@<TRIPOS>MOLECULE
*****
 38 44 0 0 0
SMALL
GASTEIGER

@<TRIPOS>ATOM
      1 C          -2.0732    4.2636   19.1775 C.3     1  UNL1        0.0339
      2 C          -1.2771    3.5248   20.2121 C.3     1  UNL1        0.1349
      3 C          -0.1945    2.5766   19.7893 C.3     1  UNL1        0.1205
      4 N           0.6016    1.8378   20.8239 N.pl3   1  UNL1       -0.3019
      5 C           1.6842    0.8895   20.4011 C.ar    1  UNL1        0.0749
      6 C           2.4803    0.1507   21.4357 C.ar    1  UNL1       -0.0053
      7 C           3.5629   -0.7976   21.0129 C.ar    1  UNL1        0.0032
      8 C           3.8494   -1.0070   19.5555 C.ar    1  UNL1        0.0745
      9 C           4.8472   -1.8710   18.8428 C.ar    1  UNL1        0.1821
     10 N           4.6678   -1.6662   17.3677 N.ar    1  UNL1       -0.0613
     11 O           3.5591   -0.6756   17.1688 O.2     1  UNL1       -0.3498
     12 C           3.0533   -0.2682   18.5209 C.ar    1  UNL1        0.2065
     13 C           1.9707    0.6800   18.9437 C.ar    1  UNL1        0.1899
     14 F           1.1746    1.4188   17.9091 F       1  UNL1       -0.1996
     15 C           2.1938    0.3602   22.8931 C.3     1  UNL1        0.0468
     16 C           1.1112    1.3084   23.3159 C.3     1  UNL1        0.1606
     17 C           1.9073    0.5696   24.3505 C.2     1  UNL1        0.2387
     18 O           2.9899   -0.3786   23.9277 O.2     1  UNL1       -0.2741
     19 N           1.6207    0.7791   25.8080 N.am    1  UNL1       -0.2389
     20 C           0.5381    1.7273   26.2307 C.2     1  UNL1        0.3122
     21 O           0.2516    1.9368   27.6882 O.2     1  UNL1       -0.2520
     22 N          -0.2580    2.4661   25.1961 N.am    1  UNL1       -0.2389
     23 C           0.0285    2.2567   23.7387 C.2     1  UNL1        0.2387
     24 O          -0.4837    2.7236   23.3448 O.2     1  UNL1       -0.2741
     25 C           0.3151    2.0472   22.2813 C.3     1  UNL1        0.1166
     26 C          -0.7676    2.9955   22.7041 C.3     1  UNL1        0.1341
     27 C          -1.0541    3.2049   24.1615 C.3     1  UNL1        0.0338
     28 O          -1.5637    3.7343   21.6695 O.3     1  UNL1       -0.3553
     29 H           2.1432    0.2942   26.4870 H       1  UNL1        0.1591
     30 H          -0.9685    3.0885   25.4736 H       1  UNL1        0.1591
     31 N           5.8486   -2.7802   19.4913 N.am    1  UNL1       -0.2035
     32 C           7.3286   -2.5488   19.5696 C.3     1  UNL1        0.1430
     33 C           7.9405   -3.7059   20.3021 C.3     1  UNL1        0.1564
     34 C           9.3544   -3.2111   20.2238 C.3     1  UNL1        0.0456
     35 C           9.0516   -4.5113   20.9080 C.3     1  UNL1        0.0456
     36 O           6.8387   -4.6525   20.6766 O.3     1  UNL1       -0.4398
     37 C           5.5458   -4.0803   20.1755 C.2     1  UNL1        0.4098
     38 O           4.1885   -4.6995   20.3312 O.2     1  UNL1       -0.2258
@<TRIPOS>BOND
     1     2     1    1
     2     2     3    1
     3     3     4    1
     4     4     5    1
     5     5     6   ar
     6     6     7   ar
     7     7     8   ar
     8     8     9   ar
     9     9    31    1
    10    31    32    1
    11    32    33    1
    12    33    34    1
    13    34    35    1
    14    33    36    1
    15    36    37    1
    16    37    38    2
    17     9    10   ar
    18    10    11   ar
    19    11    12   ar
    20    12    13   ar
    21    13    14    1
    22     6    15    1
    23    15    16    1
    24    16    17    1
    25    17    18    2
    26    17    19   am
    27    19    20   am
    28    20    21    2
    29    20    22   am
    30    22    23   am
    31    23    24    2
    32    25    16    1
    33    25    26    1
    34    26    27    1
    35    26    28    1
    36    28     2    1
    37    25     4    1
    38    13     5   ar
    39    23    16    1
    40    12     8   ar
    41    37    31   am
    42    35    33    1
    43    19    29    1
    44    22    30    1
@<TRIPOS>MOLECULE
*****
 38 44 0 0 0
SMALL
GASTEIGER

@<TRIPOS>ATOM
      1 C          -1.1791    4.0822   17.9375 C.3     1  UNL1        0.0339
      2 C          -0.3361    3.1008   18.6966 C.3     1  UNL1        0.1349
      3 C          -0.4421    3.0192   20.1906 C.3     1  UNL1        0.1205
      4 N           0.4008    2.0378   20.9498 N.pl3   1  UNL1       -0.3019
      5 C           0.2948    1.9562   22.4438 C.ar    1  UNL1        0.0749
      6 C           1.1378    0.9748   23.2030 C.ar    1  UNL1       -0.0053
      7 C           1.0318    0.8932   24.6971 C.ar    1  UNL1        0.0032
      8 C           0.0828    1.7929   25.4319 C.ar    1  UNL1        0.0745
      9 C          -0.2360    1.9388   26.8903 C.ar    1  UNL1        0.1821
     10 N          -1.2760    3.0104   27.0325 N.ar    1  UNL1       -0.0613
     11 O          -1.5999    3.5267   25.6619 O.2     1  UNL1       -0.3498
     12 C          -0.7601    2.7742   24.6727 C.ar    1  UNL1        0.2065
     13 C          -0.6542    2.8559   23.1787 C.ar    1  UNL1        0.1899
     14 F          -1.4971    3.8373   22.4195 F       1  UNL1       -0.1996
     15 C           2.0867    0.0751   22.4682 C.3     1  UNL1        0.0468
     16 C           2.1927    0.1568   20.9742 C.3     1  UNL1        0.1606
     17 C           3.0357   -0.8246   21.7334 C.2     1  UNL1        0.2387
     18 O           2.9297   -0.9062   23.2274 O.2     1  UNL1       -0.2741
     19 N           3.9847   -1.7243   20.9985 N.am    1  UNL1       -0.2389
     20 C           4.0907   -1.6427   19.5045 C.2     1  UNL1        0.3122
     21 O           5.0397   -2.5424   18.7696 O.2     1  UNL1       -0.2520
     22 N           3.2477   -0.6613   18.7453 N.am    1  UNL1       -0.2389
     23 C           2.2988    0.2384   19.4801 C.2     1  UNL1        0.2387
     24 O           1.9424    0.6837   18.9231 O.2     1  UNL1       -0.2741
     25 C           1.3498    1.1381   20.2150 C.3     1  UNL1        0.1166
     26 C           1.4558    1.2198   18.7209 C.3     1  UNL1        0.1341
     27 C           2.4048    0.3201   17.9861 C.3     1  UNL1        0.0338
     28 O           0.6129    2.2011   17.9617 O.3     1  UNL1       -0.3553
     29 H           4.5380   -2.3684   21.4967 H       1  UNL1        0.1591
     30 H           3.3173   -0.6077   17.7647 H       1  UNL1        0.1591
     31 N           0.3775    1.1514   28.0100 N.am    1  UNL1       -0.2035
     32 C           1.8431    1.0395   28.3093 C.3     1  UNL1        0.1430
     33 C           2.0045    0.1566   29.5112 C.3     1  UNL1        0.1564
     34 C           3.5018    0.2326   29.5615 C.3     1  UNL1        0.0456
     35 C           2.7574   -0.5811   30.5784 C.3     1  UNL1        0.0456
     36 O           0.6387   -0.2771   29.9547 O.3     1  UNL1       -0.4398
     37 C          -0.3668    0.3378   29.0268 C.2     1  UNL1        0.4098
     38 O          -1.8553    0.1687   29.1025 O.2     1  UNL1       -0.2258
@<TRIPOS>BOND
     1     2     1    1
     2     2     3    1
     3     3     4    1
     4     4     5    1
     5     5     6   ar
     6     6     7   ar
     7     7     8   ar
     8     8     9   ar
     9     9    31    1
    10    31    32    1
    11    32    33    1
    12    33    34    1
    13    34    35    1
    14    33    36    1
    15    36    37    1
    16    37    38    2
    17     9    10   ar
    18    10    11   ar
    19    11    12   ar
    20    12    13   ar
    21    13    14    1
    22     6    15    1
    23    15    16    1
    24    16    17    1
    25    17    18    2
    26    17    19   am
    27    19    20   am
    28    20    21    2
    29    20    22   am
    30    22    23   am
    31    23    24    2
    32    25    16    1
    33    25    26    1
    34    26    27    1
    35    26    28    1
    36    28     2    1
    37    25     4    1
    38    13     5   ar
    39    23    16    1
    40    12     8   ar
    41    37    31   am
    42    35    33    1
    43    19    29    1
    44    22    30    1
@<TRIPOS>MOLECULE
*****
 38 44 0 0 0
SMALL
GASTEIGER

@<TRIPOS>ATOM
      1 C           8.5792    2.2401   16.3610 C.3     1  UNL1        0.0339
      2 C           7.4650    1.4369   16.9638 C.3     1  UNL1        0.1349
      3 C           6.1669    2.1011   17.3156 C.3     1  UNL1        0.1205
      4 N           5.0526    1.2979   17.9183 N.pl3   1  UNL1       -0.3019
      5 C           3.7545    1.9620   18.2701 C.ar    1  UNL1        0.0749
      6 C           2.6403    1.1589   18.8729 C.ar    1  UNL1       -0.0053
      7 C           1.3421    1.8231   19.2247 C.ar    1  UNL1        0.0032
      8 C           1.1583    3.2904   18.9737 C.ar    1  UNL1        0.0745
      9 C           0.0002    4.2127   19.2152 C.ar    1  UNL1        0.1821
     10 N           0.3987    5.5858   18.7618 N.ar    1  UNL1       -0.0613
     11 O           1.8031    5.5122   18.2400 O.2     1  UNL1       -0.3498
     12 C           2.2725    4.0936   18.3709 C.ar    1  UNL1        0.2065
     13 C           3.5706    3.4295   18.0191 C.ar    1  UNL1        0.1899
     14 F           4.6849    4.2327   17.4163 F       1  UNL1       -0.1996
     15 C           2.8242   -0.3085   19.1239 C.3     1  UNL1        0.0468
     16 C           4.1222   -0.9726   18.7721 C.3     1  UNL1        0.1606
     17 C           3.0080   -1.7758   19.3749 C.2     1  UNL1        0.2387
     18 O           1.7099   -1.1117   19.7266 O.2     1  UNL1       -0.2741
     19 N           3.1919   -3.2433   19.6259 N.am    1  UNL1       -0.2389
     20 C           4.4900   -3.9074   19.2741 C.2     1  UNL1        0.3122
     21 O           4.6739   -5.3748   19.5251 O.2     1  UNL1       -0.2520
     22 N           5.6043   -3.1042   18.6713 N.am    1  UNL1       -0.2389
     23 C           5.4204   -1.6369   18.4203 C.2     1  UNL1        0.2387
     24 O           6.1050   -1.3810   18.1020 O.2     1  UNL1       -0.2741
     25 C           5.2365   -0.1694   18.1693 C.3     1  UNL1        0.1166
     26 C           6.5347   -0.8337   17.8175 C.3     1  UNL1        0.1341
     27 C           6.7185   -2.3010   18.0685 C.3     1  UNL1        0.0338
     28 O           7.6489   -0.0305   17.2148 O.3     1  UNL1       -0.3553
     29 H           2.4606   -3.7704   20.0215 H       1  UNL1        0.1591
     30 H           6.4563   -3.5402   18.4404 H       1  UNL1        0.1591
     31 N          -1.3239    3.8291   19.8065 N.am    1  UNL1       -0.2035
     32 C          -2.6659    4.0276   19.1665 C.3     1  UNL1        0.1430
     33 C          -3.7099    3.5008   20.1060 C.3     1  UNL1        0.1564
     34 C          -4.8851    3.8235   19.2314 C.3     1  UNL1        0.0456
     35 C          -5.0997    3.1740   20.5665 C.3     1  UNL1        0.0456
     36 O          -3.0131    2.9767   21.3266 O.3     1  UNL1       -0.4398
     37 C          -1.5384    3.1796   21.1415 C.2     1  UNL1        0.4098
     38 O          -0.4665    2.7997   22.1196 O.2     1  UNL1       -0.2258
@<TRIPOS>BOND
     1     2     1    1
     2     2     3    1
     3     3     4    1
     4     4     5    1
     5     5     6   ar
     6     6     7   ar
     7     7     8   ar
     8     8     9   ar
     9     9    31    1
    10    31    32    1
    11    32    33    1
    12    33    34    1
    13    34    35    1
    14    33    36    1
    15    36    37    1
    16    37    38    2
    17     9    10   ar
    18    10    11   ar
    19    11    12   ar
    20    12    13   ar
    21    13    14    1
    22     6    15    1
    23    15    16    1
    24    16    17    1
    25    17    18    2
    26    17    19   am
    27    19    20   am
    28    20    21    2
    29    20    22   am
    30    22    23   am
    31    23    24    2
    32    25    16    1
    33    25    26    1
    34    26    27    1
    35    26    28    1
    36    28     2    1
    37    25     4    1
    38    13     5   ar
    39    23    16    1
    40    12     8   ar
    41    37    31   am
    42    35    33    1
    43    19    29    1
    44    22    30    1
@<TRIPOS>MOLECULE
*****
 38 44 0 0 0
SMALL
GASTEIGER

@<TRIPOS>ATOM
      1 C           4.6940   -4.3040   18.6139 C.3     1  UNL1        0.0339
      2 C           4.6428   -3.7406   20.0031 C.3     1  UNL1        0.1349
      3 C           3.6998   -2.6189   20.3232 C.3     1  UNL1        0.1205
      4 N           3.6485   -2.0555   21.7124 N.pl3   1  UNL1       -0.3019
      5 C           2.7055   -0.9338   22.0325 C.ar    1  UNL1        0.0749
      6 C           2.6542   -0.3704   23.4217 C.ar    1  UNL1       -0.0053
      7 C           1.7112    0.7513   23.7418 C.ar    1  UNL1        0.0032
      8 C           0.8194    1.3096   22.6727 C.ar    1  UNL1        0.0745
      9 C          -0.2039    2.4062   22.6906 C.ar    1  UNL1        0.1821
     10 N          -0.7851    2.5205   21.3126 N.ar    1  UNL1       -0.0613
     11 O          -0.1210    1.4946   20.4429 O.2     1  UNL1       -0.3498
     12 C           0.8707    0.7462   21.2834 C.ar    1  UNL1        0.2065
     13 C           1.8137   -0.3755   20.9634 C.ar    1  UNL1        0.1899
     14 F           1.8650   -0.9389   19.5741 F       1  UNL1       -0.1996
     15 C           3.5460   -0.9287   24.4909 C.3     1  UNL1        0.0468
     16 C           4.4890   -2.0504   24.1708 C.3     1  UNL1        0.1606
     17 C           4.4377   -1.4870   25.5600 C.2     1  UNL1        0.2387
     18 O           3.4947   -0.3653   25.8801 O.2     1  UNL1       -0.2741
     19 N           5.3295   -2.0453   26.6291 N.am    1  UNL1       -0.2389
     20 C           6.2725   -3.1670   26.3090 C.2     1  UNL1        0.3122
     21 O           7.1644   -3.7253   27.3782 O.2     1  UNL1       -0.2520
     22 N           6.3238   -3.7304   24.9198 N.am    1  UNL1       -0.2389
     23 C           5.4321   -3.1721   23.8507 C.2     1  UNL1        0.2387
     24 O           5.5947   -3.5874   23.1899 O.2     1  UNL1       -0.2741
     25 C           4.5402   -2.6138   22.7815 C.3     1  UNL1        0.1166
     26 C           5.4833   -3.7356   22.4615 C.3     1  UNL1        0.1341
     27 C           6.3751   -4.2938   23.5306 C.3     1  UNL1        0.0338
     28 O           5.5346   -4.2990   21.0722 O.3     1  UNL1       -0.3553
     29 H           5.2959   -1.6755   27.5409 H       1  UNL1        0.1591
     30 H           6.9428   -4.4666   24.7097 H       1  UNL1        0.1591
     31 N          -0.5800    3.2417   23.8782 N.am    1  UNL1       -0.2035
     32 C          -1.8914    3.2008   24.6053 C.3     1  UNL1        0.1430
     33 C          -1.8326    4.1987   25.7237 C.3     1  UNL1        0.1564
     34 C          -3.2168    3.9378   26.2395 C.3     1  UNL1        0.0456
     35 C          -2.3475    4.9610   26.9086 C.3     1  UNL1        0.0456
     36 O          -0.4849    4.8563   25.6879 O.3     1  UNL1       -0.4398
     37 C           0.2893    4.2649   24.5473 C.2     1  UNL1        0.4098
     38 O           1.6872    4.6321   24.1462 O.2     1  UNL1       -0.2258
@<TRIPOS>BOND
     1     2     1    1
     2     2     3    1
     3     3     4    1
     4     4     5    1
     5     5     6   ar
     6     6     7   ar
     7     7     8   ar
     8     8     9   ar
     9     9    31    1
    10    31    32    1
    11    32    33    1
    12    33    34    1
    13    34    35    1
    14    33    36    1
    15    36    37    1
    16    37    38    2
    17     9    10   ar
    18    10    11   ar
    19    11    12   ar
    20    12    13   ar
    21    13    14    1
    22     6    15    1
    23    15    16    1
    24    16    17    1
    25    17    18    2
    26    17    19   am
    27    19    20   am
    28    20    21    2
    29    20    22   am
    30    22    23   am
    31    23    24    2
    32    25    16    1
    33    25    26    1
    34    26    27    1
    35    26    28    1
    36    28     2    1
    37    25     4    1
    38    13     5   ar
    39    23    16    1
    40    12     8   ar
    41    37    31   am
    42    35    33    1
    43    19    29    1
    44    22    30    1
@<TRIPOS>MOLECULE
*****
 38 44 0 0 0
SMALL
GASTEIGER

@<TRIPOS>ATOM
      1 C           5.0576   -1.2111   27.2258 C.3     1  UNL1        0.0339
      2 C           4.6055   -1.3470   25.8020 C.3     1  UNL1        0.1349
      3 C           3.5469   -0.4325   25.2608 C.3     1  UNL1        0.1205
      4 N           3.0947   -0.5684   23.8370 N.pl3   1  UNL1       -0.3019
      5 C           2.0361    0.3461   23.2958 C.ar    1  UNL1        0.0749
      6 C           1.5840    0.2103   21.8720 C.ar    1  UNL1       -0.0053
      7 C           0.5253    1.1248   21.3308 C.ar    1  UNL1        0.0032
      8 C          -0.0812    2.1751   22.2133 C.ar    1  UNL1        0.0745
      9 C          -1.1353    3.2120   21.9608 C.ar    1  UNL1        0.1821
     10 N          -1.3347    3.9887   23.2284 N.ar    1  UNL1       -0.0613
     11 O          -0.4038    3.4318   24.2644 O.2     1  UNL1       -0.3498
     12 C           0.3709    2.3110   23.6371 C.ar    1  UNL1        0.2065
     13 C           1.4295    1.3965   24.1783 C.ar    1  UNL1        0.1899
     14 F           1.8816    1.5323   25.6021 F       1  UNL1       -0.1996
     15 C           2.1905   -0.8401   20.9895 C.3     1  UNL1        0.0468
     16 C           3.2492   -1.7545   21.5307 C.3     1  UNL1        0.1606
     17 C           2.7970   -1.8904   20.1069 C.2     1  UNL1        0.2387
     18 O           1.7384   -0.9759   19.5657 O.2     1  UNL1       -0.2741
     19 N           3.4036   -2.9407   19.2244 N.am    1  UNL1       -0.2389
     20 C           4.4623   -3.8552   19.7656 C.2     1  UNL1        0.3122
     21 O           5.0689   -4.9056   18.8830 O.2     1  UNL1       -0.2520
     22 N           4.9144   -3.7194   21.1894 N.am    1  UNL1       -0.2389
     23 C           4.3079   -2.6690   22.0719 C.2     1  UNL1        0.2387
     24 O           4.6646   -2.7449   22.7808 O.2     1  UNL1       -0.2741
     25 C           3.7013   -1.6187   22.9545 C.3     1  UNL1        0.1166
     26 C           4.7600   -2.5332   23.4957 C.3     1  UNL1        0.1341
     27 C           5.3665   -3.5835   22.6131 C.3     1  UNL1        0.0338
     28 O           5.2121   -2.3974   24.9195 O.3     1  UNL1       -0.3553
     29 H           3.1069   -3.0299   18.2899 H       1  UNL1        0.1591
     30 H           5.6092   -4.3196   21.5446 H       1  UNL1        0.1591
     31 N          -1.8624    3.4333   20.6676 N.am    1  UNL1       -0.2035
     32 C          -1.2440    3.8664   19.3714 C.3     1  UNL1        0.1430
     33 C          -2.3349    3.9612   18.3462 C.3     1  UNL1        0.1564
     34 C          -1.4497    4.3932   17.2149 C.3     1  UNL1        0.0456
     35 C          -2.9229    4.2204   16.9908 C.3     1  UNL1        0.0456
     36 O          -3.6275    3.5867   19.0088 O.3     1  UNL1       -0.4398
     37 C          -3.3354    3.2605   20.4435 C.2     1  UNL1        0.4098
     38 O          -4.3401    2.8360   21.4733 O.2     1  UNL1       -0.2258
@<TRIPOS>BOND
     1     2     1    1
     2     2     3    1
     3     3     4    1
     4     4     5    1
     5     5     6   ar
     6     6     7   ar
     7     7     8   ar
     8     8     9   ar
     9     9    31    1
    10    31    32    1
    11    32    33    1
    12    33    34    1
    13    34    35    1
    14    33    36    1
    15    36    37    1
    16    37    38    2
    17     9    10   ar
    18    10    11   ar
    19    11    12   ar
    20    12    13   ar
    21    13    14    1
    22     6    15    1
    23    15    16    1
    24    16    17    1
    25    17    18    2
    26    17    19   am
    27    19    20   am
    28    20    21    2
    29    20    22   am
    30    22    23   am
    31    23    24    2
    32    25    16    1
    33    25    26    1
    34    26    27    1
    35    26    28    1
    36    28     2    1
    37    25     4    1
    38    13     5   ar
    39    23    16    1
    40    12     8   ar
    41    37    31   am
    42    35    33    1
    43    19    29    1
    44    22    30    1
@<TRIPOS>MOLECULE
*****
 38 44 0 0 0
SMALL
GASTEIGER

@<TRIPOS>ATOM
      1 C           3.7708   -0.9140   16.7316 C.3     1  UNL1        0.0339
      2 C           4.0095   -1.2443   18.1751 C.3     1  UNL1        0.1349
      3 C           3.2203   -0.5485   19.2442 C.3     1  UNL1        0.1205
      4 N           3.4590   -0.8789   20.6878 N.pl3   1  UNL1       -0.3019
      5 C           2.6698   -0.1831   21.7568 C.ar    1  UNL1        0.0749
      6 C           2.9085   -0.5134   23.2004 C.ar    1  UNL1       -0.0053
      7 C           2.1192    0.1825   24.2695 C.ar    1  UNL1        0.0032
      8 C           1.0913    1.2086   23.8949 C.ar    1  UNL1        0.0745
      9 C           0.1672    2.0521   24.7224 C.ar    1  UNL1        0.1821
     10 N          -0.6426    2.9038   23.7902 N.ar    1  UNL1       -0.0613
     11 O          -0.2190    2.5867   22.3867 O.2     1  UNL1       -0.3498
     12 C           0.8526    1.5390   22.4514 C.ar    1  UNL1        0.2065
     13 C           1.6418    0.8432   21.3823 C.ar    1  UNL1        0.1899
     14 F           1.4031    1.1736   19.9387 F       1  UNL1       -0.1996
     15 C           3.9364   -1.5396   23.5749 C.3     1  UNL1        0.0468
     16 C           4.7256   -2.2354   22.5058 C.3     1  UNL1        0.1606
     17 C           4.9643   -2.5658   23.9494 C.2     1  UNL1        0.2387
     18 O           4.1751   -1.8700   25.0185 O.2     1  UNL1       -0.2741
     19 N           5.9922   -3.5920   24.3239 N.am    1  UNL1       -0.2389
     20 C           6.7815   -4.2878   23.2548 C.2     1  UNL1        0.3122
     21 O           7.8094   -5.3141   23.6293 O.2     1  UNL1       -0.2520
     22 N           6.5428   -3.9575   21.8113 N.am    1  UNL1       -0.2389
     23 C           5.5149   -2.9313   21.4368 C.2     1  UNL1        0.2387
     24 O           5.5267   -2.8888   20.6408 O.2     1  UNL1       -0.2741
     25 C           4.4869   -1.9051   21.0623 C.3     1  UNL1        0.1166
     26 C           5.2762   -2.6009   19.9932 C.3     1  UNL1        0.1341
     27 C           6.3041   -3.6271   20.3677 C.3     1  UNL1        0.0338
     28 O           5.0375   -2.2706   18.5496 O.3     1  UNL1       -0.3553
     29 H           6.1489   -3.8089   25.2714 H       1  UNL1        0.1591
     30 H           7.0608   -4.4142   21.1096 H       1  UNL1        0.1591
     31 N           0.0700    2.0452   26.2192 N.am    1  UNL1       -0.2035
     32 C          -0.5390    0.9610   27.0581 C.3     1  UNL1        0.1430
     33 C          -0.4206    1.3669   28.4973 C.3     1  UNL1        0.1564
     34 C          -1.0833    0.1445   29.0600 C.3     1  UNL1        0.0456
     35 C          -0.5886    1.2204   29.9807 C.3     1  UNL1        0.0456
     36 O           0.2615    2.7019   28.5479 O.3     1  UNL1       -0.4398
     37 C           0.5648    3.1211   27.1399 C.2     1  UNL1        0.4098
     38 O           1.2436    4.3928   26.7254 O.2     1  UNL1       -0.2258
@<TRIPOS>BOND
     1     2     1    1
     2     2     3    1
     3     3     4    1
     4     4     5    1
     5     5     6   ar
     6     6     7   ar
     7     7     8   ar
     8     8     9   ar
     9     9    31    1
    10    31    32    1
    11    32    33    1
    12    33    34    1
    13    34    35    1
    14    33    36    1
    15    36    37    1
    16    37    38    2
    17     9    10   ar
    18    10    11   ar
    19    11    12   ar
    20    12    13   ar
    21    13    14    1
    22     6    15    1
    23    15    16    1
    24    16    17    1
    25    17    18    2
    26    17    19   am
    27    19    20   am
    28    20    21    2
    29    20    22   am
    30    22    23   am
    31    23    24    2
    32    25    16    1
    33    25    26    1
    34    26    27    1
    35    26    28    1
    36    28     2    1
    37    25     4    1
    38    13     5   ar
    39    23    16    1
    40    12     8   ar
    41    37    31   am
    42    35    33    1
    43    19    29    1
    44    22    30    1
@<TRIPOS>MOLECULE
*****
 38 44 0 0 0
SMALL
GASTEIGER

@<TRIPOS>ATOM
      1 C           0.5408    1.9054   18.2475 C.3     1  UNL1        0.0339
      2 C           1.1825    1.2107   19.4117 C.3     1  UNL1        0.1349
      3 C           0.8343    1.6176   20.8128 C.3     1  UNL1        0.1205
      4 N           1.4761    0.9229   21.9770 N.pl3   1  UNL1       -0.3019
      5 C           1.1278    1.3298   23.3781 C.ar    1  UNL1        0.0749
      6 C           1.7696    0.6351   24.5424 C.ar    1  UNL1       -0.0053
      7 C           1.4212    1.0421   25.9435 C.ar    1  UNL1        0.0032
      8 C           0.4312    2.1438   26.1803 C.ar    1  UNL1        0.0745
      9 C          -0.1054    2.7575   27.4395 C.ar    1  UNL1        0.1821
     10 N          -1.0788    3.8315   27.0535 N.ar    1  UNL1       -0.0613
     11 O          -1.1438    3.8815   25.5557 O.2     1  UNL1       -0.3498
     12 C          -0.2106    2.8385   25.0161 C.ar    1  UNL1        0.2065
     13 C           0.1377    2.4315   23.6150 C.ar    1  UNL1        0.1899
     14 F          -0.5041    3.1263   22.4507 F       1  UNL1       -0.1996
     15 C           2.7596   -0.4665   24.3055 C.3     1  UNL1        0.0468
     16 C           3.1079   -0.8734   22.9045 C.3     1  UNL1        0.1606
     17 C           3.7497   -1.5681   24.0687 C.2     1  UNL1        0.2387
     18 O           3.4014   -1.1612   25.4698 O.2     1  UNL1       -0.2741
     19 N           4.7398   -2.6698   23.8318 N.am    1  UNL1       -0.2389
     20 C           5.0881   -3.0768   22.4308 C.2     1  UNL1        0.3122
     21 O           6.0782   -4.1785   22.1939 O.2     1  UNL1       -0.2520
     22 N           4.4463   -2.3821   21.2665 N.am    1  UNL1       -0.2389
     23 C           3.4562   -1.2804   21.5033 C.2     1  UNL1        0.2387
     24 O           3.2246   -1.0342   20.7813 O.2     1  UNL1       -0.2741
     25 C           2.4661   -0.1787   21.7402 C.3     1  UNL1        0.1166
     26 C           2.8144   -0.5857   20.3391 C.3     1  UNL1        0.1341
     27 C           3.8045   -1.6873   20.1023 C.3     1  UNL1        0.0338
     28 O           2.1726    0.1090   19.1748 O.3     1  UNL1       -0.3553
     29 H           5.1610   -3.1258   24.5960 H       1  UNL1        0.1591
     30 H           4.6749   -2.6492   20.3469 H       1  UNL1        0.1591
     31 N           0.2662    2.3659   28.8390 N.am    1  UNL1       -0.2035
     32 C           0.9046    3.2563   29.8635 C.3     1  UNL1        0.1430
     33 C           1.0976    2.4559   31.1174 C.3     1  UNL1        0.1564
     34 C           1.7230    3.5619   31.9147 C.3     1  UNL1        0.0456
     35 C           1.5215    2.2112   32.5354 C.3     1  UNL1        0.0456
     36 O           0.5786    1.0708   30.8678 O.3     1  UNL1       -0.4398
     37 C           0.0647    1.0153   29.4596 C.2     1  UNL1        0.4098
     38 O          -0.5438   -0.1810   28.7897 O.2     1  UNL1       -0.2258
@<TRIPOS>BOND
     1     2     1    1
     2     2     3    1
     3     3     4    1
     4     4     5    1
     5     5     6   ar
     6     6     7   ar
     7     7     8   ar
     8     8     9   ar
     9     9    31    1
    10    31    32    1
    11    32    33    1
    12    33    34    1
    13    34    35    1
    14    33    36    1
    15    36    37    1
    16    37    38    2
    17     9    10   ar
    18    10    11   ar
    19    11    12   ar
    20    12    13   ar
    21    13    14    1
    22     6    15    1
    23    15    16    1
    24    16    17    1
    25    17    18    2
    26    17    19   am
    27    19    20   am
    28    20    21    2
    29    20    22   am
    30    22    23   am
    31    23    24    2
    32    25    16    1
    33    25    26    1
    34    26    27    1
    35    26    28    1
    36    28     2    1
    37    25     4    1
    38    13     5   ar
    39    23    16    1
    40    12     8   ar
    41    37    31   am
    42    35    33    1
    43    19    29    1
    44    22    30    1
