@<TRIPOS>MOLECULE
*****
 28 31 0 0 0
SMALL
GASTEIGER

@<TRIPOS>ATOM
      1 C           3.0014    0.9940   32.9285 C.ar    1  UNL1        0.0912
      2 C           3.0203    1.7297   34.2355 C.ar    1  UNL1        0.0466
      3 C           3.9832    1.3232   35.3112 C.ar    1  UNL1        0.1631
      4 C           4.9275    0.1808   35.0800 C.ar    1  UNL1        0.1193
      5 N           4.9087   -0.5550   33.7730 N.ar    1  UNL1       -0.2846
      6 C           5.7144   -1.7119   33.2608 C.ar    1  UNL1        0.1023
      7 C           5.2493   -2.0203   31.8685 C.ar    1  UNL1        0.1195
      8 N           4.1562   -1.0540   31.5202 N.ar    1  UNL1       -0.2247
      9 C           3.9456   -0.1484   32.6972 C.ar    1  UNL1        0.1524
     10 O           0.9536    2.3922   32.1529 O.2     1  UNL1       -0.2697
     11 C           2.0384    1.4006   31.8527 C.2     1  UNL1        0.2536
     12 N           2.1601    0.8156   30.4769 N.am    1  UNL1       -0.2657
     13 H           2.8721    0.1648   30.2799 H       1  UNL1        0.1566
     14 C           1.1970    1.2223   29.4012 C.ar    1  UNL1        0.1345
     15 C           0.0234    0.3469   29.0753 C.ar    1  UNL1        0.0368
     16 C          -0.9398    0.7535   27.9996 C.ar    1  UNL1        0.0341
     17 C          -0.7292    2.0355   27.2498 C.ar    1  UNL1        0.1593
     18 F          -1.6923    2.4420   26.1742 F       1  UNL1       -0.2025
     19 C           0.4445    2.9109   27.5757 C.ar    1  UNL1        0.1298
     20 N           1.4076    2.5043   28.6514 N.ar    1  UNL1       -0.2267
     21 O           4.0021    2.0590   36.6183 O.3     1  UNL1       -0.4503
     22 C           2.8084    2.0074   37.5253 C.ar    1  UNL1        0.1667
     23 C           1.8796    3.1822   37.6101 C.ar    1  UNL1        0.1364
     24 N           0.6860    3.1306   38.5171 N.ar    1  UNL1       -0.2368
     25 C           0.4212    1.9042   39.3392 C.ar    1  UNL1        0.1286
     26 C           1.3500    0.7294   39.2543 C.ar    1  UNL1        0.1623
     27 F           1.0852   -0.4971   40.0764 F       1  UNL1       -0.2024
     28 C           2.5436    0.7810   38.3473 C.ar    1  UNL1        0.0703
@<TRIPOS>BOND
     1    10    11    2
     2    11    12   am
     3    12    14    1
     4    14    15   ar
     5    15    16   ar
     6    16    17   ar
     7    17    18    1
     8    17    19   ar
     9    19    20   ar
    10    11     1    1
    11     1     2   ar
    12     2     3   ar
    13     3    21    1
    14    21    22    1
    15    22    23   ar
    16    23    24   ar
    17    24    25   ar
    18    25    26   ar
    19    26    27    1
    20    26    28   ar
    21     3     4   ar
    22     4     5   ar
    23     5     6   ar
    24     6     7   ar
    25     7     8   ar
    26     8     9   ar
    27    20    14   ar
    28     9     1   ar
    29    28    22   ar
    30     9     5   ar
    31    12    13    1
@<TRIPOS>MOLECULE
*****
 28 31 0 0 0
SMALL
GASTEIGER

@<TRIPOS>ATOM
      1 C           0.1921    2.3141   22.6906 C.ar    1  UNL1        0.0912
      2 C           0.4361    2.5372   24.1537 C.ar    1  UNL1        0.0466
      3 C          -0.5866    3.2549   24.9837 C.ar    1  UNL1        0.1631
      4 C          -1.8533    3.7496   24.3506 C.ar    1  UNL1        0.1193
      5 N          -2.0973    3.5264   22.8875 N.ar    1  UNL1       -0.2846
      6 C          -3.2429    3.8972   21.9930 C.ar    1  UNL1        0.1023
      7 C          -2.9282    3.4087   20.6102 C.ar    1  UNL1        0.1195
      8 N          -1.5881    2.7359   20.6501 N.ar    1  UNL1       -0.2247
      9 C          -1.0746    2.8086   22.0575 C.ar    1  UNL1        0.1524
     10 O           2.6762    1.7890   22.1392 O.2     1  UNL1       -0.2697
     11 C           1.2148    1.5963   21.8607 C.2     1  UNL1        0.2536
     12 N           0.7763    0.6859   20.7521 N.am    1  UNL1       -0.2657
     13 H          -0.1828    0.5594   20.5693 H       1  UNL1        0.1566
     14 C           1.7991   -0.0318   19.9222 C.ar    1  UNL1        0.1345
     15 C           2.4131   -1.3049   20.4244 C.ar    1  UNL1        0.0368
     16 C           3.4359   -2.0227   19.5945 C.ar    1  UNL1        0.0341
     17 C           3.8447   -1.4674   18.2624 C.ar    1  UNL1        0.1593
     18 F           4.8675   -2.1851   17.4326 F       1  UNL1       -0.2025
     19 C           3.2306   -0.1943   17.7602 C.ar    1  UNL1        0.1298
     20 N           2.2079    0.5235   18.5901 N.ar    1  UNL1       -0.2267
     21 O          -0.3425    3.4781   26.4469 O.3     1  UNL1       -0.4503
     22 C           0.0252    2.3232   27.3306 C.ar    1  UNL1        0.1667
     23 C           1.3940    2.2511   27.9398 C.ar    1  UNL1        0.1364
     24 N           1.7617    1.0962   28.8235 N.ar    1  UNL1       -0.2368
     25 C           0.7606    0.0134   29.0981 C.ar    1  UNL1        0.1286
     26 C          -0.6082    0.0856   28.4889 C.ar    1  UNL1        0.1623
     27 F          -1.6094   -0.9972   28.7635 F       1  UNL1       -0.2024
     28 C          -0.9759    1.2405   27.6052 C.ar    1  UNL1        0.0703
@<TRIPOS>BOND
     1    10    11    2
     2    11    12   am
     3    12    14    1
     4    14    15   ar
     5    15    16   ar
     6    16    17   ar
     7    17    18    1
     8    17    19   ar
     9    19    20   ar
    10    11     1    1
    11     1     2   ar
    12     2     3   ar
    13     3    21    1
    14    21    22    1
    15    22    23   ar
    16    23    24   ar
    17    24    25   ar
    18    25    26   ar
    19    26    27    1
    20    26    28   ar
    21     3     4   ar
    22     4     5   ar
    23     5     6   ar
    24     6     7   ar
    25     7     8   ar
    26     8     9   ar
    27    20    14   ar
    28     9     1   ar
    29    28    22   ar
    30     9     5   ar
    31    12    13    1
@<TRIPOS>MOLECULE
*****
 28 31 0 0 0
SMALL
GASTEIGER

@<TRIPOS>ATOM
      1 C           4.6069    0.1656   33.1826 C.ar    1  UNL1        0.0912
      2 C           4.7420    0.6694   34.5890 C.ar    1  UNL1        0.0466
      3 C           3.7351    1.6351   35.1397 C.ar    1  UNL1        0.1631
      4 C           2.5929    2.0971   34.2841 C.ar    1  UNL1        0.1193
      5 N           2.4578    1.5933   32.8777 N.ar    1  UNL1       -0.2846
      6 C           1.4452    1.8688   31.8059 C.ar    1  UNL1        0.1023
      7 C           1.8264    1.0732   30.5927 C.ar    1  UNL1        0.1195
      8 N           3.0746    0.3061   30.9147 N.ar    1  UNL1       -0.2247
      9 C           3.4648    0.6275   32.3270 C.ar    1  UNL1        0.1524
     10 O           7.0614   -0.6672   33.0026 O.2     1  UNL1       -0.2697
     11 C           5.6139   -0.8002   32.6319 C.2     1  UNL1        0.2536
     12 N           5.1735   -1.8989   31.7106 N.am    1  UNL1       -0.2657
     13 H           4.2235   -1.9862   31.4673 H       1  UNL1        0.1566
     14 C           6.1805   -2.8646   31.1599 C.ar    1  UNL1        0.1345
     15 C           6.6217   -4.0386   31.9827 C.ar    1  UNL1        0.0368
     16 C           7.6288   -5.0044   31.4322 C.ar    1  UNL1        0.0341
     17 C           8.1946   -4.7962   30.0587 C.ar    1  UNL1        0.1593
     18 F           9.2016   -5.7619   29.5081 F       1  UNL1       -0.2025
     19 C           7.7534   -3.6221   29.2358 C.ar    1  UNL1        0.1298
     20 N           6.7464   -2.6564   29.7864 N.ar    1  UNL1       -0.2267
     21 O           3.8703    2.1390   36.5461 O.3     1  UNL1       -0.4503
     22 C           2.7153    2.0283   37.4967 C.ar    1  UNL1        0.1667
     23 C           1.7785    3.1859   37.6767 C.ar    1  UNL1        0.1364
     24 N           0.6234    3.0751   38.6273 N.ar    1  UNL1       -0.2368
     25 C           0.4052    1.8069   39.3979 C.ar    1  UNL1        0.1286
     26 C           1.3420    0.6493   39.2179 C.ar    1  UNL1        0.1623
     27 F           1.1238   -0.6191   39.9885 F       1  UNL1       -0.2024
     28 C           2.4970    0.7600   38.2673 C.ar    1  UNL1        0.0703
@<TRIPOS>BOND
     1    10    11    2
     2    11    12   am
     3    12    14    1
     4    14    15   ar
     5    15    16   ar
     6    16    17   ar
     7    17    18    1
     8    17    19   ar
     9    19    20   ar
    10    11     1    1
    11     1     2   ar
    12     2     3   ar
    13     3    21    1
    14    21    22    1
    15    22    23   ar
    16    23    24   ar
    17    24    25   ar
    18    25    26   ar
    19    26    27    1
    20    26    28   ar
    21     3     4   ar
    22     4     5   ar
    23     5     6   ar
    24     6     7   ar
    25     7     8   ar
    26     8     9   ar
    27    20    14   ar
    28     9     1   ar
    29    28    22   ar
    30     9     5   ar
    31    12    13    1
@<TRIPOS>MOLECULE
*****
 28 31 0 0 0
SMALL
GASTEIGER

@<TRIPOS>ATOM
      1 C           0.9465    4.4999   33.7327 C.ar    1  UNL1        0.0912
      2 C           1.6775    4.3536   35.0343 C.ar    1  UNL1        0.0466
      3 C           1.3113    5.2212   36.2018 C.ar    1  UNL1        0.1631
      4 C           0.2140    6.2352   36.0678 C.ar    1  UNL1        0.1193
      5 N          -0.5170    6.3815   34.7661 N.ar    1  UNL1       -0.2846
      6 C          -1.6340    7.2868   34.3386 C.ar    1  UNL1        0.1023
      7 C          -1.9581    6.9786   32.9069 C.ar    1  UNL1        0.1195
      8 N          -1.0414    5.8829   32.4495 N.ar    1  UNL1       -0.2247
      9 C          -0.1507    5.5139   33.5986 C.ar    1  UNL1        0.1524
     10 O           1.8529    4.2520   31.3105 O.2     1  UNL1       -0.2697
     11 C           1.3127    3.6323   32.5652 C.2     1  UNL1        0.2536
     12 N           1.1387    2.1449   32.6523 N.am    1  UNL1       -0.2657
     13 H           0.7842    1.7382   33.4758 H       1  UNL1        0.1566
     14 C           1.5050    1.2774   31.4848 C.ar    1  UNL1        0.1345
     15 C           2.8342    0.5828   31.4543 C.ar    1  UNL1        0.0368
     16 C           3.2005   -0.2847   30.2868 C.ar    1  UNL1        0.0341
     17 C           2.2377   -0.4578   29.1497 C.ar    1  UNL1        0.1593
     18 F           2.6039   -1.3253   27.9822 F       1  UNL1       -0.2025
     19 C           0.9084    0.2368   29.1802 C.ar    1  UNL1        0.1298
     20 N           0.5422    1.1043   30.3477 N.ar    1  UNL1       -0.2267
     21 O           2.0423    5.0748   37.5035 O.3     1  UNL1       -0.4503
     22 C           2.5563    3.7311   37.9281 C.ar    1  UNL1        0.1667
     23 C           4.0218    3.4252   37.8354 C.ar    1  UNL1        0.1364
     24 N           4.5358    2.0814   38.2600 N.ar    1  UNL1       -0.2368
     25 C           3.5843    1.0437   38.7772 C.ar    1  UNL1        0.1286
     26 C           2.1187    1.3496   38.8698 C.ar    1  UNL1        0.1623
     27 F           1.1670    0.3118   39.3870 F       1  UNL1       -0.2024
     28 C           1.6048    2.6933   38.4453 C.ar    1  UNL1        0.0703
@<TRIPOS>BOND
     1    10    11    2
     2    11    12   am
     3    12    14    1
     4    14    15   ar
     5    15    16   ar
     6    16    17   ar
     7    17    18    1
     8    17    19   ar
     9    19    20   ar
    10    11     1    1
    11     1     2   ar
    12     2     3   ar
    13     3    21    1
    14    21    22    1
    15    22    23   ar
    16    23    24   ar
    17    24    25   ar
    18    25    26   ar
    19    26    27    1
    20    26    28   ar
    21     3     4   ar
    22     4     5   ar
    23     5     6   ar
    24     6     7   ar
    25     7     8   ar
    26     8     9   ar
    27    20    14   ar
    28     9     1   ar
    29    28    22   ar
    30     9     5   ar
    31    12    13    1
@<TRIPOS>MOLECULE
*****
 28 31 0 0 0
SMALL
GASTEIGER

@<TRIPOS>ATOM
      1 C           6.8543   -4.1293   23.7942 C.ar    1  UNL1        0.0912
      2 C           6.4112   -3.6021   25.1268 C.ar    1  UNL1        0.0466
      3 C           6.7822   -4.3324   26.3833 C.ar    1  UNL1        0.1631
      4 C           7.5965   -5.5899   26.3074 C.ar    1  UNL1        0.1193
      5 N           8.0396   -6.1171   24.9748 N.ar    1  UNL1       -0.2846
      6 C           8.8447   -7.3227   24.5897 C.ar    1  UNL1        0.1023
      7 C           8.9712   -7.3375   23.0951 C.ar    1  UNL1        0.1195
      8 N           8.2443   -6.1411   22.5565 N.ar    1  UNL1       -0.2247
      9 C           7.6685   -5.3868   23.7182 C.ar    1  UNL1        0.1524
     10 O           7.3263   -2.2545   22.0585 O.2     1  UNL1       -0.2697
     11 C           6.4832   -3.3990   22.5377 C.2     1  UNL1        0.2536
     12 N           5.2691   -3.8131   21.7602 N.am    1  UNL1       -0.2657
     13 H           4.7158   -4.5642   22.0747 H       1  UNL1        0.1566
     14 C           4.8981   -3.0827   20.5036 C.ar    1  UNL1        0.1345
     15 C           5.6359   -3.3624   19.2280 C.ar    1  UNL1        0.0368
     16 C           5.2650   -2.6321   17.9714 C.ar    1  UNL1        0.0341
     17 C           4.1562   -1.6221   17.9904 C.ar    1  UNL1        0.1593
     18 F           3.7853   -0.8918   16.7339 F       1  UNL1       -0.2025
     19 C           3.4184   -1.3424   19.2662 C.ar    1  UNL1        0.1298
     20 N           3.7893   -2.0727   20.5227 N.ar    1  UNL1       -0.2267
     21 O           6.3391   -3.8052   27.7159 O.3     1  UNL1       -0.4503
     22 C           7.1628   -4.0740   28.9404 C.ar    1  UNL1        0.1667
     23 C           8.4167   -3.2888   29.1880 C.ar    1  UNL1        0.1364
     24 N           9.2403   -3.5576   30.4125 N.ar    1  UNL1       -0.2368
     25 C           8.8101   -4.6115   31.3893 C.ar    1  UNL1        0.1286
     26 C           7.5562   -5.3966   31.1417 C.ar    1  UNL1        0.1623
     27 F           7.1259   -6.4506   32.1185 F       1  UNL1       -0.2024
     28 C           6.7325   -5.1278   29.9172 C.ar    1  UNL1        0.0703
@<TRIPOS>BOND
     1    10    11    2
     2    11    12   am
     3    12    14    1
     4    14    15   ar
     5    15    16   ar
     6    16    17   ar
     7    17    18    1
     8    17    19   ar
     9    19    20   ar
    10    11     1    1
    11     1     2   ar
    12     2     3   ar
    13     3    21    1
    14    21    22    1
    15    22    23   ar
    16    23    24   ar
    17    24    25   ar
    18    25    26   ar
    19    26    27    1
    20    26    28   ar
    21     3     4   ar
    22     4     5   ar
    23     5     6   ar
    24     6     7   ar
    25     7     8   ar
    26     8     9   ar
    27    20    14   ar
    28     9     1   ar
    29    28    22   ar
    30     9     5   ar
    31    12    13    1
@<TRIPOS>MOLECULE
*****
 28 31 0 0 0
SMALL
GASTEIGER

@<TRIPOS>ATOM
      1 C          -6.8378    4.6616   23.7987 C.ar    1  UNL1        0.0912
      2 C          -6.3514    3.9163   22.5913 C.ar    1  UNL1        0.0466
      3 C          -4.9881    3.2910   22.5948 C.ar    1  UNL1        0.1631
      4 C          -4.1109    3.4111   23.8058 C.ar    1  UNL1        0.1193
      5 N          -4.5973    4.1564   25.0132 N.ar    1  UNL1       -0.2846
      6 C          -3.9614    4.4384   26.3421 C.ar    1  UNL1        0.1023
      7 C          -4.9319    5.2379   27.1600 C.ar    1  UNL1        0.1195
      8 N          -6.1676    5.4501   26.3365 N.ar    1  UNL1       -0.2247
      9 C          -5.9608    4.7817   25.0097 C.ar    1  UNL1        0.1524
     10 O          -8.5816    6.2507   22.7105 O.2     1  UNL1       -0.2697
     11 C          -8.2013    5.2869   23.7952 C.2     1  UNL1        0.2536
     12 N          -9.1844    4.9484   24.8764 N.am    1  UNL1       -0.2657
     13 H          -8.9348    4.3159   25.5883 H       1  UNL1        0.1566
     14 C         -10.5479    5.5738   24.8728 C.ar    1  UNL1        0.1345
     15 C         -11.7697    4.7081   24.7849 C.ar    1  UNL1        0.0368
     16 C         -13.1332    5.3333   24.7813 C.ar    1  UNL1        0.0341
     17 C         -13.2749    6.8242   24.8656 C.ar    1  UNL1        0.1593
     18 F         -14.6382    7.4495   24.8619 F       1  UNL1       -0.2025
     19 C         -12.0529    7.6899   24.9534 C.ar    1  UNL1        0.1298
     20 N         -10.6895    7.0647   24.9570 N.ar    1  UNL1       -0.2267
     21 O          -4.5016    2.5456   21.3873 O.3     1  UNL1       -0.4503
     22 C          -4.0747    3.2990   20.1625 C.ar    1  UNL1        0.1667
     23 C          -2.6431    3.7162   19.9997 C.ar    1  UNL1        0.1364
     24 N          -2.2162    4.4696   18.7749 N.ar    1  UNL1       -0.2368
     25 C          -3.2208    4.8057   17.7129 C.ar    1  UNL1        0.1286
     26 C          -4.6523    4.3885   17.8758 C.ar    1  UNL1        0.1623
     27 F          -5.6571    4.7246   16.8138 F       1  UNL1       -0.2024
     28 C          -5.0793    3.6351   19.1006 C.ar    1  UNL1        0.0703
@<TRIPOS>BOND
     1    10    11    2
     2    11    12   am
     3    12    14    1
     4    14    15   ar
     5    15    16   ar
     6    16    17   ar
     7    17    18    1
     8    17    19   ar
     9    19    20   ar
    10    11     1    1
    11     1     2   ar
    12     2     3   ar
    13     3    21    1
    14    21    22    1
    15    22    23   ar
    16    23    24   ar
    17    24    25   ar
    18    25    26   ar
    19    26    27    1
    20    26    28   ar
    21     3     4   ar
    22     4     5   ar
    23     5     6   ar
    24     6     7   ar
    25     7     8   ar
    26     8     9   ar
    27    20    14   ar
    28     9     1   ar
    29    28    22   ar
    30     9     5   ar
    31    12    13    1
@<TRIPOS>MOLECULE
*****
 28 31 0 0 0
SMALL
GASTEIGER

@<TRIPOS>ATOM
      1 C           4.7079   -2.1206   24.2876 C.ar    1  UNL1        0.0912
      2 C           4.1295   -2.4887   22.9535 C.ar    1  UNL1        0.0466
      3 C           4.9116   -3.3533   22.0097 C.ar    1  UNL1        0.1631
      4 C           6.2722   -3.8498   22.4000 C.ar    1  UNL1        0.1193
      5 N           6.8506   -3.4817   23.7341 N.ar    1  UNL1       -0.2846
      6 C           8.1570   -3.8194   24.3893 C.ar    1  UNL1        0.1023
      7 C           8.1823   -3.1635   25.7380 C.ar    1  UNL1        0.1195
      8 N           6.8915   -2.4205   25.9164 N.ar    1  UNL1       -0.2247
      9 C           6.0685   -2.6171   24.6779 C.ar    1  UNL1        0.1524
     10 O           2.8179   -0.3889   24.7109 O.2     1  UNL1       -0.2697
     11 C           3.9258   -1.2560   25.2314 C.2     1  UNL1        0.2536
     12 N           4.2515   -1.2586   26.6956 N.am    1  UNL1       -0.2657
     13 H           4.9786   -1.8277   27.0372 H       1  UNL1        0.1566
     14 C           3.4693   -0.3939   27.6393 C.ar    1  UNL1        0.1345
     15 C           3.8341    1.0510   27.8098 C.ar    1  UNL1        0.0368
     16 C           3.0519    1.9157   28.7535 C.ar    1  UNL1        0.0341
     17 C           1.9051    1.3355   29.5268 C.ar    1  UNL1        0.1593
     18 F           1.1230    2.2001   30.4704 F       1  UNL1       -0.2025
     19 C           1.5404   -0.1096   29.3563 C.ar    1  UNL1        0.1298
     20 N           2.3225   -0.9742   28.4126 N.ar    1  UNL1       -0.2267
     21 O           4.3331   -3.7214   20.6755 O.3     1  UNL1       -0.4503
     22 C           4.3822   -2.7417   19.5407 C.ar    1  UNL1        0.1667
     23 C           5.4809   -2.8271   18.5231 C.ar    1  UNL1        0.1364
     24 N           5.5300   -1.8474   17.3883 N.ar    1  UNL1       -0.2368
     25 C           4.4804   -0.7823   17.2710 C.ar    1  UNL1        0.1286
     26 C           3.3817   -0.6969   18.2886 C.ar    1  UNL1        0.1623
     27 F           2.3320    0.3683   18.1714 F       1  UNL1       -0.2024
     28 C           3.3326   -1.6765   19.4234 C.ar    1  UNL1        0.0703
@<TRIPOS>BOND
     1    10    11    2
     2    11    12   am
     3    12    14    1
     4    14    15   ar
     5    15    16   ar
     6    16    17   ar
     7    17    18    1
     8    17    19   ar
     9    19    20   ar
    10    11     1    1
    11     1     2   ar
    12     2     3   ar
    13     3    21    1
    14    21    22    1
    15    22    23   ar
    16    23    24   ar
    17    24    25   ar
    18    25    26   ar
    19    26    27    1
    20    26    28   ar
    21     3     4   ar
    22     4     5   ar
    23     5     6   ar
    24     6     7   ar
    25     7     8   ar
    26     8     9   ar
    27    20    14   ar
    28     9     1   ar
    29    28    22   ar
    30     9     5   ar
    31    12    13    1
@<TRIPOS>MOLECULE
*****
 28 31 0 0 0
SMALL
GASTEIGER

@<TRIPOS>ATOM
      1 C           6.4701   -3.3758   24.7743 C.ar    1  UNL1        0.0912
      2 C           6.6937   -3.0148   23.3357 C.ar    1  UNL1        0.0466
      3 C           7.3896   -3.9778   22.4203 C.ar    1  UNL1        0.1631
      4 C           7.8619   -5.3020   22.9434 C.ar    1  UNL1        0.1193
      5 N           7.6383   -5.6630   24.3820 N.ar    1  UNL1       -0.2846
      6 C           7.9899   -6.8859   25.1763 C.ar    1  UNL1        0.1023
      7 C           7.5112   -6.6786   26.5826 C.ar    1  UNL1        0.1195
      8 N           6.8638   -5.3276   26.6576 N.ar    1  UNL1       -0.2247
      9 C           6.9423   -4.6999   25.2975 C.ar    1  UNL1        0.1524
     10 O           6.5053   -1.8325   26.8641 O.2     1  UNL1       -0.2697
     11 C           5.7741   -2.4127   25.6898 C.2     1  UNL1        0.2536
     12 N           4.3471   -2.0297   25.4310 N.am    1  UNL1       -0.2657
     13 H           3.8672   -2.4105   24.6603 H       1  UNL1        0.1566
     14 C           3.6512   -1.0666   26.3466 C.ar    1  UNL1        0.1345
     15 C           3.3893    0.3401   25.8964 C.ar    1  UNL1        0.0368
     16 C           2.6934    1.3033   26.8118 C.ar    1  UNL1        0.0341
     17 C           2.2595    0.8598   28.1775 C.ar    1  UNL1        0.1593
     18 F           1.5637    1.8229   29.0929 F       1  UNL1       -0.2025
     19 C           2.5216   -0.5469   28.6277 C.ar    1  UNL1        0.1298
     20 N           3.2174   -1.5100   27.7123 N.ar    1  UNL1       -0.2267
     21 O           7.6133   -3.6168   20.9816 O.3     1  UNL1       -0.4503
     22 C           6.4650   -3.1456   20.1393 C.ar    1  UNL1        0.1667
     23 C           6.4761   -1.7607   19.5633 C.ar    1  UNL1        0.1364
     24 N           5.3278   -1.2894   18.7211 N.ar    1  UNL1       -0.2368
     25 C           4.1684   -2.2031   18.4548 C.ar    1  UNL1        0.1286
     26 C           4.1573   -3.5881   19.0308 C.ar    1  UNL1        0.1623
     27 F           2.9979   -4.5019   18.7646 F       1  UNL1       -0.2024
     28 C           5.3056   -4.0593   19.8731 C.ar    1  UNL1        0.0703
@<TRIPOS>BOND
     1    10    11    2
     2    11    12   am
     3    12    14    1
     4    14    15   ar
     5    15    16   ar
     6    16    17   ar
     7    17    18    1
     8    17    19   ar
     9    19    20   ar
    10    11     1    1
    11     1     2   ar
    12     2     3   ar
    13     3    21    1
    14    21    22    1
    15    22    23   ar
    16    23    24   ar
    17    24    25   ar
    18    25    26   ar
    19    26    27    1
    20    26    28   ar
    21     3     4   ar
    22     4     5   ar
    23     5     6   ar
    24     6     7   ar
    25     7     8   ar
    26     8     9   ar
    27    20    14   ar
    28     9     1   ar
    29    28    22   ar
    30     9     5   ar
    31    12    13    1
@<TRIPOS>MOLECULE
*****
 28 31 0 0 0
SMALL
GASTEIGER

@<TRIPOS>ATOM
      1 C           6.9209   -3.9617   25.9448 C.ar    1  UNL1        0.0912
      2 C           6.8180   -3.0987   24.7223 C.ar    1  UNL1        0.0466
      3 C           7.1530   -3.6647   23.3743 C.ar    1  UNL1        0.1631
      4 C           7.5910   -5.0939   23.2487 C.ar    1  UNL1        0.1193
      5 N           7.6939   -5.9569   24.4713 N.ar    1  UNL1       -0.2846
      6 C           8.0944   -7.3905   24.6570 C.ar    1  UNL1        0.1023
      7 C           8.0069   -7.7103   26.1199 C.ar    1  UNL1        0.1195
      8 N           7.5523   -6.4745   26.8382 N.ar    1  UNL1       -0.2247
      9 C           7.3588   -5.3908   25.8193 C.ar    1  UNL1        0.1524
     10 O           5.3616   -2.5462   27.4665 O.2     1  UNL1       -0.2697
     11 C           6.5858   -3.3956   27.2929 C.2     1  UNL1        0.2536
     12 N           7.4750   -3.6787   28.4673 N.am    1  UNL1       -0.2657
     13 H           8.2784   -4.2361   28.3534 H       1  UNL1        0.1566
     14 C           7.1398   -3.1125   29.8154 C.ar    1  UNL1        0.1345
     15 C           6.6452   -4.0156   30.9062 C.ar    1  UNL1        0.0368
     16 C           6.3101   -3.4495   32.2542 C.ar    1  UNL1        0.0341
     17 C           6.4696   -1.9804   32.5115 C.ar    1  UNL1        0.1593
     18 F           6.1345   -1.4143   33.8595 F       1  UNL1       -0.2025
     19 C           6.9642   -1.0773   31.4206 C.ar    1  UNL1        0.1298
     20 N           7.2993   -1.6434   30.0726 N.ar    1  UNL1       -0.2267
     21 O           7.0500   -2.8017   22.1517 O.3     1  UNL1       -0.4503
     22 C           5.8749   -2.9435   21.2304 C.ar    1  UNL1        0.1667
     23 C           4.7051   -2.0132   21.3581 C.ar    1  UNL1        0.1364
     24 N           3.5300   -2.1550   20.4367 N.ar    1  UNL1       -0.2368
     25 C           3.5246   -3.2271   19.3876 C.ar    1  UNL1        0.1286
     26 C           4.6943   -4.1573   19.2599 C.ar    1  UNL1        0.1623
     27 F           4.6890   -5.2294   18.2107 F       1  UNL1       -0.2024
     28 C           5.8695   -4.0155   20.1812 C.ar    1  UNL1        0.0703
@<TRIPOS>BOND
     1    10    11    2
     2    11    12   am
     3    12    14    1
     4    14    15   ar
     5    15    16   ar
     6    16    17   ar
     7    17    18    1
     8    17    19   ar
     9    19    20   ar
    10    11     1    1
    11     1     2   ar
    12     2     3   ar
    13     3    21    1
    14    21    22    1
    15    22    23   ar
    16    23    24   ar
    17    24    25   ar
    18    25    26   ar
    19    26    27    1
    20    26    28   ar
    21     3     4   ar
    22     4     5   ar
    23     5     6   ar
    24     6     7   ar
    25     7     8   ar
    26     8     9   ar
    27    20    14   ar
    28     9     1   ar
    29    28    22   ar
    30     9     5   ar
    31    12    13    1
