@<TRIPOS>MOLECULE
*****
 28 30 0 0 0
SMALL
GASTEIGER

@<TRIPOS>ATOM
      1 C          -8.1120  -18.9640   20.3972 C.ar    1  UNL1        0.0236
      2 C          -8.8904  -19.5921   19.2793 C.ar    1  UNL1       -0.0007
      3 C         -10.3895  -19.5406   19.2878 C.ar    1  UNL1       -0.0000
      4 C         -11.1102  -18.8609   20.4141 C.ar    1  UNL1        0.0062
      5 C         -10.3319  -18.2329   21.5320 C.ar    1  UNL1        0.0732
      6 C         -11.0526  -17.5532   22.6584 C.ar    1  UNL1        0.2016
      7 O         -12.5517  -17.5017   22.6668 O.2     1  UNL1       -0.2864
      8 C         -10.2742  -16.9251   23.7762 C.ar    1  UNL1        0.0796
      9 C          -8.7752  -16.9767   23.7677 C.ar    1  UNL1        0.1484
     10 O          -8.0544  -17.6563   22.6414 O.2     1  UNL1       -0.4536
     11 C          -8.8328  -18.2844   21.5235 C.ar    1  UNL1        0.1448
     12 C          -7.9968  -16.3485   24.8857 C.ar    1  UNL1        0.0347
     13 C          -6.6399  -15.7667   24.6204 C.ar    1  UNL1        0.0030
     14 C          -5.8616  -15.1386   25.7382 C.ar    1  UNL1        0.0001
     15 C          -6.4401  -15.0923   27.1213 C.ar    1  UNL1        0.0000
     16 C          -7.7970  -15.6742   27.3867 C.ar    1  UNL1        0.0001
     17 C          -8.5753  -16.3023   26.2688 C.ar    1  UNL1        0.0030
     18 C          -6.6129  -19.0155   20.3887 C.3     1  UNL1        0.1389
     19 C          -5.9012  -20.2282   20.9111 C.2     1  UNL1        0.3216
     20 O          -6.3179  -20.8381   22.2167 O.2     1  UNL1       -0.2497
     21 O          -4.7728  -20.8310   20.1280 O.3     1  UNL1       -0.4467
     22 C          -3.5186  -20.0427   19.8920 C.3     1  UNL1        0.2257
     23 C          -2.5763  -19.7747   21.0279 C.3     1  UNL1        0.1201
     24 N          -2.2555  -18.3626   21.4190 N.3     1  UNL1       -0.2696
     25 C          -0.2549  -17.8684   19.8367 C.3     1  UNL1        0.0188
     26 C          -1.5609  -17.4547   20.4477 C.3     1  UNL1        0.0722
     27 C          -2.6292  -17.8582   22.7814 C.3     1  UNL1        0.0722
     28 C          -4.0669  -17.8480   23.2089 C.3     1  UNL1        0.0188
@<TRIPOS>BOND
     1    25    26    1
     2    26    24    1
     3    24    27    1
     4    27    28    1
     5    24    23    1
     6    23    22    1
     7    22    21    1
     8    21    19    1
     9    19    20    2
    10    19    18    1
    11    18     1    1
    12     1     2   ar
    13     2     3   ar
    14     3     4   ar
    15     4     5   ar
    16     5     6   ar
    17     6     7    2
    18     6     8   ar
    19     8     9   ar
    20     9    12    1
    21    12    13   ar
    22    13    14   ar
    23    14    15   ar
    24    15    16   ar
    25    16    17   ar
    26     9    10   ar
    27    10    11   ar
    28    11     1   ar
    29    11     5   ar
    30    17    12   ar
@<TRIPOS>MOLECULE
*****
 28 30 0 0 0
SMALL
GASTEIGER

@<TRIPOS>ATOM
      1 C          -8.3001  -18.9318   20.4165 C.ar    1  UNL1        0.0236
      2 C          -9.1099  -19.5386   19.3093 C.ar    1  UNL1       -0.0007
      3 C         -10.6051  -19.4184   19.3209 C.ar    1  UNL1       -0.0000
      4 C         -11.2904  -18.6914   20.4397 C.ar    1  UNL1        0.0062
      5 C         -10.4806  -18.0846   21.5469 C.ar    1  UNL1        0.0732
      6 C         -11.1659  -17.3576   22.6658 C.ar    1  UNL1        0.2016
      7 O         -12.6611  -17.2374   22.6774 O.2     1  UNL1       -0.2864
      8 C         -10.3561  -16.7508   23.7731 C.ar    1  UNL1        0.0796
      9 C          -8.8610  -16.8710   23.7615 C.ar    1  UNL1        0.1484
     10 O          -8.1757  -17.5980   22.6427 O.2     1  UNL1       -0.4536
     11 C          -8.9855  -18.2048   21.5354 C.ar    1  UNL1        0.1448
     12 C          -8.0512  -16.2642   24.8688 C.ar    1  UNL1        0.0347
     13 C          -8.6231  -16.1718   26.2524 C.ar    1  UNL1        0.0030
     14 C          -7.8134  -15.5650   27.3597 C.ar    1  UNL1        0.0001
     15 C          -6.4318  -15.0506   27.0833 C.ar    1  UNL1        0.0000
     16 C          -5.8599  -15.1429   25.6997 C.ar    1  UNL1        0.0001
     17 C          -6.6696  -15.7497   24.5924 C.ar    1  UNL1        0.0030
     18 C          -6.8050  -19.0520   20.4050 C.3     1  UNL1        0.1389
     19 C          -6.0619  -19.2915   21.6857 C.2     1  UNL1        0.3216
     20 O          -6.0739  -20.6523   22.3166 O.2     1  UNL1       -0.2497
     21 O          -5.3068  -18.1701   22.3356 O.3     1  UNL1       -0.4467
     22 C          -3.9803  -18.4357   22.9838 C.3     1  UNL1        0.2257
     23 C          -2.7703  -17.6555   22.5629 C.3     1  UNL1        0.1201
     24 N          -2.0672  -17.9949   21.2822 N.3     1  UNL1       -0.2696
     25 C          -3.2386  -19.2878   19.3570 C.3     1  UNL1        0.0188
     26 C          -2.3696  -19.2853   20.5797 C.3     1  UNL1        0.0722
     27 C          -1.0616  -17.0439   20.7038 C.3     1  UNL1        0.0722
     28 C           0.0933  -17.5688   19.9034 C.3     1  UNL1        0.0188
@<TRIPOS>BOND
     1    25    26    1
     2    26    24    1
     3    24    27    1
     4    27    28    1
     5    24    23    1
     6    23    22    1
     7    22    21    1
     8    21    19    1
     9    19    20    2
    10    19    18    1
    11    18     1    1
    12     1     2   ar
    13     2     3   ar
    14     3     4   ar
    15     4     5   ar
    16     5     6   ar
    17     6     7    2
    18     6     8   ar
    19     8     9   ar
    20     9    12    1
    21    12    13   ar
    22    13    14   ar
    23    14    15   ar
    24    15    16   ar
    25    16    17   ar
    26     9    10   ar
    27    10    11   ar
    28    11     1   ar
    29    11     5   ar
    30    17    12   ar
@<TRIPOS>MOLECULE
*****
 28 30 0 0 0
SMALL
GASTEIGER

@<TRIPOS>ATOM
      1 C          -4.9021  -19.7534   20.9411 C.ar    1  UNL1        0.0236
      2 C          -3.9826  -20.2818   19.8803 C.ar    1  UNL1       -0.0007
      3 C          -2.6957  -19.5716   19.5814 C.ar    1  UNL1       -0.0000
      4 C          -2.3282  -18.3329   20.3433 C.ar    1  UNL1        0.0062
      5 C          -3.2477  -17.8045   21.4041 C.ar    1  UNL1        0.0732
      6 C          -2.8803  -16.5657   22.1661 C.ar    1  UNL1        0.2016
      7 O          -1.5933  -15.8555   21.8673 O.2     1  UNL1       -0.2864
      8 C          -3.7997  -16.0373   23.2269 C.ar    1  UNL1        0.0796
      9 C          -5.0866  -16.7476   23.5258 C.ar    1  UNL1        0.1484
     10 O          -5.4541  -17.9863   22.7639 O.2     1  UNL1       -0.4536
     11 C          -4.5346  -18.5148   21.7030 C.ar    1  UNL1        0.1448
     12 C          -6.0061  -16.2191   24.5867 C.ar    1  UNL1        0.0347
     13 C          -5.4586  -15.8303   25.9280 C.ar    1  UNL1        0.0030
     14 C          -6.3780  -15.3019   26.9888 C.ar    1  UNL1        0.0001
     15 C          -7.8449  -15.1623   26.7083 C.ar    1  UNL1        0.0000
     16 C          -8.3924  -15.5511   25.3670 C.ar    1  UNL1        0.0001
     17 C          -7.4730  -16.0795   24.3062 C.ar    1  UNL1        0.0030
     18 C          -6.1890  -20.4637   21.2399 C.3     1  UNL1        0.1389
     19 C          -7.4801  -19.7004   21.2586 C.2     1  UNL1        0.3216
     20 O          -7.8889  -18.8887   20.0652 O.2     1  UNL1       -0.2497
     21 O          -8.3626  -19.7488   22.4706 O.3     1  UNL1       -0.4467
     22 C          -9.4539  -18.7344   22.6447 C.3     1  UNL1        0.2257
     23 C         -10.8211  -19.0008   22.0883 C.3     1  UNL1        0.1201
     24 N         -11.6395  -17.8712   21.5367 N.3     1  UNL1       -0.2696
     25 C         -11.5288  -16.0046   19.7330 C.3     1  UNL1        0.0188
     26 C         -11.4770  -17.4570   20.1042 C.3     1  UNL1        0.0722
     27 C         -12.6204  -17.1557   22.4177 C.3     1  UNL1        0.0722
     28 C         -13.3420  -17.9040   23.4990 C.3     1  UNL1        0.0188
@<TRIPOS>BOND
     1    25    26    1
     2    26    24    1
     3    24    27    1
     4    27    28    1
     5    24    23    1
     6    23    22    1
     7    22    21    1
     8    21    19    1
     9    19    20    2
    10    19    18    1
    11    18     1    1
    12     1     2   ar
    13     2     3   ar
    14     3     4   ar
    15     4     5   ar
    16     5     6   ar
    17     6     7    2
    18     6     8   ar
    19     8     9   ar
    20     9    12    1
    21    12    13   ar
    22    13    14   ar
    23    14    15   ar
    24    15    16   ar
    25    16    17   ar
    26     9    10   ar
    27    10    11   ar
    28    11     1   ar
    29    11     5   ar
    30    17    12   ar
@<TRIPOS>MOLECULE
*****
 28 30 0 0 0
SMALL
GASTEIGER

@<TRIPOS>ATOM
      1 C         -10.4062  -17.6540   23.2405 C.ar    1  UNL1        0.0236
      2 C         -11.8908  -17.5064   23.0853 C.ar    1  UNL1       -0.0007
      3 C         -12.5664  -17.9915   21.8371 C.ar    1  UNL1       -0.0000
      4 C         -11.7574  -18.6242   20.7439 C.ar    1  UNL1        0.0062
      5 C         -10.2728  -18.7718   20.8990 C.ar    1  UNL1        0.0732
      6 C          -9.4637  -19.4046   19.8058 C.ar    1  UNL1        0.2016
      7 O         -10.1393  -19.8897   18.5575 O.2     1  UNL1       -0.2864
      8 C          -7.9791  -19.5522   19.9609 C.ar    1  UNL1        0.0796
      9 C          -7.3035  -19.0671   21.2092 C.ar    1  UNL1        0.1484
     10 O          -8.1125  -18.4344   22.3023 O.2     1  UNL1       -0.4536
     11 C          -9.5972  -18.2867   22.1473 C.ar    1  UNL1        0.1448
     12 C          -5.8188  -19.2148   21.3642 C.ar    1  UNL1        0.0347
     13 C          -5.1175  -18.5675   22.5215 C.ar    1  UNL1        0.0030
     14 C          -3.6329  -18.7151   22.6766 C.ar    1  UNL1        0.0001
     15 C          -2.8496  -19.5100   21.6744 C.ar    1  UNL1        0.0000
     16 C          -3.5508  -20.1573   20.5172 C.ar    1  UNL1        0.0001
     17 C          -5.0354  -20.0097   20.3621 C.ar    1  UNL1        0.0030
     18 C          -9.7306  -17.1689   24.4887 C.3     1  UNL1        0.1389
     19 C          -9.4357  -18.1284   25.6033 C.2     1  UNL1        0.3216
     20 O          -9.8486  -19.5656   25.4846 O.2     1  UNL1       -0.2497
     21 O          -8.7279  -17.6509   26.8365 O.3     1  UNL1       -0.4467
     22 C          -8.4908  -16.1844   27.0448 C.3     1  UNL1        0.2257
     23 C          -7.1233  -15.6075   26.8276 C.3     1  UNL1        0.1201
     24 N          -6.6282  -15.3557   25.4342 N.3     1  UNL1       -0.2696
     25 C          -7.3634  -15.1093   22.9545 C.3     1  UNL1        0.0188
     26 C          -7.5503  -14.7732   24.4044 C.3     1  UNL1        0.0722
     27 C          -5.2110  -15.6865   25.0706 C.3     1  UNL1        0.0722
     28 C          -4.4714  -16.7501   25.8267 C.3     1  UNL1        0.0188
@<TRIPOS>BOND
     1    25    26    1
     2    26    24    1
     3    24    27    1
     4    27    28    1
     5    24    23    1
     6    23    22    1
     7    22    21    1
     8    21    19    1
     9    19    20    2
    10    19    18    1
    11    18     1    1
    12     1     2   ar
    13     2     3   ar
    14     3     4   ar
    15     4     5   ar
    16     5     6   ar
    17     6     7    2
    18     6     8   ar
    19     8     9   ar
    20     9    12    1
    21    12    13   ar
    22    13    14   ar
    23    14    15   ar
    24    15    16   ar
    25    16    17   ar
    26     9    10   ar
    27    10    11   ar
    28    11     1   ar
    29    11     5   ar
    30    17    12   ar
@<TRIPOS>MOLECULE
*****
 28 30 0 0 0
SMALL
GASTEIGER

@<TRIPOS>ATOM
      1 C          -8.4627  -17.5128   23.3932 C.ar    1  UNL1        0.0236
      2 C          -9.5693  -16.9170   24.2119 C.ar    1  UNL1       -0.0007
      3 C          -9.2675  -15.8363   25.2074 C.ar    1  UNL1       -0.0000
      4 C          -7.8591  -15.3514   25.3841 C.ar    1  UNL1        0.0062
      5 C          -6.7525  -15.9471   24.5654 C.ar    1  UNL1        0.0732
      6 C          -5.3440  -15.4622   24.7421 C.ar    1  UNL1        0.2016
      7 O          -5.0423  -14.3815   25.7376 O.2     1  UNL1       -0.2864
      8 C          -4.2374  -16.0580   23.9233 C.ar    1  UNL1        0.0796
      9 C          -4.5392  -17.1387   22.9278 C.ar    1  UNL1        0.1484
     10 O          -5.9476  -17.6236   22.7511 O.2     1  UNL1       -0.4536
     11 C          -7.0543  -17.0278   23.5699 C.ar    1  UNL1        0.1448
     12 C          -3.4325  -17.7344   22.1090 C.ar    1  UNL1        0.0347
     13 C          -3.4230  -19.2060   21.8186 C.ar    1  UNL1        0.0030
     14 C          -2.3164  -19.8018   20.9999 C.ar    1  UNL1        0.0001
     15 C          -1.2193  -18.9260   20.4715 C.ar    1  UNL1        0.0000
     16 C          -1.2288  -17.4544   20.7618 C.ar    1  UNL1        0.0001
     17 C          -2.3354  -16.8586   21.5806 C.ar    1  UNL1        0.0030
     18 C          -8.7644  -18.5935   22.3977 C.3     1  UNL1        0.1389
     19 C          -9.5874  -19.7796   22.8047 C.2     1  UNL1        0.3216
     20 O          -9.2034  -20.5795   24.0142 O.2     1  UNL1       -0.2497
     21 O         -10.7945  -20.1658   22.0023 O.3     1  UNL1       -0.4467
     22 C         -11.1460  -19.4010   20.7607 C.3     1  UNL1        0.2257
     23 C         -12.2407  -18.3761   20.7959 C.3     1  UNL1        0.1201
     24 N         -12.0290  -17.0770   21.5153 N.3     1  UNL1       -0.2696
     25 C         -11.2879  -15.6569   19.4697 C.3     1  UNL1        0.0188
     26 C         -11.1441  -16.0239   20.9171 C.3     1  UNL1        0.0722
     27 C         -12.7024  -16.8310   22.8330 C.3     1  UNL1        0.0722
     28 C         -13.1712  -17.9889   23.6633 C.3     1  UNL1        0.0188
@<TRIPOS>BOND
     1    25    26    1
     2    26    24    1
     3    24    27    1
     4    27    28    1
     5    24    23    1
     6    23    22    1
     7    22    21    1
     8    21    19    1
     9    19    20    2
    10    19    18    1
    11    18     1    1
    12     1     2   ar
    13     2     3   ar
    14     3     4   ar
    15     4     5   ar
    16     5     6   ar
    17     6     7    2
    18     6     8   ar
    19     8     9   ar
    20     9    12    1
    21    12    13   ar
    22    13    14   ar
    23    14    15   ar
    24    15    16   ar
    25    16    17   ar
    26     9    10   ar
    27    10    11   ar
    28    11     1   ar
    29    11     5   ar
    30    17    12   ar
@<TRIPOS>MOLECULE
*****
 28 30 0 0 0
SMALL
GASTEIGER

@<TRIPOS>ATOM
      1 C          -8.1229  -18.2263   23.0198 C.ar    1  UNL1        0.0236
      2 C          -9.3362  -17.8508   23.8179 C.ar    1  UNL1       -0.0007
      3 C          -9.2620  -16.7314   24.8136 C.ar    1  UNL1       -0.0000
      4 C          -7.9746  -15.9874   25.0112 C.ar    1  UNL1        0.0062
      5 C          -6.7614  -16.3629   24.2131 C.ar    1  UNL1        0.0732
      6 C          -5.4739  -15.6190   24.4107 C.ar    1  UNL1        0.2016
      7 O          -5.3997  -14.4996   25.4064 O.2     1  UNL1       -0.2864
      8 C          -4.2606  -15.9945   23.6126 C.ar    1  UNL1        0.0796
      9 C          -4.3348  -17.1139   22.6169 C.ar    1  UNL1        0.1484
     10 O          -5.6222  -17.8578   22.4193 O.2     1  UNL1       -0.4536
     11 C          -6.8355  -17.4823   23.2174 C.ar    1  UNL1        0.1448
     12 C          -3.1214  -17.4894   21.8188 C.ar    1  UNL1        0.0347
     13 C          -2.9412  -18.9021   21.3479 C.ar    1  UNL1        0.0030
     14 C          -1.7279  -19.2776   20.5498 C.ar    1  UNL1        0.0001
     15 C          -0.6949  -18.2404   20.2226 C.ar    1  UNL1        0.0000
     16 C          -0.8752  -16.8277   20.6935 C.ar    1  UNL1        0.0001
     17 C          -2.0885  -16.4522   21.4916 C.ar    1  UNL1        0.0030
     18 C          -8.1971  -19.3457   22.0241 C.3     1  UNL1        0.1389
     19 C          -8.3297  -19.0408   20.5614 C.2     1  UNL1        0.3216
     20 O          -7.1021  -18.8834   19.7138 O.2     1  UNL1       -0.2497
     21 O          -9.6898  -18.8935   19.9462 O.3     1  UNL1       -0.4467
     22 C         -10.9106  -19.2929   20.7209 C.3     1  UNL1        0.2257
     23 C         -12.0930  -18.3721   20.7844 C.3     1  UNL1        0.1201
     24 N         -11.9586  -17.0217   21.4233 N.3     1  UNL1       -0.2696
     25 C         -13.2543  -17.8625   23.5124 C.3     1  UNL1        0.0188
     26 C         -12.6336  -16.7411   22.7331 C.3     1  UNL1        0.0722
     27 C         -11.1491  -15.9518   20.7524 C.3     1  UNL1        0.0722
     28 C         -11.4268  -15.5855   19.3246 C.3     1  UNL1        0.0188
@<TRIPOS>BOND
     1    25    26    1
     2    26    24    1
     3    24    27    1
     4    27    28    1
     5    24    23    1
     6    23    22    1
     7    22    21    1
     8    21    19    1
     9    19    20    2
    10    19    18    1
    11    18     1    1
    12     1     2   ar
    13     2     3   ar
    14     3     4   ar
    15     4     5   ar
    16     5     6   ar
    17     6     7    2
    18     6     8   ar
    19     8     9   ar
    20     9    12    1
    21    12    13   ar
    22    13    14   ar
    23    14    15   ar
    24    15    16   ar
    25    16    17   ar
    26     9    10   ar
    27    10    11   ar
    28    11     1   ar
    29    11     5   ar
    30    17    12   ar
@<TRIPOS>MOLECULE
*****
 28 30 0 0 0
SMALL
GASTEIGER

@<TRIPOS>ATOM
      1 C          -5.1024  -19.7562   21.0578 C.ar    1  UNL1        0.0236
      2 C          -4.2041  -20.2905   19.9819 C.ar    1  UNL1       -0.0007
      3 C          -2.9202  -19.5858   19.6582 C.ar    1  UNL1       -0.0000
      4 C          -2.5345  -18.3467   20.4104 C.ar    1  UNL1        0.0062
      5 C          -3.4327  -17.8123   21.4862 C.ar    1  UNL1        0.0732
      6 C          -3.0471  -16.5731   22.2385 C.ar    1  UNL1        0.2016
      7 O          -1.7631  -15.8684   21.9147 O.2     1  UNL1       -0.2864
      8 C          -3.9453  -16.0388   23.3143 C.ar    1  UNL1        0.0796
      9 C          -5.2293  -16.7435   23.6380 C.ar    1  UNL1        0.1484
     10 O          -5.6150  -17.9826   22.8859 O.2     1  UNL1       -0.4536
     11 C          -4.7167  -18.5171   21.8099 C.ar    1  UNL1        0.1448
     12 C          -6.1276  -16.2091   24.7140 C.ar    1  UNL1        0.0347
     13 C          -7.6057  -16.1128   24.4777 C.ar    1  UNL1        0.0030
     14 C          -8.5040  -15.5784   25.5535 C.ar    1  UNL1        0.0001
     15 C          -7.9241  -15.1403   26.8656 C.ar    1  UNL1        0.0000
     16 C          -6.4459  -15.2366   27.1019 C.ar    1  UNL1        0.0001
     17 C          -5.5477  -15.7710   26.0261 C.ar    1  UNL1        0.0030
     18 C          -6.3864  -20.4609   21.3815 C.3     1  UNL1        0.1389
     19 C          -7.6318  -19.6674   21.6445 C.2     1  UNL1        0.3216
     20 O          -8.3525  -19.8141   22.9519 O.2     1  UNL1       -0.2497
     21 O          -8.1566  -18.7272   20.6002 O.3     1  UNL1       -0.4467
     22 C          -9.5077  -18.9606   19.9918 C.3     1  UNL1        0.2257
     23 C         -10.7468  -18.5945   20.7539 C.3     1  UNL1        0.1201
     24 N         -10.7855  -17.3300   21.5598 N.3     1  UNL1       -0.2696
     25 C         -11.6473  -18.3328   23.7963 C.3     1  UNL1        0.0188
     26 C         -10.7402  -17.3936   23.0578 C.3     1  UNL1        0.0722
     27 C         -10.8695  -16.0018   20.8677 C.3     1  UNL1        0.0722
     28 C         -11.5283  -15.8965   19.5243 C.3     1  UNL1        0.0188
@<TRIPOS>BOND
     1    25    26    1
     2    26    24    1
     3    24    27    1
     4    27    28    1
     5    24    23    1
     6    23    22    1
     7    22    21    1
     8    21    19    1
     9    19    20    2
    10    19    18    1
    11    18     1    1
    12     1     2   ar
    13     2     3   ar
    14     3     4   ar
    15     4     5   ar
    16     5     6   ar
    17     6     7    2
    18     6     8   ar
    19     8     9   ar
    20     9    12    1
    21    12    13   ar
    22    13    14   ar
    23    14    15   ar
    24    15    16   ar
    25    16    17   ar
    26     9    10   ar
    27    10    11   ar
    28    11     1   ar
    29    11     5   ar
    30    17    12   ar
@<TRIPOS>MOLECULE
*****
 28 30 0 0 0
SMALL
GASTEIGER

@<TRIPOS>ATOM
      1 C          -7.1249  -15.5185   24.2711 C.ar    1  UNL1        0.0236
      2 C          -7.8336  -15.1897   25.5516 C.ar    1  UNL1       -0.0007
      3 C          -7.2321  -15.5905   26.8659 C.ar    1  UNL1       -0.0000
      4 C          -5.9219  -16.3200   26.8998 C.ar    1  UNL1        0.0062
      5 C          -5.2133  -16.6488   25.6193 C.ar    1  UNL1        0.0732
      6 C          -3.9030  -17.3784   25.6531 C.ar    1  UNL1        0.2016
      7 O          -3.3015  -17.7792   26.9675 O.2     1  UNL1       -0.2864
      8 C          -3.1944  -17.7072   24.3726 C.ar    1  UNL1        0.0796
      9 C          -3.7959  -17.3064   23.0583 C.ar    1  UNL1        0.1484
     10 O          -5.1061  -16.5768   23.0244 O.2     1  UNL1       -0.4536
     11 C          -5.8148  -16.2480   24.3049 C.ar    1  UNL1        0.1448
     12 C          -3.0872  -17.6352   21.7778 C.ar    1  UNL1        0.0347
     13 C          -1.9680  -16.7613   21.2943 C.ar    1  UNL1        0.0030
     14 C          -1.2593  -17.0901   20.0138 C.ar    1  UNL1        0.0001
     15 C          -1.6698  -18.2927   19.2168 C.ar    1  UNL1        0.0000
     16 C          -2.7890  -19.1665   19.7003 C.ar    1  UNL1        0.0001
     17 C          -3.4977  -18.8378   20.9808 C.ar    1  UNL1        0.0030
     18 C          -7.7265  -15.1177   22.9567 C.3     1  UNL1        0.1389
     19 C          -8.5531  -16.0991   22.1799 C.2     1  UNL1        0.3216
     20 O          -7.8844  -17.1021   21.2871 O.2     1  UNL1       -0.2497
     21 O         -10.0485  -16.0775   22.2957 O.3     1  UNL1       -0.4467
     22 C         -10.8963  -16.0540   21.0585 C.3     1  UNL1        0.2257
     23 C         -11.6932  -17.2647   20.6722 C.3     1  UNL1        0.1201
     24 N         -11.5374  -18.5422   21.4426 N.3     1  UNL1       -0.2696
     25 C         -10.0747  -19.5999   19.5739 C.3     1  UNL1        0.0188
     26 C         -10.9598  -19.7550   20.7751 C.3     1  UNL1        0.0722
     27 C         -11.9593  -18.6071   22.8807 C.3     1  UNL1        0.0722
     28 C         -13.1842  -17.8713   23.3368 C.3     1  UNL1        0.0188
@<TRIPOS>BOND
     1    25    26    1
     2    26    24    1
     3    24    27    1
     4    27    28    1
     5    24    23    1
     6    23    22    1
     7    22    21    1
     8    21    19    1
     9    19    20    2
    10    19    18    1
    11    18     1    1
    12     1     2   ar
    13     2     3   ar
    14     3     4   ar
    15     4     5   ar
    16     5     6   ar
    17     6     7    2
    18     6     8   ar
    19     8     9   ar
    20     9    12    1
    21    12    13   ar
    22    13    14   ar
    23    14    15   ar
    24    15    16   ar
    25    16    17   ar
    26     9    10   ar
    27    10    11   ar
    28    11     1   ar
    29    11     5   ar
    30    17    12   ar
@<TRIPOS>MOLECULE
*****
 28 30 0 0 0
SMALL
GASTEIGER

@<TRIPOS>ATOM
      1 C          -7.1243  -15.5116   24.3193 C.ar    1  UNL1        0.0236
      2 C          -7.8091  -15.1637   25.6077 C.ar    1  UNL1       -0.0007
      3 C          -7.1924  -15.5613   26.9160 C.ar    1  UNL1       -0.0000
      4 C          -5.8911  -16.3069   26.9360 C.ar    1  UNL1        0.0062
      5 C          -5.2063  -16.6548   25.6476 C.ar    1  UNL1        0.0732
      6 C          -3.9048  -17.4004   25.6675 C.ar    1  UNL1        0.2016
      7 O          -3.2882  -17.7980   26.9758 O.2     1  UNL1       -0.2864
      8 C          -3.2200  -17.7484   24.3791 C.ar    1  UNL1        0.0796
      9 C          -3.8366  -17.3508   23.0708 C.ar    1  UNL1        0.1484
     10 O          -5.1380  -16.6052   23.0509 O.2     1  UNL1       -0.4536
     11 C          -5.8229  -16.2572   24.3393 C.ar    1  UNL1        0.1448
     12 C          -3.1518  -17.6987   21.7824 C.ar    1  UNL1        0.0347
     13 C          -3.6392  -18.8567   20.9629 C.ar    1  UNL1        0.0030
     14 C          -2.9544  -19.2047   19.6745 C.ar    1  UNL1        0.0001
     15 C          -1.7822  -18.3948   19.2057 C.ar    1  UNL1        0.0000
     16 C          -1.2948  -17.2368   20.0252 C.ar    1  UNL1        0.0001
     17 C          -1.9795  -16.8888   21.3135 C.ar    1  UNL1        0.0030
     18 C          -7.7409  -15.1140   23.0110 C.3     1  UNL1        0.1389
     19 C          -8.5785  -16.0964   22.2474 C.2     1  UNL1        0.3216
     20 O          -9.3770  -15.6397   21.0624 O.2     1  UNL1       -0.2497
     21 O          -8.6178  -17.5355   22.6686 O.3     1  UNL1       -0.4467
     22 C          -9.7707  -18.0484   23.4797 C.3     1  UNL1        0.2257
     23 C         -10.8072  -18.9237   22.8398 C.3     1  UNL1        0.1201
     24 N         -11.4208  -18.5252   21.5304 N.3     1  UNL1       -0.2696
     25 C         -12.4225  -16.2979   22.4169 C.3     1  UNL1        0.0188
     26 C         -12.4935  -17.4774   21.4928 C.3     1  UNL1        0.0722
     27 C         -10.9617  -19.1746   20.2585 C.3     1  UNL1        0.0722
     28 C          -9.5013  -19.2075   19.9179 C.3     1  UNL1        0.0188
@<TRIPOS>BOND
     1    25    26    1
     2    26    24    1
     3    24    27    1
     4    27    28    1
     5    24    23    1
     6    23    22    1
     7    22    21    1
     8    21    19    1
     9    19    20    2
    10    19    18    1
    11    18     1    1
    12     1     2   ar
    13     2     3   ar
    14     3     4   ar
    15     4     5   ar
    16     5     6   ar
    17     6     7    2
    18     6     8   ar
    19     8     9   ar
    20     9    12    1
    21    12    13   ar
    22    13    14   ar
    23    14    15   ar
    24    15    16   ar
    25    16    17   ar
    26     9    10   ar
    27    10    11   ar
    28    11     1   ar
    29    11     5   ar
    30    17    12   ar
