@<TRIPOS>MOLECULE
*****
 35 39 0 0 0
SMALL
GASTEIGER

@<TRIPOS>ATOM
      1 C           4.0362   -2.0208   19.0101 C.ar    1  UNL1        0.0644
      2 C           4.0156   -1.2569   17.7193 C.ar    1  UNL1        0.0155
      3 C           3.1187   -0.0642   17.5678 C.ar    1  UNL1       -0.0032
      4 C           2.2423    0.3647   18.7073 C.ar    1  UNL1       -0.0246
      5 C           2.2629   -0.3992   19.9979 C.ar    1  UNL1       -0.0234
      6 C           3.1598   -1.5919   20.1494 C.ar    1  UNL1        0.0113
      7 C           1.4753   -0.1435   21.2487 C.3     1  UNL1        0.0434
      8 C           0.4726    0.9393   21.5175 C.3     1  UNL1        0.0771
      9 N           0.0099    2.0336   20.6021 N.3     1  UNL1       -0.2671
     10 C           0.4355    2.3157   19.1916 C.3     1  UNL1        0.0771
     11 C           1.4290    1.5729   18.3484 C.3     1  UNL1        0.0434
     12 N           4.9331   -3.2135   19.1615 N.pl3   1  UNL1       -0.2150
     13 H           5.0910   -3.8111   18.3952 H       1  UNL1        0.1737
     14 O           4.6463   -4.6402   20.7049 O.2     1  UNL1       -0.1499
     15 S           5.5895   -3.4957   20.4804 S.O2    1  UNL1        0.0751
     16 O           6.5327   -2.3511   20.2559 O.2     1  UNL1       -0.1499
     17 C           6.2459   -3.7778   21.7993 C.ar    1  UNL1        0.1443
     18 C           5.5004   -3.5276   23.0768 C.ar    1  UNL1        0.0246
     19 C           6.1569   -3.8098   24.3956 C.ar    1  UNL1        0.0357
     20 C           7.5586   -4.3421   24.4372 C.ar    1  UNL1        0.1319
     21 N           8.3040   -4.5924   23.1598 N.ar    1  UNL1       -0.2278
     22 C           7.6476   -4.3102   21.8408 C.ar    1  UNL1        0.1204
     23 N           8.2150   -4.6243   25.7561 N.pl3   1  UNL1       -0.2881
     24 C           8.3981   -3.5196   26.7542 C.3     1  UNL1        0.1242
     25 C           9.0546   -3.8017   28.0731 C.3     1  UNL1        0.1636
     26 O           9.5279   -5.1885   28.3939 O.3     1  UNL1       -0.3501
     27 C           9.3447   -6.2931   27.3958 C.3     1  UNL1        0.1636
     28 C           8.6883   -6.0110   26.0770 C.3     1  UNL1        0.1242
     29 C          -1.0139    2.9699   21.1725 C.3     1  UNL1        0.1180
     30 C          -2.2780    3.2506   20.4152 C.ar    1  UNL1        0.0693
     31 C          -2.3899    4.0525   19.1526 C.ar    1  UNL1        0.0379
     32 C          -3.8332    4.0762   18.7448 C.ar    1  UNL1        0.1211
     33 N          -4.6134    3.2889   19.7554 N.ar    1  UNL1       -0.1713
     34 N          -3.6522    2.7786   20.7879 N.ar    1  UNL1       -0.2784
     35 H          -3.8829    2.2302   21.5723 H       1  UNL1        0.1886
@<TRIPOS>BOND
     1    14    15    2
     2    15    16    2
     3    15    12    1
     4    12     1    1
     5     1     2   ar
     6     2     3   ar
     7     3     4   ar
     8     4     5   ar
     9     5     6   ar
    10     5     7    1
    11     7     8    1
    12     8     9    1
    13     9    29    1
    14    29    30    1
    15    30    31   ar
    16    31    32   ar
    17    32    33   ar
    18    33    34   ar
    19     9    10    1
    20    10    11    1
    21    15    17    1
    22    17    18   ar
    23    18    19   ar
    24    19    20   ar
    25    20    23    1
    26    23    24    1
    27    24    25    1
    28    25    26    1
    29    26    27    1
    30    27    28    1
    31    20    21   ar
    32    21    22   ar
    33     6     1   ar
    34    34    30   ar
    35    22    17   ar
    36    11     4    1
    37    28    23    1
    38    12    13    1
    39    34    35    1
@<TRIPOS>MOLECULE
*****
 35 39 0 0 0
SMALL
GASTEIGER

@<TRIPOS>ATOM
      1 C           8.0490   -4.9764   22.8850 C.ar    1  UNL1        0.0644
      2 C           8.7207   -6.3139   22.9845 C.ar    1  UNL1        0.0155
      3 C           8.8051   -7.0142   24.3084 C.ar    1  UNL1       -0.0032
      4 C           8.2179   -6.3768   25.5327 C.ar    1  UNL1       -0.0246
      5 C           7.5464   -5.0394   25.4332 C.ar    1  UNL1       -0.0234
      6 C           7.4619   -4.3391   24.1094 C.ar    1  UNL1        0.0113
      7 C           6.9007   -4.2337   26.5215 C.3     1  UNL1        0.0434
      8 C           6.7672   -4.5668   27.9780 C.3     1  UNL1        0.0771
      9 N           7.2463   -5.7876   28.7058 N.3     1  UNL1       -0.2671
     10 C           7.9774   -6.9770   28.1572 C.3     1  UNL1        0.0771
     11 C           8.4098   -7.2392   26.7450 C.3     1  UNL1        0.0434
     12 N           7.9646   -4.2762   21.5612 N.pl3   1  UNL1       -0.2150
     13 H           8.6624   -4.4214   20.8821 H       1  UNL1        0.1737
     14 O           5.9236   -4.5383   21.0458 O.2     1  UNL1       -0.1499
     15 S           6.8169   -3.3547   21.2720 S.O2    1  UNL1        0.0751
     16 O           7.7101   -2.1711   21.4983 O.2     1  UNL1       -0.1499
     17 C           5.6691   -2.4332   20.9829 C.ar    1  UNL1        0.1443
     18 C           4.4557   -2.4470   21.8647 C.ar    1  UNL1        0.0246
     19 C           3.3081   -1.5255   21.5755 C.ar    1  UNL1        0.0357
     20 C           3.3737   -0.5903   20.4046 C.ar    1  UNL1        0.1319
     21 N           4.5871   -0.5765   19.5228 N.ar    1  UNL1       -0.2278
     22 C           5.7348   -1.4980   19.8119 C.ar    1  UNL1        0.1204
     23 N           2.2260    0.3313   20.1154 N.pl3   1  UNL1       -0.2881
     24 C           1.9838    0.8106   18.7148 C.3     1  UNL1        0.1242
     25 C           0.8361    1.7322   18.4255 C.3     1  UNL1        0.1636
     26 O          -0.0693    2.1743   19.5367 O.3     1  UNL1       -0.3501
     27 C           0.1730    1.6948   20.9373 C.3     1  UNL1        0.1636
     28 C           1.3206    0.7734   21.2265 C.3     1  UNL1        0.1242
     29 C           6.9561   -5.8240   30.1770 C.3     1  UNL1        0.1180
     30 C           7.1925   -4.6049   31.0186 C.ar    1  UNL1        0.0693
     31 C           8.5174   -3.9452   31.2624 C.ar    1  UNL1        0.0379
     32 C           8.2892   -2.7642   32.1585 C.ar    1  UNL1        0.1211
     33 N           6.8233   -2.6939   32.4685 N.ar    1  UNL1       -0.1713
     34 N           6.1454   -3.8316   31.7640 N.ar    1  UNL1       -0.2784
     35 H           5.1824   -4.0350   31.7868 H       1  UNL1        0.1886
@<TRIPOS>BOND
     1    14    15    2
     2    15    16    2
     3    15    12    1
     4    12     1    1
     5     1     2   ar
     6     2     3   ar
     7     3     4   ar
     8     4     5   ar
     9     5     6   ar
    10     5     7    1
    11     7     8    1
    12     8     9    1
    13     9    29    1
    14    29    30    1
    15    30    31   ar
    16    31    32   ar
    17    32    33   ar
    18    33    34   ar
    19     9    10    1
    20    10    11    1
    21    15    17    1
    22    17    18   ar
    23    18    19   ar
    24    19    20   ar
    25    20    23    1
    26    23    24    1
    27    24    25    1
    28    25    26    1
    29    26    27    1
    30    27    28    1
    31    20    21   ar
    32    21    22   ar
    33     6     1   ar
    34    34    30   ar
    35    22    17   ar
    36    11     4    1
    37    28    23    1
    38    12    13    1
    39    34    35    1
@<TRIPOS>MOLECULE
*****
 35 39 0 0 0
SMALL
GASTEIGER

@<TRIPOS>ATOM
      1 C           7.7980   -6.7332   26.5328 C.ar    1  UNL1        0.0644
      2 C           8.4134   -7.8122   25.6919 C.ar    1  UNL1        0.0155
      3 C           8.7190   -7.5538   24.2462 C.ar    1  UNL1       -0.0032
      4 C           8.4092   -6.2164   23.6416 C.ar    1  UNL1       -0.0246
      5 C           7.7939   -5.1376   24.4825 C.ar    1  UNL1       -0.0234
      6 C           7.4883   -5.3959   25.9281 C.ar    1  UNL1        0.0113
      7 C           7.4083   -3.7445   24.0814 C.3     1  UNL1        0.0434
      8 C           7.5429   -3.0864   22.7401 C.3     1  UNL1        0.0771
      9 N           8.0963   -3.6588   21.4689 N.3     1  UNL1       -0.2671
     10 C           8.6517   -5.0306   21.2248 C.3     1  UNL1        0.0771
     11 C           8.7910   -6.1689   22.1917 C.3     1  UNL1        0.0434
     12 N           7.4924   -6.9916   27.9784 N.pl3   1  UNL1       -0.2150
     13 H           7.4938   -7.9132   28.3248 H       1  UNL1        0.1737
     14 O           8.5833   -5.9028   29.4360 O.2     1  UNL1       -0.1499
     15 S           7.1849   -5.8459   28.8964 S.O2    1  UNL1        0.0751
     16 O           5.7864   -5.7889   28.3568 O.2     1  UNL1       -0.1499
     17 C           6.8773   -4.7001   29.8144 C.ar    1  UNL1        0.1443
     18 C           6.9111   -4.8999   31.3006 C.ar    1  UNL1        0.0246
     19 C           6.6036   -3.7541   32.2185 C.ar    1  UNL1        0.0357
     20 C           6.2621   -2.4086   31.6503 C.ar    1  UNL1        0.1319
     21 N           6.2283   -2.2088   30.1640 N.ar    1  UNL1       -0.2278
     22 C           6.5359   -3.3545   29.2461 C.ar    1  UNL1        0.1204
     23 N           5.9546   -1.2628   32.5682 N.pl3   1  UNL1       -0.2881
     24 C           4.9699   -1.4406   33.6857 C.3     1  UNL1        0.1242
     25 C           4.6622   -0.2948   34.6036 C.3     1  UNL1        0.1636
     26 O           5.3392    1.0288   34.4040 O.3     1  UNL1       -0.3501
     27 C           6.3239    1.2065   33.2865 C.3     1  UNL1        0.1636
     28 C           6.6315    0.0608   32.3686 C.3     1  UNL1        0.1242
     29 C           8.0939   -2.7375   20.2852 C.3     1  UNL1        0.1180
     30 C           6.8988   -2.6821   19.3802 C.ar    1  UNL1        0.0693
     31 C           5.5521   -3.2803   19.6605 C.ar    1  UNL1        0.0379
     32 C           4.6618   -2.9867   18.4896 C.ar    1  UNL1        0.1211
     33 N           5.4581   -2.2069   17.4857 N.ar    1  UNL1       -0.1713
     34 N           6.8408   -2.0187   18.0361 N.ar    1  UNL1       -0.2784
     35 H           7.5803   -1.5432   17.5930 H       1  UNL1        0.1886
@<TRIPOS>BOND
     1    14    15    2
     2    15    16    2
     3    15    12    1
     4    12     1    1
     5     1     2   ar
     6     2     3   ar
     7     3     4   ar
     8     4     5   ar
     9     5     6   ar
    10     5     7    1
    11     7     8    1
    12     8     9    1
    13     9    29    1
    14    29    30    1
    15    30    31   ar
    16    31    32   ar
    17    32    33   ar
    18    33    34   ar
    19     9    10    1
    20    10    11    1
    21    15    17    1
    22    17    18   ar
    23    18    19   ar
    24    19    20   ar
    25    20    23    1
    26    23    24    1
    27    24    25    1
    28    25    26    1
    29    26    27    1
    30    27    28    1
    31    20    21   ar
    32    21    22   ar
    33     6     1   ar
    34    34    30   ar
    35    22    17   ar
    36    11     4    1
    37    28    23    1
    38    12    13    1
    39    34    35    1
@<TRIPOS>MOLECULE
*****
 35 39 0 0 0
SMALL
GASTEIGER

@<TRIPOS>ATOM
      1 C           1.8742    1.2768   25.7820 C.ar    1  UNL1        0.0644
      2 C           2.8827    0.3692   26.4216 C.ar    1  UNL1        0.0155
      3 C           3.6060   -0.6507   25.5929 C.ar    1  UNL1       -0.0032
      4 C           3.3208   -0.7628   24.1245 C.ar    1  UNL1       -0.0246
      5 C           2.3124    0.1448   23.4849 C.ar    1  UNL1       -0.0234
      6 C           1.5890    1.1646   24.3136 C.ar    1  UNL1        0.0113
      7 C           1.8813    0.1997   22.0492 C.3     1  UNL1        0.0434
      8 C           2.3524   -0.6395   20.8985 C.3     1  UNL1        0.0771
      9 N           3.3707   -1.7407   20.8994 N.3     1  UNL1       -0.2671
     10 C           4.1696   -2.2750   22.0511 C.3     1  UNL1        0.0771
     11 C           4.1474   -1.8398   23.4864 C.3     1  UNL1        0.0434
     12 N           1.1509    2.2966   26.6107 N.pl3   1  UNL1       -0.2150
     13 H           1.5733    2.6611   27.4219 H       1  UNL1        0.1737
     14 O           0.3737    4.0365   25.6787 O.2     1  UNL1       -0.1499
     15 S          -0.2160    2.7611   26.2035 S.O2    1  UNL1        0.0751
     16 O          -0.8058    1.4856   26.7284 O.2     1  UNL1       -0.1499
     17 C          -1.5830    3.2256   25.7964 C.ar    1  UNL1        0.1443
     18 C          -2.6271    3.4900   26.8404 C.ar    1  UNL1        0.0246
     19 C          -3.9940    3.9545   26.4331 C.ar    1  UNL1        0.0357
     20 C          -4.3168    4.1545   24.9821 C.ar    1  UNL1        0.1319
     21 N          -3.2727    3.8901   23.9380 N.ar    1  UNL1       -0.2278
     22 C          -1.9058    3.4256   24.3452 C.ar    1  UNL1        0.1204
     23 N          -5.6837    4.6190   24.5748 N.pl3   1  UNL1       -0.2881
     24 C          -6.2448    4.2208   23.2419 C.3     1  UNL1        0.1242
     25 C          -7.6117    4.6853   22.8345 C.3     1  UNL1        0.1636
     26 O          -8.4175    5.5479   23.7601 O.3     1  UNL1       -0.3501
     27 C          -7.8563    5.9460   25.0931 C.3     1  UNL1        0.1636
     28 C          -6.4895    5.4816   25.5003 C.3     1  UNL1        0.1242
     29 C           3.6236   -2.3943   19.5732 C.3     1  UNL1        0.1180
     30 C           4.7800   -1.9508   18.7268 C.ar    1  UNL1        0.0693
     31 C           5.0523   -0.5479   18.2712 C.ar    1  UNL1        0.0379
     32 C           6.3076   -0.5626   17.4504 C.ar    1  UNL1        0.1211
     33 N           6.8113   -1.9745   17.3986 N.ar    1  UNL1       -0.1713
     34 N           5.8671   -2.8326   18.1876 N.ar    1  UNL1       -0.2784
     35 H           5.9470   -3.8039   18.3270 H       1  UNL1        0.1886
@<TRIPOS>BOND
     1    14    15    2
     2    15    16    2
     3    15    12    1
     4    12     1    1
     5     1     2   ar
     6     2     3   ar
     7     3     4   ar
     8     4     5   ar
     9     5     6   ar
    10     5     7    1
    11     7     8    1
    12     8     9    1
    13     9    29    1
    14    29    30    1
    15    30    31   ar
    16    31    32   ar
    17    32    33   ar
    18    33    34   ar
    19     9    10    1
    20    10    11    1
    21    15    17    1
    22    17    18   ar
    23    18    19   ar
    24    19    20   ar
    25    20    23    1
    26    23    24    1
    27    24    25    1
    28    25    26    1
    29    26    27    1
    30    27    28    1
    31    20    21   ar
    32    21    22   ar
    33     6     1   ar
    34    34    30   ar
    35    22    17   ar
    36    11     4    1
    37    28    23    1
    38    12    13    1
    39    34    35    1
@<TRIPOS>MOLECULE
*****
 35 39 0 0 0
SMALL
GASTEIGER

@<TRIPOS>ATOM
      1 C          -0.3285    1.9729   25.2682 C.ar    1  UNL1        0.0644
      2 C          -0.8433    2.8671   24.1795 C.ar    1  UNL1        0.0155
      3 C          -0.2722    2.7693   22.7958 C.ar    1  UNL1       -0.0032
      4 C           0.8137    1.7774   22.5011 C.ar    1  UNL1       -0.0246
      5 C           1.3285    0.8833   23.5898 C.ar    1  UNL1       -0.0234
      6 C           0.7574    0.9809   24.9734 C.ar    1  UNL1        0.0113
      7 C           2.3974   -0.1662   23.5110 C.3     1  UNL1        0.0434
      8 C           3.2156   -0.5805   22.3240 C.3     1  UNL1        0.0771
      9 N           3.1668   -0.0478   20.9227 N.3     1  UNL1       -0.2671
     10 C           2.2879    1.0308   20.3621 C.3     1  UNL1        0.0771
     11 C           1.2407    1.8431   21.0646 C.3     1  UNL1        0.0434
     12 N          -0.8996    2.0706   26.6518 N.pl3   1  UNL1       -0.2150
     13 H          -1.8233    2.3854   26.7819 H       1  UNL1        0.1737
     14 O          -0.8530    0.4221   27.9861 O.2     1  UNL1       -0.1499
     15 S          -0.0634    1.6887   27.8370 S.O2    1  UNL1        0.0751
     16 O           0.7263    2.9554   27.6880 O.2     1  UNL1       -0.1499
     17 C           0.7729    1.3069   29.0223 C.ar    1  UNL1        0.1443
     18 C           1.1692    2.3477   30.0272 C.ar    1  UNL1        0.0246
     19 C           2.0055    1.9657   31.2124 C.ar    1  UNL1        0.0357
     20 C           2.4455    0.5431   31.3928 C.ar    1  UNL1        0.1319
     21 N           2.0492   -0.4977   30.3879 N.ar    1  UNL1       -0.2278
     22 C           1.2130   -0.1158   29.2026 C.ar    1  UNL1        0.1204
     23 N           3.2818    0.1611   32.5780 N.pl3   1  UNL1       -0.2881
     24 C           3.9209   -1.1945   32.6392 C.3     1  UNL1        0.1242
     25 C           4.7572   -1.5766   33.8244 C.3     1  UNL1        0.1636
     26 O           4.9544   -0.6030   34.9484 O.3     1  UNL1       -0.3501
     27 C           4.3151    0.7527   34.8871 C.3     1  UNL1        0.1636
     28 C           3.4789    1.1346   33.7020 C.3     1  UNL1        0.1242
     29 C           4.1235   -0.6769   19.9536 C.3     1  UNL1        0.1180
     30 C           4.3385   -2.1614   19.9685 C.ar    1  UNL1        0.0693
     31 C           3.4149   -3.1920   19.3896 C.ar    1  UNL1        0.0379
     32 C           4.0205   -4.5433   19.6283 C.ar    1  UNL1        0.1211
     33 N           5.3183   -4.3481   20.3547 N.ar    1  UNL1       -0.1713
     34 N           5.5148   -2.8759   20.5650 N.ar    1  UNL1       -0.2784
     35 H           6.2813   -2.4530   21.0154 H       1  UNL1        0.1886
@<TRIPOS>BOND
     1    14    15    2
     2    15    16    2
     3    15    12    1
     4    12     1    1
     5     1     2   ar
     6     2     3   ar
     7     3     4   ar
     8     4     5   ar
     9     5     6   ar
    10     5     7    1
    11     7     8    1
    12     8     9    1
    13     9    29    1
    14    29    30    1
    15    30    31   ar
    16    31    32   ar
    17    32    33   ar
    18    33    34   ar
    19     9    10    1
    20    10    11    1
    21    15    17    1
    22    17    18   ar
    23    18    19   ar
    24    19    20   ar
    25    20    23    1
    26    23    24    1
    27    24    25    1
    28    25    26    1
    29    26    27    1
    30    27    28    1
    31    20    21   ar
    32    21    22   ar
    33     6     1   ar
    34    34    30   ar
    35    22    17   ar
    36    11     4    1
    37    28    23    1
    38    12    13    1
    39    34    35    1
@<TRIPOS>MOLECULE
*****
 35 39 0 0 0
SMALL
GASTEIGER

@<TRIPOS>ATOM
      1 C          -0.0787    1.3387   26.6311 C.ar    1  UNL1        0.0644
      2 C           0.3931    1.4670   25.2130 C.ar    1  UNL1        0.0155
      3 C          -0.3373    2.3637   24.2578 C.ar    1  UNL1       -0.0032
      4 C          -1.5395    3.1322   24.7207 C.ar    1  UNL1       -0.0246
      5 C          -2.0112    3.0038   26.1387 C.ar    1  UNL1       -0.0234
      6 C          -1.2809    2.1072   27.0940 C.ar    1  UNL1        0.0113
      7 C          -3.1778    3.6755   26.8008 C.3     1  UNL1        0.0434
      8 C          -4.1606    4.6413   26.2080 C.3     1  UNL1        0.0771
      9 N          -4.2197    5.1740   24.8071 N.3     1  UNL1       -0.2671
     10 C          -3.3105    4.8725   23.6527 C.3     1  UNL1        0.0771
     11 C          -2.1177    3.9638   23.6143 C.3     1  UNL1        0.0434
     12 N           0.6518    0.4420   27.5862 N.pl3   1  UNL1       -0.2150
     13 H           0.9244   -0.4607   27.3034 H       1  UNL1        0.1737
     14 O           0.0249   -0.0999   29.5391 O.2     1  UNL1       -0.1499
     15 S           0.9669    0.9207   28.9724 S.O2    1  UNL1        0.0751
     16 O           1.9089    1.9414   28.4058 O.2     1  UNL1       -0.1499
     17 C           1.2820    1.3995   30.3586 C.ar    1  UNL1        0.1443
     18 C           2.3343    0.7046   31.1710 C.ar    1  UNL1        0.0246
     19 C           2.6494    1.1834   32.5571 C.ar    1  UNL1        0.0357
     20 C           1.9123    2.3570   33.1310 C.ar    1  UNL1        0.1319
     21 N           0.8600    3.0519   32.3187 N.ar    1  UNL1       -0.2278
     22 C           0.5448    2.5731   30.9325 C.ar    1  UNL1        0.1204
     23 N           2.2273    2.8358   34.5172 N.pl3   1  UNL1       -0.2881
     24 C           1.6484    4.1273   35.0142 C.3     1  UNL1        0.1242
     25 C           1.9634    4.6062   36.4003 C.3     1  UNL1        0.1636
     26 O           2.8573    3.7936   37.2895 O.3     1  UNL1       -0.3501
     27 C           3.4362    2.5021   36.7925 C.3     1  UNL1        0.1636
     28 C           3.1212    2.0233   35.4064 C.3     1  UNL1        0.1242
     29 C          -5.3355    6.1353   24.5229 C.3     1  UNL1        0.1180
     30 C          -6.7422    5.6326   24.3862 C.ar    1  UNL1        0.0693
     31 C          -7.9791    6.3323   24.8664 C.ar    1  UNL1        0.0379
     32 C          -9.1601    5.4740   24.5222 C.ar    1  UNL1        0.1211
     33 N          -8.6533    4.2440   23.8294 N.ar    1  UNL1       -0.1713
     34 N          -7.1588    4.3420   23.7453 N.ar    1  UNL1       -0.2784
     35 H          -6.5570    3.6761   23.3405 H       1  UNL1        0.1886
@<TRIPOS>BOND
     1    14    15    2
     2    15    16    2
     3    15    12    1
     4    12     1    1
     5     1     2   ar
     6     2     3   ar
     7     3     4   ar
     8     4     5   ar
     9     5     6   ar
    10     5     7    1
    11     7     8    1
    12     8     9    1
    13     9    29    1
    14    29    30    1
    15    30    31   ar
    16    31    32   ar
    17    32    33   ar
    18    33    34   ar
    19     9    10    1
    20    10    11    1
    21    15    17    1
    22    17    18   ar
    23    18    19   ar
    24    19    20   ar
    25    20    23    1
    26    23    24    1
    27    24    25    1
    28    25    26    1
    29    26    27    1
    30    27    28    1
    31    20    21   ar
    32    21    22   ar
    33     6     1   ar
    34    34    30   ar
    35    22    17   ar
    36    11     4    1
    37    28    23    1
    38    12    13    1
    39    34    35    1
@<TRIPOS>MOLECULE
*****
 35 39 0 0 0
SMALL
GASTEIGER

@<TRIPOS>ATOM
      1 C           3.7855   -1.7215   19.9901 C.ar    1  UNL1        0.0644
      2 C           3.6591   -1.2573   18.5693 C.ar    1  UNL1        0.0155
      3 C           2.7719   -0.0945   18.2364 C.ar    1  UNL1       -0.0032
      4 C           2.0111    0.6040   19.3243 C.ar    1  UNL1       -0.0246
      5 C           2.1376    0.1397   20.7449 C.ar    1  UNL1       -0.0234
      6 C           3.0247   -1.0230   21.0779 C.ar    1  UNL1        0.0113
      7 C           1.4725    0.6904   21.9716 C.3     1  UNL1        0.0434
      8 C           0.5167    1.8414   22.0803 C.3     1  UNL1        0.0771
      9 N          -0.0100    2.7259   20.9894 N.3     1  UNL1       -0.2671
     10 C           0.2889    2.6780   19.5203 C.3     1  UNL1        0.0771
     11 C           1.1884    1.7336   18.7792 C.3     1  UNL1        0.0434
     12 N           4.6727   -2.8843   20.3229 N.pl3   1  UNL1       -0.2150
     13 H           4.9400   -3.5173   19.6178 H       1  UNL1        0.1737
     14 O           4.2618   -4.2818   21.8651 O.2     1  UNL1       -0.1499
     15 S           5.1528   -3.0826   21.7301 S.O2    1  UNL1        0.0751
     16 O           6.0438   -1.8835   21.5951 O.2     1  UNL1       -0.1499
     17 C           5.6329   -3.2809   23.1373 C.ar    1  UNL1        0.1443
     18 C           6.5406   -4.4292   23.4653 C.ar    1  UNL1        0.0246
     19 C           7.0206   -4.6275   24.8725 C.ar    1  UNL1        0.0357
     20 C           6.5931   -3.6775   25.9517 C.ar    1  UNL1        0.1319
     21 N           5.6854   -2.5292   25.6238 N.ar    1  UNL1       -0.2278
     22 C           5.2053   -2.3309   24.2166 C.ar    1  UNL1        0.1204
     23 N           7.0731   -3.8758   27.3589 N.pl3   1  UNL1       -0.2881
     24 C           6.4444   -4.9271   28.2247 C.3     1  UNL1        0.1242
     25 C           6.9243   -5.1254   29.6319 C.3     1  UNL1        0.1636
     26 O           8.0330   -4.2724   30.1734 O.3     1  UNL1       -0.3501
     27 C           8.6617   -3.2210   29.3076 C.3     1  UNL1        0.1636
     28 C           8.1817   -3.0228   27.9005 C.3     1  UNL1        0.1242
     29 C          -0.9614    3.8005   21.4253 C.3     1  UNL1        0.1180
     30 C          -2.4148    3.4827   21.6177 C.ar    1  UNL1        0.0693
     31 C          -3.2205    3.7540   22.8535 C.ar    1  UNL1        0.0379
     32 C          -4.6211    3.2767   22.6076 C.ar    1  UNL1        0.1211
     33 N          -4.6811    2.7105   21.2199 N.ar    1  UNL1       -0.1713
     34 N          -3.3174    2.8378   20.6080 N.ar    1  UNL1       -0.2784
     35 H          -3.0600    2.5488   19.7028 H       1  UNL1        0.1886
@<TRIPOS>BOND
     1    14    15    2
     2    15    16    2
     3    15    12    1
     4    12     1    1
     5     1     2   ar
     6     2     3   ar
     7     3     4   ar
     8     4     5   ar
     9     5     6   ar
    10     5     7    1
    11     7     8    1
    12     8     9    1
    13     9    29    1
    14    29    30    1
    15    30    31   ar
    16    31    32   ar
    17    32    33   ar
    18    33    34   ar
    19     9    10    1
    20    10    11    1
    21    15    17    1
    22    17    18   ar
    23    18    19   ar
    24    19    20   ar
    25    20    23    1
    26    23    24    1
    27    24    25    1
    28    25    26    1
    29    26    27    1
    30    27    28    1
    31    20    21   ar
    32    21    22   ar
    33     6     1   ar
    34    34    30   ar
    35    22    17   ar
    36    11     4    1
    37    28    23    1
    38    12    13    1
    39    34    35    1
@<TRIPOS>MOLECULE
*****
 35 39 0 0 0
SMALL
GASTEIGER

@<TRIPOS>ATOM
      1 C           0.9487    2.9333   29.5215 C.ar    1  UNL1        0.0644
      2 C           0.3636    4.2567   29.9168 C.ar    1  UNL1        0.0155
      3 C           0.5032    4.7472   31.3275 C.ar    1  UNL1       -0.0032
      4 C           1.2280    3.9141   32.3428 C.ar    1  UNL1       -0.0246
      5 C           1.8131    2.5908   31.9475 C.ar    1  UNL1       -0.0234
      6 C           1.6735    2.1003   30.5369 C.ar    1  UNL1        0.0113
      7 C           2.5681    1.6110   32.7961 C.3     1  UNL1        0.0434
      8 C           2.9244    1.7128   34.2497 C.3     1  UNL1        0.0771
      9 N           2.6138    2.8193   35.2135 N.3     1  UNL1       -0.2671
     10 C           1.8701    4.0975   34.9619 C.3     1  UNL1        0.0771
     11 C           1.2534    4.5847   33.6844 C.3     1  UNL1        0.0434
     12 N           0.8090    2.4429   28.1108 N.pl3   1  UNL1       -0.2150
     13 H           1.5166    1.8877   27.7103 H       1  UNL1        0.1737
     14 O          -1.1666    1.6834   27.9683 O.2     1  UNL1       -0.1499
     15 S          -0.4088    2.7983   27.3104 S.O2    1  UNL1        0.0751
     16 O           0.3490    3.9132   26.6526 O.2     1  UNL1       -0.1499
     17 C          -1.6266    3.1537   26.5100 C.ar    1  UNL1        0.1443
     18 C          -2.8762    3.6051   27.2062 C.ar    1  UNL1        0.0246
     19 C          -4.0940    3.9605   26.4057 C.ar    1  UNL1        0.0357
     20 C          -4.0622    3.8646   24.9092 C.ar    1  UNL1        0.1319
     21 N          -2.8125    3.4132   24.2130 N.ar    1  UNL1       -0.2278
     22 C          -1.5947    3.0578   25.0134 C.ar    1  UNL1        0.1204
     23 N          -5.2799    4.2200   24.1087 N.pl3   1  UNL1       -0.2881
     24 C          -6.4772    4.8149   24.7890 C.3     1  UNL1        0.1242
     25 C          -7.6950    5.1703   23.9885 C.3     1  UNL1        0.1636
     26 O          -7.7155    4.9309   22.5079 O.3     1  UNL1       -0.3501
     27 C          -6.5182    4.3360   21.8277 C.3     1  UNL1        0.1636
     28 C          -5.3005    3.9806   22.6281 C.3     1  UNL1        0.1242
     29 C           3.1129    2.6216   36.6141 C.3     1  UNL1        0.1180
     30 C           2.1680    2.1779   37.6914 C.ar    1  UNL1        0.0693
     31 C           2.3139    0.9508   38.5417 C.ar    1  UNL1        0.0379
     32 C           1.1475    0.8980   39.4833 C.ar    1  UNL1        0.1211
     33 N           0.2806    2.0924   39.2150 N.ar    1  UNL1       -0.1713
     34 N           0.9114    2.8835   38.1075 N.ar    1  UNL1       -0.2784
     35 H           0.5619    3.7190   37.7215 H       1  UNL1        0.1886
@<TRIPOS>BOND
     1    14    15    2
     2    15    16    2
     3    15    12    1
     4    12     1    1
     5     1     2   ar
     6     2     3   ar
     7     3     4   ar
     8     4     5   ar
     9     5     6   ar
    10     5     7    1
    11     7     8    1
    12     8     9    1
    13     9    29    1
    14    29    30    1
    15    30    31   ar
    16    31    32   ar
    17    32    33   ar
    18    33    34   ar
    19     9    10    1
    20    10    11    1
    21    15    17    1
    22    17    18   ar
    23    18    19   ar
    24    19    20   ar
    25    20    23    1
    26    23    24    1
    27    24    25    1
    28    25    26    1
    29    26    27    1
    30    27    28    1
    31    20    21   ar
    32    21    22   ar
    33     6     1   ar
    34    34    30   ar
    35    22    17   ar
    36    11     4    1
    37    28    23    1
    38    12    13    1
    39    34    35    1
@<TRIPOS>MOLECULE
*****
 35 39 0 0 0
SMALL
GASTEIGER

@<TRIPOS>ATOM
      1 C           0.3105    1.2173   26.8648 C.ar    1  UNL1        0.0644
      2 C          -0.8239    2.0488   27.3863 C.ar    1  UNL1        0.0155
      3 C          -1.6576    2.8589   26.4383 C.ar    1  UNL1       -0.0032
      4 C          -1.3569    2.8374   24.9688 C.ar    1  UNL1       -0.0246
      5 C          -0.2226    2.0060   24.4475 C.ar    1  UNL1       -0.0234
      6 C           0.6111    1.1959   25.3954 C.ar    1  UNL1        0.0113
      7 C           0.2441    1.8436   23.0311 C.3     1  UNL1        0.0434
      8 C          -0.3085    2.4726   21.7864 C.3     1  UNL1        0.0771
      9 N          -1.4640    3.4192   21.6507 N.3     1  UNL1       -0.2671
     10 C          -2.3525    3.9708   22.7260 C.3     1  UNL1        0.0771
     11 C          -2.3048    3.7119   24.2028 C.3     1  UNL1        0.0434
     12 N           1.1442    0.4072   27.8128 N.pl3   1  UNL1       -0.2150
     13 H           1.5442   -0.4415   27.5147 H       1  UNL1        0.1737
     14 O           2.2952    1.9520   28.7011 O.2     1  UNL1       -0.1499
     15 S           1.3684    0.8904   29.2151 S.O2    1  UNL1        0.0751
     16 O           0.4416   -0.1712   29.7291 O.2     1  UNL1       -0.1499
     17 C           1.5926    1.3736   30.6174 C.ar    1  UNL1        0.1443
     18 C           2.6116    0.7007   31.4885 C.ar    1  UNL1        0.0246
     19 C           2.8358    1.1839   32.8908 C.ar    1  UNL1        0.0357
     20 C           2.0410    2.3399   33.4219 C.ar    1  UNL1        0.1319
     21 N           1.0220    3.0127   32.5507 N.ar    1  UNL1       -0.2278
     22 C           0.7978    2.5296   31.1484 C.ar    1  UNL1        0.1204
     23 N           2.2651    2.8231   34.8241 N.pl3   1  UNL1       -0.2881
     24 C           3.0670    1.9946   35.7836 C.3     1  UNL1        0.1242
     25 C           3.2912    2.4778   37.1859 C.3     1  UNL1        0.1636
     26 O           2.7135    3.7894   37.6286 O.3     1  UNL1       -0.3501
     27 C           1.9117    4.6179   36.6690 C.3     1  UNL1        0.1636
     28 C           1.6875    4.1347   35.2669 C.3     1  UNL1        0.1242
     29 C          -1.7717    3.8746   20.2550 C.3     1  UNL1        0.1180
     30 C          -3.1674    3.7564   19.7181 C.ar    1  UNL1        0.0693
     31 C          -3.6741    4.3558   18.4398 C.ar    1  UNL1        0.0379
     32 C          -5.1212    3.9878   18.2970 C.ar    1  UNL1        0.1211
     33 N          -5.5090    3.1610   19.4869 N.ar    1  UNL1       -0.1713
     34 N          -4.3014    3.0180   20.3653 N.ar    1  UNL1       -0.2784
     35 H          -4.2604    2.5259   21.2170 H       1  UNL1        0.1886
@<TRIPOS>BOND
     1    14    15    2
     2    15    16    2
     3    15    12    1
     4    12     1    1
     5     1     2   ar
     6     2     3   ar
     7     3     4   ar
     8     4     5   ar
     9     5     6   ar
    10     5     7    1
    11     7     8    1
    12     8     9    1
    13     9    29    1
    14    29    30    1
    15    30    31   ar
    16    31    32   ar
    17    32    33   ar
    18    33    34   ar
    19     9    10    1
    20    10    11    1
    21    15    17    1
    22    17    18   ar
    23    18    19   ar
    24    19    20   ar
    25    20    23    1
    26    23    24    1
    27    24    25    1
    28    25    26    1
    29    26    27    1
    30    27    28    1
    31    20    21   ar
    32    21    22   ar
    33     6     1   ar
    34    34    30   ar
    35    22    17   ar
    36    11     4    1
    37    28    23    1
    38    12    13    1
    39    34    35    1
