@<TRIPOS>MOLECULE
*****
 37 40 0 0 0
SMALL
GASTEIGER

@<TRIPOS>ATOM
      1 C          -9.2763  -18.1907   21.8165 C.2     1  UNL1        0.1397
      2 C          -7.8378  -17.9909   21.4412 C.2     1  UNL1        0.1355
      3 N          -6.9260  -17.2202   22.3492 N.pl3   1  UNL1       -0.1998
      4 C          -7.4525  -16.6493   23.6325 C.2     1  UNL1        0.3442
      5 N          -8.8910  -16.8492   24.0077 N.2     1  UNL1       -0.0580
      6 C          -9.8029  -17.6199   23.0997 C.3     1  UNL1        0.2692
      7 H          -5.9818  -17.0890   22.1029 H       1  UNL1        0.2983
      8 C         -11.2414  -17.8197   23.4750 C.ar    1  UNL1        0.0371
      9 C         -12.3037  -16.9577   22.8599 C.ar    1  UNL1        0.0030
     10 C         -13.7421  -17.1575   23.2351 C.ar    1  UNL1        0.0295
     11 C         -14.1184  -18.2193   24.2256 C.ar    1  UNL1        0.1406
     12 F         -15.5568  -18.4191   24.6009 F       1  UNL1       -0.2042
     13 C         -13.0561  -19.0813   24.8408 C.ar    1  UNL1        0.0362
     14 C         -11.6175  -18.8815   24.4655 C.ar    1  UNL1        0.0372
     15 BR        -10.5552  -19.7435   25.0807 Br      1  UNL1       -0.0491
     16 C          -6.5406  -15.8786   24.5405 C.ar    1  UNL1        0.1931
     17 N          -5.2653  -15.1987   24.1391 N.ar    1  UNL1       -0.2297
     18 C          -4.6804  -14.5524   25.3598 C.ar    1  UNL1        0.1067
     19 C          -5.5943  -14.8329   26.5157 C.ar    1  UNL1        0.0577
     20 S          -6.7439  -15.6526   26.0093 S.2     1  UNL1       -0.0586
     21 C         -10.1882  -18.9614   20.9085 C.2     1  UNL1        0.3447
     22 O         -10.6438  -20.3373   21.2948 O.2     1  UNL1       -0.2450
     23 O         -10.6445  -18.3562   19.6141 O.3     1  UNL1       -0.4455
     24 C         -11.1459  -15.8070   19.5982 C.3     1  UNL1        0.0513
     25 C         -11.6310  -17.2263   19.6210 C.3     1  UNL1        0.2089
     26 C          -7.3112  -18.5618   20.1579 C.3     1  UNL1        0.1405
     27 N          -5.9294  -19.1431   20.1069 N.3     1  UNL1       -0.2618
     28 C          -5.7093  -20.5857   20.4537 C.3     1  UNL1        0.1050
     29 C          -4.3274  -21.1670   20.4027 C.3     1  UNL1        0.1594
     30 O          -3.1657  -20.3056   20.0048 O.3     1  UNL1       -0.3533
     31 C          -3.3858  -18.8630   19.6579 C.3     1  UNL1        0.1316
     32 C          -4.7676  -18.2817   19.7090 C.3     1  UNL1        0.1024
     33 C          -2.2240  -18.0016   19.2601 C.3     1  UNL1        0.0369
     34 C          -1.4611  -17.2420   20.3046 C.3     1  UNL1        0.0442
     35 C          -2.1036  -16.9289   21.6234 C.2     1  UNL1        0.0504
     36 O          -2.0630  -17.9351   22.7351 O.co2   1  UNL1       -0.5492
     37 O          -2.7869  -15.6098   21.8303 O.co2   1  UNL1       -0.5492
@<TRIPOS>UNITY_ATOM_ATTR
36 1
charge -1
@<TRIPOS>BOND
     1    24    25    1
     2    25    23    1
     3    23    21    1
     4    21    22    2
     5    21     1    1
     6     1     2    2
     7     2    26    1
     8    26    27    1
     9    27    28    1
    10    28    29    1
    11    29    30    1
    12    30    31    1
    13    31    33    1
    14    33    34    1
    15    34    35    1
    16    35    36   ar
    17    35    37   ar
    18    31    32    1
    19     2     3    1
    20     3     4    1
    21     4    16    1
    22    16    17   ar
    23    17    18   ar
    24    18    19   ar
    25    19    20   ar
    26     4     5    2
    27     5     6    1
    28     6     8    1
    29     8     9   ar
    30     9    10   ar
    31    10    11   ar
    32    11    12    1
    33    11    13   ar
    34    13    14   ar
    35    14    15    1
    36     6     1    1
    37    14     8   ar
    38    32    27    1
    39    20    16   ar
    40     3     7    1
@<TRIPOS>MOLECULE
*****
 37 40 0 0 0
SMALL
GASTEIGER

@<TRIPOS>ATOM
      1 C          -9.2048  -18.3074   22.1317 C.2     1  UNL1        0.1397
      2 C          -7.7465  -18.1166   21.8370 C.2     1  UNL1        0.1355
      3 N          -6.8984  -17.2860   22.7539 N.pl3   1  UNL1       -0.1998
      4 C          -7.5087  -16.6460   23.9656 C.2     1  UNL1        0.3442
      5 N          -8.9670  -16.8368   24.2603 N.2     1  UNL1       -0.0580
      6 C          -9.8151  -17.6675   23.3433 C.3     1  UNL1        0.2692
      7 H          -5.9413  -17.1608   22.5605 H       1  UNL1        0.2983
      8 C         -11.2734  -17.8582   23.6381 C.ar    1  UNL1        0.0371
      9 C         -11.7023  -18.8015   24.7227 C.ar    1  UNL1        0.0030
     10 C         -13.1606  -18.9923   25.0175 C.ar    1  UNL1        0.0295
     11 C         -14.1901  -18.2397   24.2277 C.ar    1  UNL1        0.1406
     12 F         -15.6484  -18.4305   24.5224 F       1  UNL1       -0.2042
     13 C         -13.7613  -17.2964   23.1431 C.ar    1  UNL1        0.0362
     14 C         -12.3029  -17.1057   22.8483 C.ar    1  UNL1        0.0372
     15 BR        -11.8741  -16.1624   21.7638 Br      1  UNL1       -0.0491
     16 C          -6.6606  -15.8154   24.8825 C.ar    1  UNL1        0.1931
     17 N          -5.3929  -15.1056   24.5094 N.ar    1  UNL1       -0.2297
     18 C          -4.8801  -14.4002   25.7298 C.ar    1  UNL1        0.1067
     19 C          -5.8309  -14.6739   26.8572 C.ar    1  UNL1        0.0577
     20 S          -6.9313  -15.5486   26.3335 S.2     1  UNL1       -0.0586
     21 C         -10.0529  -19.1381   21.2148 C.2     1  UNL1        0.3447
     22 O         -10.7883  -20.3313   21.7490 O.2     1  UNL1       -0.2450
     23 O         -10.1656  -18.7756   19.7637 O.3     1  UNL1       -0.4455
     24 C          -9.0021  -20.5914   18.3149 C.3     1  UNL1        0.0513
     25 C         -10.2428  -19.8548   18.7248 C.3     1  UNL1        0.2089
     26 C          -7.1362  -18.7566   20.6253 C.3     1  UNL1        0.1405
     27 N          -5.7413  -19.3043   20.6888 N.3     1  UNL1       -0.2618
     28 C          -5.4359  -20.6489   20.0981 C.3     1  UNL1        0.1050
     29 C          -4.0409  -21.1966   20.1615 C.3     1  UNL1        0.1594
     30 O          -2.9513  -20.3998   20.8156 O.3     1  UNL1       -0.3533
     31 C          -3.2567  -19.0553   21.4063 C.3     1  UNL1        0.1316
     32 C          -4.6516  -18.5075   21.3429 C.3     1  UNL1        0.1024
     33 C          -2.1671  -18.2584   22.0604 C.3     1  UNL1        0.0369
     34 C          -1.2264  -17.4447   21.2219 C.3     1  UNL1        0.0442
     35 C          -0.8572  -17.9086   19.8441 C.2     1  UNL1        0.0504
     36 O          -1.6970  -17.5077   18.6676 O.co2   1  UNL1       -0.5492
     37 O           0.3518  -18.7733   19.6427 O.co2   1  UNL1       -0.5492
@<TRIPOS>UNITY_ATOM_ATTR
36 1
charge -1
@<TRIPOS>BOND
     1    24    25    1
     2    25    23    1
     3    23    21    1
     4    21    22    2
     5    21     1    1
     6     1     2    2
     7     2    26    1
     8    26    27    1
     9    27    28    1
    10    28    29    1
    11    29    30    1
    12    30    31    1
    13    31    33    1
    14    33    34    1
    15    34    35    1
    16    35    36   ar
    17    35    37   ar
    18    31    32    1
    19     2     3    1
    20     3     4    1
    21     4    16    1
    22    16    17   ar
    23    17    18   ar
    24    18    19   ar
    25    19    20   ar
    26     4     5    2
    27     5     6    1
    28     6     8    1
    29     8     9   ar
    30     9    10   ar
    31    10    11   ar
    32    11    12    1
    33    11    13   ar
    34    13    14   ar
    35    14    15    1
    36     6     1    1
    37    14     8   ar
    38    32    27    1
    39    20    16   ar
    40     3     7    1
@<TRIPOS>MOLECULE
*****
 37 40 0 0 0
SMALL
GASTEIGER

@<TRIPOS>ATOM
      1 C           6.3979   -2.8673   25.0639 C.2     1  UNL1        0.1397
      2 C           6.4579   -2.6411   26.5455 C.2     1  UNL1        0.1355
      3 N           5.3639   -1.8789   27.2327 N.pl3   1  UNL1       -0.1998
      4 C           4.2100   -1.3430   26.4383 C.2     1  UNL1        0.3442
      5 N           4.1500   -1.5692   24.9567 N.2     1  UNL1       -0.0580
      6 C           5.2440   -2.3314   24.2695 C.3     1  UNL1        0.2692
      7 H           5.4033   -1.7304   28.2051 H       1  UNL1        0.2983
      8 C           5.1840   -2.5576   22.7878 C.ar    1  UNL1        0.0371
      9 C           4.5058   -3.7794   22.2426 C.ar    1  UNL1        0.0030
     10 C           4.4458   -4.0056   20.7610 C.ar    1  UNL1        0.0295
     11 C           5.0639   -3.0100   19.8245 C.ar    1  UNL1        0.1406
     12 F           5.0039   -3.2363   18.3430 F       1  UNL1       -0.2042
     13 C           5.7421   -1.7882   20.3698 C.ar    1  UNL1        0.0362
     14 C           5.8021   -1.5620   21.8515 C.ar    1  UNL1        0.0372
     15 BR          6.4802   -0.3402   22.3968 Br      1  UNL1       -0.0491
     16 C           3.1160   -0.5808   27.1255 C.ar    1  UNL1        0.1931
     17 N           2.4317   -0.9770   28.4002 N.ar    1  UNL1       -0.2297
     18 C           1.4070    0.0703   28.7212 C.ar    1  UNL1        0.1067
     19 C           1.4579    1.1139   27.6449 C.ar    1  UNL1        0.0577
     20 S           2.5141    0.7114   26.6587 S.2     1  UNL1       -0.0586
     21 C           7.4919   -3.6295   24.3767 C.2     1  UNL1        0.3447
     22 O           8.7431   -2.9224   23.9471 O.2     1  UNL1       -0.2450
     23 O           7.3348   -5.0988   24.1190 O.3     1  UNL1       -0.4455
     24 C           8.1393   -7.5155   24.6311 C.3     1  UNL1        0.0513
     25 C           7.9347   -6.0948   25.0667 C.3     1  UNL1        0.2089
     26 C           7.6119   -3.1770   27.3399 C.3     1  UNL1        0.1405
     27 N           7.3740   -3.7898   28.6882 N.3     1  UNL1       -0.2618
     28 C           7.3070   -5.2813   28.8329 C.3     1  UNL1        0.1050
     29 C           7.0690   -5.8941   30.1812 C.3     1  UNL1        0.1594
     30 O           6.8982   -5.0154   31.3848 O.3     1  UNL1       -0.3533
     31 C           6.9652   -3.5239   31.2401 C.3     1  UNL1        0.1316
     32 C           7.2031   -2.9111   29.8919 C.3     1  UNL1        0.1024
     33 C           6.7944   -2.6452   32.4437 C.3     1  UNL1        0.0369
     34 C           5.7497   -1.5687   32.4442 C.3     1  UNL1        0.0442
     35 C           4.3043   -1.9264   32.6251 C.2     1  UNL1        0.0504
     36 O           3.9069   -2.9475   33.6496 O.co2   1  UNL1       -0.5492
     37 O           3.2563   -1.2629   31.7817 O.co2   1  UNL1       -0.5492
@<TRIPOS>UNITY_ATOM_ATTR
36 1
charge -1
@<TRIPOS>BOND
     1    24    25    1
     2    25    23    1
     3    23    21    1
     4    21    22    2
     5    21     1    1
     6     1     2    2
     7     2    26    1
     8    26    27    1
     9    27    28    1
    10    28    29    1
    11    29    30    1
    12    30    31    1
    13    31    33    1
    14    33    34    1
    15    34    35    1
    16    35    36   ar
    17    35    37   ar
    18    31    32    1
    19     2     3    1
    20     3     4    1
    21     4    16    1
    22    16    17   ar
    23    17    18   ar
    24    18    19   ar
    25    19    20   ar
    26     4     5    2
    27     5     6    1
    28     6     8    1
    29     8     9   ar
    30     9    10   ar
    31    10    11   ar
    32    11    12    1
    33    11    13   ar
    34    13    14   ar
    35    14    15    1
    36     6     1    1
    37    14     8   ar
    38    32    27    1
    39    20    16   ar
    40     3     7    1
@<TRIPOS>MOLECULE
*****
 37 40 0 0 0
SMALL
GASTEIGER

@<TRIPOS>ATOM
      1 C         -14.9225   -4.6607   19.3836 C.2     1  UNL1        0.1397
      2 C         -16.3327   -4.9483   19.8061 C.2     1  UNL1        0.1355
      3 N         -16.9263   -6.3045   19.5646 N.pl3   1  UNL1       -0.1998
      4 C         -16.1096   -7.3731   18.9004 C.2     1  UNL1        0.3442
      5 N         -14.6995   -7.0855   18.4779 N.2     1  UNL1       -0.0580
      6 C         -14.1059   -5.7293   18.7194 C.3     1  UNL1        0.2692
      7 H         -17.8518   -6.4932   19.8419 H       1  UNL1        0.2983
      8 C         -12.6956   -5.4418   18.2968 C.ar    1  UNL1        0.0371
      9 C         -11.5612   -5.7028   19.2428 C.ar    1  UNL1        0.0030
     10 C         -10.1510   -5.4153   18.8203 C.ar    1  UNL1        0.0295
     11 C          -9.8751   -4.8667   17.4517 C.ar    1  UNL1        0.1406
     12 F          -8.4649   -4.5792   17.0291 F       1  UNL1       -0.2042
     13 C         -11.0096   -4.6056   16.5057 C.ar    1  UNL1        0.0362
     14 C         -12.4198   -4.8932   16.9283 C.ar    1  UNL1        0.0372
     15 BR        -13.5543   -4.6321   15.9823 Br      1  UNL1       -0.0491
     16 C         -16.7032   -8.7293   18.6589 C.ar    1  UNL1        0.1931
     17 N         -16.1153  -10.0392   19.0931 N.ar    1  UNL1       -0.2297
     18 C         -17.0376  -11.1332   18.6433 C.ar    1  UNL1        0.1067
     19 C         -18.1957  -10.4995   17.9310 C.ar    1  UNL1        0.0577
     20 S         -17.9890   -9.0139   17.9406 S.2     1  UNL1       -0.0586
     21 C         -14.3289   -3.3045   19.6251 C.2     1  UNL1        0.3447
     22 O         -13.7784   -2.9566   20.9763 O.2     1  UNL1       -0.2450
     23 O         -14.2859   -2.2962   18.5155 O.3     1  UNL1       -0.4455
     24 C         -11.7544   -1.7800   18.7897 C.3     1  UNL1        0.0513
     25 C         -13.1383   -1.3351   18.4195 C.3     1  UNL1        0.2089
     26 C         -17.1494   -3.8796   20.4703 C.3     1  UNL1        0.1405
     27 N         -17.8135   -2.8198   19.6423 N.3     1  UNL1       -0.2618
     28 C         -18.4280   -3.1756   18.3211 C.3     1  UNL1        0.1050
     29 C         -19.0922   -2.1157   17.4930 C.3     1  UNL1        0.1594
     30 O         -19.1417   -0.7000   17.9863 O.3     1  UNL1       -0.3533
     31 C         -18.5272   -0.3442   19.3075 C.3     1  UNL1        0.1316
     32 C         -17.8631   -1.4040   20.1355 C.3     1  UNL1        0.1024
     33 C         -18.5767    1.0715   19.8008 C.3     1  UNL1        0.0369
     34 C         -18.7405    1.3501   21.2656 C.3     1  UNL1        0.0442
     35 C         -17.6465    2.0405   22.0247 C.2     1  UNL1        0.0504
     36 O         -17.6355    2.0039   23.5242 O.co2   1  UNL1       -0.5492
     37 O         -16.5633    2.7675   21.2843 O.co2   1  UNL1       -0.5492
@<TRIPOS>UNITY_ATOM_ATTR
36 1
charge -1
@<TRIPOS>BOND
     1    24    25    1
     2    25    23    1
     3    23    21    1
     4    21    22    2
     5    21     1    1
     6     1     2    2
     7     2    26    1
     8    26    27    1
     9    27    28    1
    10    28    29    1
    11    29    30    1
    12    30    31    1
    13    31    33    1
    14    33    34    1
    15    34    35    1
    16    35    36   ar
    17    35    37   ar
    18    31    32    1
    19     2     3    1
    20     3     4    1
    21     4    16    1
    22    16    17   ar
    23    17    18   ar
    24    18    19   ar
    25    19    20   ar
    26     4     5    2
    27     5     6    1
    28     6     8    1
    29     8     9   ar
    30     9    10   ar
    31    10    11   ar
    32    11    12    1
    33    11    13   ar
    34    13    14   ar
    35    14    15    1
    36     6     1    1
    37    14     8   ar
    38    32    27    1
    39    20    16   ar
    40     3     7    1
@<TRIPOS>MOLECULE
*****
 37 40 0 0 0
SMALL
GASTEIGER

@<TRIPOS>ATOM
      1 C           4.7915    1.0521   32.0424 C.2     1  UNL1        0.1397
      2 C           3.7792    2.1589   32.0392 C.2     1  UNL1        0.1355
      3 N           2.5485    2.0473   31.1889 N.pl3   1  UNL1       -0.1998
      4 C           2.3303    0.8289   30.3417 C.2     1  UNL1        0.3442
      5 N           3.3426   -0.2779   30.3448 N.2     1  UNL1       -0.0580
      6 C           4.5733   -0.1663   31.1952 C.3     1  UNL1        0.2692
      7 H           1.8841    2.7738   31.1868 H       1  UNL1        0.2983
      8 C           5.5857   -1.2732   31.1983 C.ar    1  UNL1        0.0371
      9 C           6.7159   -1.2586   30.2122 C.ar    1  UNL1        0.0030
     10 C           7.7283   -2.3654   30.2153 C.ar    1  UNL1        0.0295
     11 C           7.6104   -3.4869   31.2045 C.ar    1  UNL1        0.1406
     12 F           8.6228   -4.5937   31.2075 F       1  UNL1       -0.2042
     13 C           6.4802   -3.5015   32.1906 C.ar    1  UNL1        0.0362
     14 C           5.4678   -2.3946   32.1874 C.ar    1  UNL1        0.0372
     15 BR          4.3376   -2.4092   33.1735 Br      1  UNL1       -0.0491
     16 C           1.0996    0.7173   29.4913 C.ar    1  UNL1        0.1931
     17 N          -0.3079    0.5793   29.9911 N.ar    1  UNL1       -0.2297
     18 C          -1.2170    0.5008   28.8006 C.ar    1  UNL1        0.1067
     19 C          -0.3713    0.5903   27.5650 C.ar    1  UNL1        0.0577
     20 S           1.0604    0.7241   27.9919 S.2     1  UNL1       -0.0586
     21 C           6.0222    1.1637   32.8927 C.2     1  UNL1        0.3447
     22 O           7.1957    1.9649   32.4122 O.2     1  UNL1       -0.2450
     23 O           6.0793    0.4741   34.2235 O.3     1  UNL1       -0.4455
     24 C           8.3270   -0.8214   34.0833 C.3     1  UNL1        0.0513
     25 C           7.4048    0.1042   34.8202 C.3     1  UNL1        0.2089
     26 C           3.9974    3.3774   32.8864 C.3     1  UNL1        0.1405
     27 N           3.1337    3.6195   34.0886 N.3     1  UNL1       -0.2618
     28 C           2.1094    4.7152   34.0679 C.3     1  UNL1        0.1050
     29 C           1.2457    4.9573   35.2701 C.3     1  UNL1        0.1594
     30 O           1.4062    4.1037   36.4931 O.3     1  UNL1       -0.3533
     31 C           2.4304    3.0080   36.5138 C.3     1  UNL1        0.1316
     32 C           3.2941    2.7659   35.3116 C.3     1  UNL1        0.1024
     33 C           2.5909    2.1545   37.7368 C.3     1  UNL1        0.0369
     34 C           2.1427    2.6671   39.0734 C.3     1  UNL1        0.0442
     35 C           0.9133    2.1011   39.7200 C.2     1  UNL1        0.0504
     36 O          -0.1150    1.3953   38.8867 O.co2   1  UNL1       -0.5492
     37 O           0.7123    2.2409   41.1998 O.co2   1  UNL1       -0.5492
@<TRIPOS>UNITY_ATOM_ATTR
36 1
charge -1
@<TRIPOS>BOND
     1    24    25    1
     2    25    23    1
     3    23    21    1
     4    21    22    2
     5    21     1    1
     6     1     2    2
     7     2    26    1
     8    26    27    1
     9    27    28    1
    10    28    29    1
    11    29    30    1
    12    30    31    1
    13    31    33    1
    14    33    34    1
    15    34    35    1
    16    35    36   ar
    17    35    37   ar
    18    31    32    1
    19     2     3    1
    20     3     4    1
    21     4    16    1
    22    16    17   ar
    23    17    18   ar
    24    18    19   ar
    25    19    20   ar
    26     4     5    2
    27     5     6    1
    28     6     8    1
    29     8     9   ar
    30     9    10   ar
    31    10    11   ar
    32    11    12    1
    33    11    13   ar
    34    13    14   ar
    35    14    15    1
    36     6     1    1
    37    14     8   ar
    38    32    27    1
    39    20    16   ar
    40     3     7    1
@<TRIPOS>MOLECULE
*****
 37 40 0 0 0
SMALL
GASTEIGER

@<TRIPOS>ATOM
      1 C           1.1125    1.9165   21.9257 C.2     1  UNL1        0.1397
      2 C           0.1838    2.7337   22.7739 C.2     1  UNL1        0.1355
      3 N           0.0947    2.4779   24.2492 N.pl3   1  UNL1       -0.1998
      4 C           0.9344    1.4048   24.8764 C.2     1  UNL1        0.3442
      5 N           1.8632    0.5876   24.0282 N.2     1  UNL1       -0.0580
      6 C           1.9522    0.8434   22.5528 C.3     1  UNL1        0.2692
      7 H          -0.5149    3.0143   24.8059 H       1  UNL1        0.2983
      8 C           2.8810    0.0261   21.7046 C.ar    1  UNL1        0.0371
      9 C           2.3503   -1.1328   20.9138 C.ar    1  UNL1        0.0030
     10 C           3.2790   -1.9501   20.0657 C.ar    1  UNL1        0.0295
     11 C           4.7386   -1.6085   20.0082 C.ar    1  UNL1        0.1406
     12 F           5.6673   -2.4258   19.1600 F       1  UNL1       -0.2042
     13 C           5.2693   -0.4496   20.7990 C.ar    1  UNL1        0.0362
     14 C           4.3404    0.3677   21.6472 C.ar    1  UNL1        0.0372
     15 BR          4.8711    1.5266   22.4380 Br      1  UNL1       -0.0491
     16 C           0.8454    1.1490   26.3517 C.ar    1  UNL1        0.1931
     17 N           1.9561    0.6524   27.2291 N.ar    1  UNL1       -0.2297
     18 C           1.4271    0.5413   28.6283 C.ar    1  UNL1        0.1067
     19 C          -0.0105    0.9692   28.6158 C.ar    1  UNL1        0.0577
     20 S          -0.3700    1.3447   27.2087 S.2     1  UNL1       -0.0586
     21 C           1.2015    2.1724   20.4504 C.2     1  UNL1        0.3447
     22 O           0.1993    1.5555   19.5204 O.2     1  UNL1       -0.2450
     23 O           2.2928    3.0450   19.9050 O.3     1  UNL1       -0.4455
     24 C           3.3758    1.3850   18.2252 C.3     1  UNL1        0.0513
     25 C           2.8751    2.7607   18.5522 C.3     1  UNL1        0.2089
     26 C          -0.6560    3.8069   22.1468 C.3     1  UNL1        0.1405
     27 N          -2.1382    3.6183   22.0149 N.3     1  UNL1       -0.2618
     28 C          -2.7455    3.3683   20.6663 C.3     1  UNL1        0.1050
     29 C          -4.2278    3.1797   20.5345 C.3     1  UNL1        0.1594
     30 O          -5.1028    3.2412   21.7513 O.3     1  UNL1       -0.3533
     31 C          -4.4955    3.4912   23.0999 C.3     1  UNL1        0.1316
     32 C          -3.0133    3.6798   23.2317 C.3     1  UNL1        0.1024
     33 C          -5.3705    3.5527   24.3167 C.3     1  UNL1        0.0369
     34 C          -5.2853    4.7294   25.2431 C.3     1  UNL1        0.0442
     35 C          -4.6957    4.5646   26.6125 C.2     1  UNL1        0.0504
     36 O          -3.5771    3.5905   26.8352 O.co2   1  UNL1       -0.5492
     37 O          -5.2249    5.3739   27.7592 O.co2   1  UNL1       -0.5492
@<TRIPOS>UNITY_ATOM_ATTR
36 1
charge -1
@<TRIPOS>BOND
     1    24    25    1
     2    25    23    1
     3    23    21    1
     4    21    22    2
     5    21     1    1
     6     1     2    2
     7     2    26    1
     8    26    27    1
     9    27    28    1
    10    28    29    1
    11    29    30    1
    12    30    31    1
    13    31    33    1
    14    33    34    1
    15    34    35    1
    16    35    36   ar
    17    35    37   ar
    18    31    32    1
    19     2     3    1
    20     3     4    1
    21     4    16    1
    22    16    17   ar
    23    17    18   ar
    24    18    19   ar
    25    19    20   ar
    26     4     5    2
    27     5     6    1
    28     6     8    1
    29     8     9   ar
    30     9    10   ar
    31    10    11   ar
    32    11    12    1
    33    11    13   ar
    34    13    14   ar
    35    14    15    1
    36     6     1    1
    37    14     8   ar
    38    32    27    1
    39    20    16   ar
    40     3     7    1
@<TRIPOS>MOLECULE
*****
 37 40 0 0 0
SMALL
GASTEIGER

@<TRIPOS>ATOM
      1 C           6.1985   -2.5912   24.3467 C.2     1  UNL1        0.1397
      2 C           6.4068   -2.5016   25.8295 C.2     1  UNL1        0.1355
      3 N           5.4006   -1.7929   26.6868 N.pl3   1  UNL1       -0.1998
      4 C           4.1859   -1.1737   26.0614 C.2     1  UNL1        0.3442
      5 N           3.9775   -1.2633   24.5787 N.2     1  UNL1       -0.0580
      6 C           4.9838   -1.9720   23.7214 C.3     1  UNL1        0.2692
      7 H           5.5374   -1.7341   27.6600 H       1  UNL1        0.2983
      8 C           4.7753   -2.0616   22.2386 C.ar    1  UNL1        0.0371
      9 C           4.2363   -3.3231   21.6318 C.ar    1  UNL1        0.0030
     10 C           4.0279   -3.4127   20.1491 C.ar    1  UNL1        0.0295
     11 C           4.3585   -2.2408   19.2731 C.ar    1  UNL1        0.1406
     12 F           4.1500   -2.3304   17.7904 F       1  UNL1       -0.2042
     13 C           4.8975   -0.9793   19.8798 C.ar    1  UNL1        0.0362
     14 C           5.1059   -0.8897   21.3626 C.ar    1  UNL1        0.0372
     15 BR          5.6450    0.3717   21.9693 Br      1  UNL1       -0.0491
     16 C           3.1796   -0.4649   26.9188 C.ar    1  UNL1        0.1931
     17 N           2.2713    0.6445   26.4781 N.ar    1  UNL1       -0.2297
     18 C           1.4353    1.0540   27.6543 C.ar    1  UNL1        0.1067
     19 C           1.8269    0.1976   28.8219 C.ar    1  UNL1        0.0577
     20 S           2.9049   -0.7411   28.3673 S.2     1  UNL1       -0.0586
     21 C           7.2047   -3.3000   23.4894 C.2     1  UNL1        0.3447
     22 O           7.0317   -4.7572   23.1788 O.2     1  UNL1       -0.2450
     23 O           8.3841   -2.5516   22.9427 O.3     1  UNL1       -0.4455
     24 C           7.8929   -3.2077   20.4772 C.3     1  UNL1        0.0513
     25 C           8.4641   -2.2456   21.4764 C.3     1  UNL1        0.2089
     26 C           7.6216   -3.1208   26.4549 C.3     1  UNL1        0.1405
     27 N           7.4901   -3.9213   27.7166 N.3     1  UNL1       -0.2618
     28 C           7.4469   -5.4193   27.6534 C.3     1  UNL1        0.1050
     29 C           7.3154   -6.2197   28.9153 C.3     1  UNL1        0.1594
     30 O           7.2270   -5.5221   30.2402 O.3     1  UNL1       -0.3533
     31 C           7.2702   -4.0241   30.3034 C.3     1  UNL1        0.1316
     32 C           7.4017   -3.2236   29.0417 C.3     1  UNL1        0.1024
     33 C           7.1818   -3.3264   31.6283 C.3     1  UNL1        0.0369
     34 C           6.0095   -3.5755   32.5304 C.3     1  UNL1        0.0442
     35 C           5.0801   -2.4513   32.8801 C.2     1  UNL1        0.0504
     36 O           3.8904   -2.7070   33.7572 O.co2   1  UNL1       -0.5492
     37 O           5.3404   -1.0714   32.3527 O.co2   1  UNL1       -0.5492
@<TRIPOS>UNITY_ATOM_ATTR
36 1
charge -1
@<TRIPOS>BOND
     1    24    25    1
     2    25    23    1
     3    23    21    1
     4    21    22    2
     5    21     1    1
     6     1     2    2
     7     2    26    1
     8    26    27    1
     9    27    28    1
    10    28    29    1
    11    29    30    1
    12    30    31    1
    13    31    33    1
    14    33    34    1
    15    34    35    1
    16    35    36   ar
    17    35    37   ar
    18    31    32    1
    19     2     3    1
    20     3     4    1
    21     4    16    1
    22    16    17   ar
    23    17    18   ar
    24    18    19   ar
    25    19    20   ar
    26     4     5    2
    27     5     6    1
    28     6     8    1
    29     8     9   ar
    30     9    10   ar
    31    10    11   ar
    32    11    12    1
    33    11    13   ar
    34    13    14   ar
    35    14    15    1
    36     6     1    1
    37    14     8   ar
    38    32    27    1
    39    20    16   ar
    40     3     7    1
@<TRIPOS>MOLECULE
*****
 37 40 0 0 0
SMALL
GASTEIGER

@<TRIPOS>ATOM
      1 C           2.6215    2.8111   30.8835 C.2     1  UNL1        0.1397
      2 C           3.5165    2.7315   32.0846 C.2     1  UNL1        0.1355
      3 N           4.1178    1.4172   32.4860 N.pl3   1  UNL1       -0.1998
      4 C           3.8241    0.1826   31.6863 C.2     1  UNL1        0.3442
      5 N           2.9291    0.2623   30.4853 N.2     1  UNL1       -0.0580
      6 C           2.3278    1.5765   30.0839 C.3     1  UNL1        0.2692
      7 H           4.7052    1.3650   33.2743 H       1  UNL1        0.2983
      8 C           1.4328    1.6562   28.8827 C.ar    1  UNL1        0.0371
      9 C          -0.0447    1.4449   29.0330 C.ar    1  UNL1        0.0030
     10 C          -0.9397    1.5245   27.8320 C.ar    1  UNL1        0.0295
     11 C          -0.3573    1.8154   26.4805 C.ar    1  UNL1        0.1406
     12 F          -1.2523    1.8950   25.2795 F       1  UNL1       -0.2042
     13 C           1.1201    2.0267   26.3302 C.ar    1  UNL1        0.0362
     14 C           2.0152    1.9470   27.5314 C.ar    1  UNL1        0.0372
     15 BR          3.4926    2.1583   27.3811 Br      1  UNL1       -0.0491
     16 C           4.4255   -1.1316   32.0877 C.ar    1  UNL1        0.1931
     17 N           3.8709   -2.0797   33.1093 N.ar    1  UNL1       -0.2297
     18 C           4.7896   -3.2626   33.1910 C.ar    1  UNL1        0.1067
     19 C           5.9121   -3.0456   32.2199 C.ar    1  UNL1        0.0577
     20 S           5.6870   -1.7286   31.5381 S.2     1  UNL1       -0.0586
     21 C           2.0201    4.1254   30.4821 C.2     1  UNL1        0.3447
     22 O           2.7991    5.0748   29.6208 O.2     1  UNL1       -0.2450
     23 O           0.6398    4.4903   30.9420 O.3     1  UNL1       -0.4455
     24 C           0.1513    4.9567   33.4507 C.3     1  UNL1        0.0513
     25 C           0.1459    4.0210   32.2783 C.3     1  UNL1        0.2089
     26 C           3.8102    3.9661   32.8843 C.3     1  UNL1        0.1405
     27 N           4.1105    3.8567   34.3498 N.3     1  UNL1       -0.2618
     28 C           5.3389    4.5065   34.9143 C.3     1  UNL1        0.1050
     29 C           5.6392    4.3970   36.3799 C.3     1  UNL1        0.1594
     30 O           4.7111    3.6376   37.2809 O.3     1  UNL1       -0.3533
     31 C           3.4827    2.9878   36.7164 C.3     1  UNL1        0.1316
     32 C           3.1824    3.0973   35.2509 C.3     1  UNL1        0.1024
     33 C           2.5546    2.2284   37.6175 C.3     1  UNL1        0.0369
     34 C           1.9389    2.9080   38.8046 C.3     1  UNL1        0.0442
     35 C           0.8471    2.2273   39.5757 C.2     1  UNL1        0.0504
     36 O          -0.1896    1.4190   38.8533 O.co2   1  UNL1       -0.5492
     37 O           0.7921    2.3550   41.0692 O.co2   1  UNL1       -0.5492
@<TRIPOS>UNITY_ATOM_ATTR
36 1
charge -1
@<TRIPOS>BOND
     1    24    25    1
     2    25    23    1
     3    23    21    1
     4    21    22    2
     5    21     1    1
     6     1     2    2
     7     2    26    1
     8    26    27    1
     9    27    28    1
    10    28    29    1
    11    29    30    1
    12    30    31    1
    13    31    33    1
    14    33    34    1
    15    34    35    1
    16    35    36   ar
    17    35    37   ar
    18    31    32    1
    19     2     3    1
    20     3     4    1
    21     4    16    1
    22    16    17   ar
    23    17    18   ar
    24    18    19   ar
    25    19    20   ar
    26     4     5    2
    27     5     6    1
    28     6     8    1
    29     8     9   ar
    30     9    10   ar
    31    10    11   ar
    32    11    12    1
    33    11    13   ar
    34    13    14   ar
    35    14    15    1
    36     6     1    1
    37    14     8   ar
    38    32    27    1
    39    20    16   ar
    40     3     7    1
@<TRIPOS>MOLECULE
*****
 37 40 0 0 0
SMALL
GASTEIGER

@<TRIPOS>ATOM
      1 C          -8.7818  -18.3816   21.7058 C.2     1  UNL1        0.1397
      2 C          -7.5758  -18.8652   22.4553 C.2     1  UNL1        0.1355
      3 N          -7.0170  -18.0496   23.5834 N.pl3   1  UNL1       -0.1998
      4 C          -7.6642  -16.7505   23.9620 C.2     1  UNL1        0.3442
      5 N          -8.8702  -16.2669   23.2125 N.2     1  UNL1       -0.0580
      6 C          -9.4289  -17.0825   22.0844 C.3     1  UNL1        0.2692
      7 H          -6.2255  -18.3670   24.0753 H       1  UNL1        0.2983
      8 C         -10.6350  -16.5989   21.3349 C.ar    1  UNL1        0.0371
      9 C         -10.4661  -15.8374   20.0536 C.ar    1  UNL1        0.0030
     10 C         -11.6721  -15.3538   19.3041 C.ar    1  UNL1        0.0295
     11 C         -13.0469  -15.6316   19.8358 C.ar    1  UNL1        0.1406
     12 F         -14.2528  -15.1480   19.0863 F       1  UNL1       -0.2042
     13 C         -13.2157  -16.3931   21.1171 C.ar    1  UNL1        0.0362
     14 C         -12.0097  -16.8767   21.8666 C.ar    1  UNL1        0.0372
     15 BR        -12.1785  -17.6382   23.1479 Br      1  UNL1       -0.0491
     16 C          -7.1055  -15.9349   25.0901 C.ar    1  UNL1        0.1931
     17 N          -5.7892  -15.2156   25.0905 N.ar    1  UNL1       -0.2297
     18 C          -5.6351  -14.5316   26.4165 C.ar    1  UNL1        0.1067
     19 C          -6.8561  -14.8282   27.2357 C.ar    1  UNL1        0.0577
     20 S          -7.7648  -15.6954   26.4159 S.2     1  UNL1       -0.0586
     21 C          -9.3405  -19.1972   20.5777 C.2     1  UNL1        0.3447
     22 O         -10.5566  -20.0474   20.7974 O.2     1  UNL1       -0.2450
     23 O          -8.6832  -19.1625   19.2298 O.3     1  UNL1       -0.4455
     24 C          -9.2347  -21.1032   17.5928 C.3     1  UNL1        0.0513
     25 C          -8.2909  -20.4427   18.5536 C.3     1  UNL1        0.2089
     26 C          -6.9286  -20.1643   22.0767 C.3     1  UNL1        0.1405
     27 N          -5.5679  -20.1685   21.4454 N.3     1  UNL1       -0.2618
     28 C          -5.2761  -21.0898   20.2982 C.3     1  UNL1        0.1050
     29 C          -3.9154  -21.0938   19.6669 C.3     1  UNL1        0.1594
     30 O          -2.8465  -20.1766   20.1828 O.3     1  UNL1       -0.3533
     31 C          -3.1383  -19.2553   21.3300 C.3     1  UNL1        0.1316
     32 C          -4.4989  -19.2512   21.9613 C.3     1  UNL1        0.1024
     33 C          -2.0694  -18.3381   21.8459 C.3     1  UNL1        0.0369
     34 C          -1.3087  -17.4629   20.8944 C.3     1  UNL1        0.0442
     35 C          -0.6817  -18.0561   19.6677 C.2     1  UNL1        0.0504
     36 O          -1.3103  -17.8369   18.3235 O.co2   1  UNL1       -0.5492
     37 O           0.5737  -18.8685   19.7851 O.co2   1  UNL1       -0.5492
@<TRIPOS>UNITY_ATOM_ATTR
36 1
charge -1
@<TRIPOS>BOND
     1    24    25    1
     2    25    23    1
     3    23    21    1
     4    21    22    2
     5    21     1    1
     6     1     2    2
     7     2    26    1
     8    26    27    1
     9    27    28    1
    10    28    29    1
    11    29    30    1
    12    30    31    1
    13    31    33    1
    14    33    34    1
    15    34    35    1
    16    35    36   ar
    17    35    37   ar
    18    31    32    1
    19     2     3    1
    20     3     4    1
    21     4    16    1
    22    16    17   ar
    23    17    18   ar
    24    18    19   ar
    25    19    20   ar
    26     4     5    2
    27     5     6    1
    28     6     8    1
    29     8     9   ar
    30     9    10   ar
    31    10    11   ar
    32    11    12    1
    33    11    13   ar
    34    13    14   ar
    35    14    15    1
    36     6     1    1
    37    14     8   ar
    38    32    27    1
    39    20    16   ar
    40     3     7    1
