@<TRIPOS>MOLECULE
*****
 29 33 0 0 0
SMALL
GASTEIGER

@<TRIPOS>ATOM
      1 C         -15.3436   -6.4348   19.4150 C.3     1  UNL1        0.0872
      2 C         -14.0161   -5.7448   19.3074 C.3     1  UNL1        0.0358
      3 C         -15.2632   -4.9414   19.5298 C.3     1  UNL1        0.0358
      4 O         -17.5962   -7.6581   18.9911 O.2     1  UNL1       -0.2730
      5 C         -16.1565   -7.6954   19.4107 C.2     1  UNL1        0.2445
      6 N         -15.5298   -8.9934   19.8261 N.am    1  UNL1       -0.1970
      7 O         -16.3427  -10.2540   19.8219 O.3     1  UNL1       -0.2952
      8 H         -14.5849   -9.0179   20.1015 H       1  UNL1        0.1822
      9 H         -17.2453  -10.0557   19.5271 H       1  UNL1        0.2414
     10 C         -12.5297   -5.8103   19.1169 C.ar    1  UNL1       -0.0217
     11 C         -11.8675   -7.1253   18.8303 C.ar    1  UNL1       -0.0043
     12 C         -10.3811   -7.1907   18.6398 C.ar    1  UNL1       -0.0003
     13 C          -9.5569   -5.9411   18.7360 C.ar    1  UNL1       -0.0000
     14 C         -10.2191   -4.6261   19.0227 C.ar    1  UNL1       -0.0003
     15 C         -11.7055   -4.5607   19.2131 C.ar    1  UNL1       -0.0043
     16 C         -15.9367   -3.6154   19.7245 C.ar    1  UNL1       -0.0217
     17 C         -17.4301   -3.5432   19.8452 C.ar    1  UNL1       -0.0042
     18 C         -18.1035   -2.2170   20.0399 C.ar    1  UNL1        0.0028
     19 C         -17.2836   -0.9632   20.1139 C.ar    1  UNL1        0.0362
     20 C         -15.7902   -1.0353   19.9932 C.ar    1  UNL1        0.0028
     21 C         -15.1168   -2.3614   19.7985 C.ar    1  UNL1       -0.0042
     22 C         -17.9571    0.3629   20.3085 C.ar    1  UNL1        0.1659
     23 C         -18.5346    1.2258   19.2260 C.ar    1  UNL1        0.1391
     24 N         -19.1058    2.4551   19.8683 N.ar    1  UNL1       -0.2104
     25 C         -18.8813    2.3519   21.3479 C.ar    1  UNL1        0.2052
     26 O         -18.1714    1.0589   21.6199 O.2     1  UNL1       -0.4384
     27 C         -19.2942    3.3641   22.3750 C.3     1  UNL1        0.0766
     28 C         -19.2045    3.9115   23.7687 C.3     1  UNL1        0.0097
     29 C         -20.0991    4.5697   22.7605 C.3     1  UNL1        0.0097
@<TRIPOS>BOND
     1     4     5    2
     2     5     6   am
     3     6     7    1
     4     1     5    1
     5     1     2    1
     6     2    10    1
     7    10    11   ar
     8    11    12   ar
     9    12    13   ar
    10    13    14   ar
    11    14    15   ar
    12     2     3    1
    13     3    16    1
    14    16    17   ar
    15    17    18   ar
    16    18    19   ar
    17    19    22    1
    18    22    23   ar
    19    23    24   ar
    20    24    25   ar
    21    25    27    1
    22    27    28    1
    23    28    29    1
    24    25    26   ar
    25    19    20   ar
    26    20    21   ar
    27     3     1    1
    28    21    16   ar
    29    15    10   ar
    30    26    22   ar
    31    29    27    1
    32     6     8    1
    33     7     9    1
@<TRIPOS>MOLECULE
*****
 29 33 0 0 0
SMALL
GASTEIGER

@<TRIPOS>ATOM
      1 C           6.8925   -4.0869   30.6549 C.3     1  UNL1        0.0872
      2 C           6.1805   -2.7704   30.7544 C.3     1  UNL1        0.0358
      3 C           6.4501   -3.3775   29.4095 C.3     1  UNL1        0.0358
      4 O           8.9967   -5.5663   31.0208 O.2     1  UNL1       -0.2730
      5 C           7.5591   -5.2565   31.3164 C.2     1  UNL1        0.2445
      6 N           6.7881   -6.1163   32.2736 N.am    1  UNL1       -0.1970
      7 O           7.4546   -7.2859   32.9352 O.3     1  UNL1       -0.2952
      8 H           5.8446   -5.9129   32.4676 H       1  UNL1        0.1822
      9 H           8.3757   -7.3444   32.6368 H       1  UNL1        0.2414
     10 C           5.6137   -1.6598   31.5883 C.ar    1  UNL1       -0.0217
     11 C           4.9535   -1.9683   32.8994 C.ar    1  UNL1       -0.0043
     12 C           4.3867   -0.8578   33.7333 C.ar    1  UNL1       -0.0003
     13 C           4.4802    0.5612   33.2561 C.ar    1  UNL1       -0.0000
     14 C           5.1404    0.8697   31.9451 C.ar    1  UNL1       -0.0003
     15 C           5.7071   -0.2408   31.1112 C.ar    1  UNL1       -0.0043
     16 C           6.3504   -3.3184   27.9140 C.ar    1  UNL1       -0.0217
     17 C           5.7790   -2.1019   27.2479 C.ar    1  UNL1       -0.0042
     18 C           5.6793   -2.0429   25.7523 C.ar    1  UNL1        0.0028
     19 C           6.1509   -3.2003   24.9229 C.ar    1  UNL1        0.0362
     20 C           6.7223   -4.4168   25.5890 C.ar    1  UNL1        0.0028
     21 C           6.8220   -4.4759   27.0845 C.ar    1  UNL1       -0.0042
     22 C           6.0511   -3.1412   23.4275 C.ar    1  UNL1        0.1659
     23 C           6.8882   -2.2882   22.5210 C.ar    1  UNL1        0.1391
     24 N           6.4512   -2.5445   21.1092 N.ar    1  UNL1       -0.2104
     25 C           5.3440   -3.5560   21.1430 C.ar    1  UNL1        0.2052
     26 O           5.0968   -3.9247   22.5758 O.2     1  UNL1       -0.4384
     27 C           4.6125   -4.1027   19.9531 C.3     1  UNL1        0.0766
     28 C           4.5605   -5.0253   18.7715 C.3     1  UNL1        0.0097
     29 C           3.3978   -4.1270   19.0734 C.3     1  UNL1        0.0097
@<TRIPOS>BOND
     1     4     5    2
     2     5     6   am
     3     6     7    1
     4     1     5    1
     5     1     2    1
     6     2    10    1
     7    10    11   ar
     8    11    12   ar
     9    12    13   ar
    10    13    14   ar
    11    14    15   ar
    12     2     3    1
    13     3    16    1
    14    16    17   ar
    15    17    18   ar
    16    18    19   ar
    17    19    22    1
    18    22    23   ar
    19    23    24   ar
    20    24    25   ar
    21    25    27    1
    22    27    28    1
    23    28    29    1
    24    25    26   ar
    25    19    20   ar
    26    20    21   ar
    27     3     1    1
    28    21    16   ar
    29    15    10   ar
    30    26    22   ar
    31    29    27    1
    32     6     8    1
    33     7     9    1
@<TRIPOS>MOLECULE
*****
 29 33 0 0 0
SMALL
GASTEIGER

@<TRIPOS>ATOM
      1 C           5.3114   -2.2547   19.7735 C.3     1  UNL1        0.0872
      2 C           5.9392   -2.9050   20.9705 C.3     1  UNL1        0.0358
      3 C           4.8206   -1.9221   21.1514 C.3     1  UNL1        0.0358
      4 O           6.4522   -2.2803   17.4394 O.2     1  UNL1       -0.2730
      5 C           5.2323   -2.0712   18.2869 C.2     1  UNL1        0.2445
      6 N           3.9333   -1.6786   17.6477 N.am    1  UNL1       -0.1970
      7 O           3.8542   -1.4951   16.1611 O.3     1  UNL1       -0.2952
      8 H           3.1327   -1.5413   18.2040 H       1  UNL1        0.1822
      9 H           4.7238   -1.6674   15.7673 H       1  UNL1        0.2414
     10 C           6.9476   -3.8479   21.5572 C.ar    1  UNL1       -0.0217
     11 C           6.8197   -4.2895   22.9850 C.ar    1  UNL1       -0.0043
     12 C           7.8280   -5.2324   23.5716 C.ar    1  UNL1       -0.0003
     13 C           8.9643   -5.7337   22.7304 C.ar    1  UNL1       -0.0000
     14 C           9.0922   -5.2922   21.3027 C.ar    1  UNL1       -0.0003
     15 C           8.0839   -4.3493   20.7160 C.ar    1  UNL1       -0.0043
     16 C           3.8915   -1.1627   22.0513 C.ar    1  UNL1       -0.0217
     17 C           4.0232   -1.2849   23.5405 C.ar    1  UNL1       -0.0042
     18 C           3.0940   -0.5254   24.4404 C.ar    1  UNL1        0.0028
     19 C           2.0331    0.3562   23.8512 C.ar    1  UNL1        0.0362
     20 C           1.9014    0.4784   22.3620 C.ar    1  UNL1        0.0028
     21 C           2.8305   -0.2810   21.4620 C.ar    1  UNL1       -0.0042
     22 C           1.1039    1.1156   24.7511 C.ar    1  UNL1        0.1659
     23 C           1.3013    1.3604   26.2177 C.ar    1  UNL1        0.1391
     24 N           0.1336    2.1596   26.7155 N.ar    1  UNL1       -0.2104
     25 C          -0.7854    2.4088   25.5564 C.ar    1  UNL1        0.2052
     26 O          -0.1857    1.7635   24.3424 O.2     1  UNL1       -0.4384
     27 C          -2.0773    3.1696   25.6033 C.3     1  UNL1        0.0766
     28 C          -3.1248    3.9038   26.3867 C.3     1  UNL1        0.0097
     29 C          -3.2674    3.7533   24.9011 C.3     1  UNL1        0.0097
@<TRIPOS>BOND
     1     4     5    2
     2     5     6   am
     3     6     7    1
     4     1     5    1
     5     1     2    1
     6     2    10    1
     7    10    11   ar
     8    11    12   ar
     9    12    13   ar
    10    13    14   ar
    11    14    15   ar
    12     2     3    1
    13     3    16    1
    14    16    17   ar
    15    17    18   ar
    16    18    19   ar
    17    19    22    1
    18    22    23   ar
    19    23    24   ar
    20    24    25   ar
    21    25    27    1
    22    27    28    1
    23    28    29    1
    24    25    26   ar
    25    19    20   ar
    26    20    21   ar
    27     3     1    1
    28    21    16   ar
    29    15    10   ar
    30    26    22   ar
    31    29    27    1
    32     6     8    1
    33     7     9    1
@<TRIPOS>MOLECULE
*****
 29 33 0 0 0
SMALL
GASTEIGER

@<TRIPOS>ATOM
      1 C           4.1800   -2.6086   21.6190 C.3     1  UNL1        0.0872
      2 C           4.1663   -2.0523   23.0119 C.3     1  UNL1        0.0358
      3 C           3.2676   -1.4686   21.9623 C.3     1  UNL1        0.0358
      4 O           5.9887   -4.3285   20.8973 O.2     1  UNL1       -0.2730
      5 C           4.7147   -3.5880   20.6166 C.2     1  UNL1        0.2445
      6 N           3.9754   -3.8270   19.3335 N.am    1  UNL1       -0.1970
      7 O           4.5101   -4.8064   18.3310 O.3     1  UNL1       -0.2952
      8 H           3.1393   -3.3410   19.1493 H       1  UNL1        0.1822
      9 H           5.3340   -5.1940   18.6654 H       1  UNL1        0.2414
     10 C           4.6772   -2.0682   24.4222 C.ar    1  UNL1       -0.0217
     11 C           3.9359   -1.3295   25.4968 C.ar    1  UNL1       -0.0043
     12 C           4.4469   -1.3454   26.9070 C.ar    1  UNL1       -0.0003
     13 C           5.6991   -2.0999   27.2426 C.ar    1  UNL1       -0.0000
     14 C           6.4403   -2.8386   26.1680 C.ar    1  UNL1       -0.0003
     15 C           5.9294   -2.8228   24.7578 C.ar    1  UNL1       -0.0043
     16 C           2.2220   -0.4734   21.5546 C.ar    1  UNL1       -0.0217
     17 C           1.8059    0.6095   22.5055 C.ar    1  UNL1       -0.0042
     18 C           0.7603    1.6047   22.0977 C.ar    1  UNL1        0.0028
     19 C           0.1308    1.5170   20.7390 C.ar    1  UNL1        0.0362
     20 C           0.5470    0.4342   19.7881 C.ar    1  UNL1        0.0028
     21 C           1.5925   -0.5610   20.1958 C.ar    1  UNL1       -0.0042
     22 C          -0.9147    2.5122   20.3312 C.ar    1  UNL1        0.1659
     23 C          -0.7147    3.6682   19.3965 C.ar    1  UNL1        0.1391
     24 N          -2.0202    4.3966   19.2742 N.ar    1  UNL1       -0.2104
     25 C          -3.0272    3.6908   20.1333 C.ar    1  UNL1        0.2052
     26 O          -2.3439    2.5262   20.7866 O.2     1  UNL1       -0.4384
     27 C          -4.4649    4.0811   20.3084 C.3     1  UNL1        0.0766
     28 C          -5.5247    4.8338   21.0569 C.3     1  UNL1        0.0097
     29 C          -5.8952    4.0045   19.8631 C.3     1  UNL1        0.0097
@<TRIPOS>BOND
     1     4     5    2
     2     5     6   am
     3     6     7    1
     4     1     5    1
     5     1     2    1
     6     2    10    1
     7    10    11   ar
     8    11    12   ar
     9    12    13   ar
    10    13    14   ar
    11    14    15   ar
    12     2     3    1
    13     3    16    1
    14    16    17   ar
    15    17    18   ar
    16    18    19   ar
    17    19    22    1
    18    22    23   ar
    19    23    24   ar
    20    24    25   ar
    21    25    27    1
    22    27    28    1
    23    28    29    1
    24    25    26   ar
    25    19    20   ar
    26    20    21   ar
    27     3     1    1
    28    21    16   ar
    29    15    10   ar
    30    26    22   ar
    31    29    27    1
    32     6     8    1
    33     7     9    1
@<TRIPOS>MOLECULE
*****
 29 33 0 0 0
SMALL
GASTEIGER

@<TRIPOS>ATOM
      1 C           3.2972   -1.3691   20.2796 C.3     1  UNL1        0.0872
      2 C           2.5151   -0.4700   21.1905 C.3     1  UNL1        0.0358
      3 C           3.5611   -1.3842   21.7561 C.3     1  UNL1        0.0358
      4 O           3.9507   -3.3227   18.6964 O.2     1  UNL1       -0.2730
      5 C           3.5965   -1.8795   18.9013 C.2     1  UNL1        0.2445
      6 N           3.5414   -0.9469   17.7278 N.am    1  UNL1       -0.1970
      7 O           3.8407   -1.4573   16.3494 O.3     1  UNL1       -0.2952
      8 H           3.3089    0.0002   17.8622 H       1  UNL1        0.1822
      9 H           4.0492   -2.4036   16.3932 H       1  UNL1        0.2414
     10 C           1.4595    0.5770   21.3898 C.ar    1  UNL1       -0.0217
     11 C           0.6385    1.0456   20.2252 C.ar    1  UNL1       -0.0043
     12 C          -0.4169    2.0925   20.4246 C.ar    1  UNL1       -0.0003
     13 C          -0.6515    2.6709   21.7885 C.ar    1  UNL1       -0.0000
     14 C           0.1695    2.2024   22.9532 C.ar    1  UNL1       -0.0003
     15 C           1.2250    1.1554   22.7538 C.ar    1  UNL1       -0.0043
     16 C           4.3174   -1.9208   22.9352 C.ar    1  UNL1       -0.0217
     17 C           5.1799   -3.1384   22.7820 C.ar    1  UNL1       -0.0042
     18 C           5.9362   -3.6749   23.9611 C.ar    1  UNL1        0.0028
     19 C           5.8300   -2.9938   25.2933 C.ar    1  UNL1        0.0362
     20 C           4.9675   -1.7761   25.4464 C.ar    1  UNL1        0.0028
     21 C           4.2112   -1.2396   24.2674 C.ar    1  UNL1       -0.0042
     22 C           6.5863   -3.5303   26.4723 C.ar    1  UNL1        0.1659
     23 C           8.0188   -3.9752   26.4727 C.ar    1  UNL1        0.1391
     24 N           8.3607   -4.4360   27.8586 N.ar    1  UNL1       -0.2104
     25 C           7.1395   -4.2760   28.7148 C.ar    1  UNL1        0.2052
     26 O           6.0428   -3.7162   27.8580 O.2     1  UNL1       -0.4384
     27 C           7.0335   -4.6160   30.1719 C.3     1  UNL1        0.0766
     28 C           6.7832   -4.1940   31.5894 C.3     1  UNL1        0.0097
     29 C           7.1002   -5.6267   31.2782 C.3     1  UNL1        0.0097
@<TRIPOS>BOND
     1     4     5    2
     2     5     6   am
     3     6     7    1
     4     1     5    1
     5     1     2    1
     6     2    10    1
     7    10    11   ar
     8    11    12   ar
     9    12    13   ar
    10    13    14   ar
    11    14    15   ar
    12     2     3    1
    13     3    16    1
    14    16    17   ar
    15    17    18   ar
    16    18    19   ar
    17    19    22    1
    18    22    23   ar
    19    23    24   ar
    20    24    25   ar
    21    25    27    1
    22    27    28    1
    23    28    29    1
    24    25    26   ar
    25    19    20   ar
    26    20    21   ar
    27     3     1    1
    28    21    16   ar
    29    15    10   ar
    30    26    22   ar
    31    29    27    1
    32     6     8    1
    33     7     9    1
@<TRIPOS>MOLECULE
*****
 29 33 0 0 0
SMALL
GASTEIGER

@<TRIPOS>ATOM
      1 C           4.7191   -1.5523   32.1719 C.3     1  UNL1        0.0872
      2 C           4.2654   -0.4889   33.1276 C.3     1  UNL1        0.0358
      3 C           3.7012   -0.5393   31.7387 C.3     1  UNL1        0.0358
      4 O           6.4266   -2.7719   30.6400 O.2     1  UNL1       -0.2730
      5 C           5.5686   -2.7511   31.8703 C.2     1  UNL1        0.2445
      6 N           5.5603   -3.9291   32.7988 N.am    1  UNL1       -0.1970
      7 O           6.4098   -5.1280   32.4971 O.3     1  UNL1       -0.2952
      8 H           4.9972   -3.9155   33.6062 H       1  UNL1        0.1822
      9 H           6.8979   -4.9790   31.6722 H       1  UNL1        0.2414
     10 C           4.3293    0.1541   34.4814 C.ar    1  UNL1       -0.0217
     11 C           3.6066    1.4440   34.7338 C.ar    1  UNL1       -0.0043
     12 C           3.6706    2.0870   36.0875 C.ar    1  UNL1       -0.0003
     13 C           4.4572    1.4401   37.1887 C.ar    1  UNL1       -0.0000
     14 C           5.1799    0.1501   36.9362 C.ar    1  UNL1       -0.0003
     15 C           5.1160   -0.4928   35.5826 C.ar    1  UNL1       -0.0043
     16 C           2.7878    0.0165   30.6867 C.ar    1  UNL1       -0.0217
     17 C           1.9493    1.2244   30.9835 C.ar    1  UNL1       -0.0042
     18 C           1.0358    1.7802   29.9315 C.ar    1  UNL1        0.0028
     19 C           0.9609    1.1281   28.5827 C.ar    1  UNL1        0.0362
     20 C           1.7993   -0.0797   28.2859 C.ar    1  UNL1        0.0028
     21 C           2.7128   -0.6355   29.3379 C.ar    1  UNL1       -0.0042
     22 C           0.0474    1.6839   27.5308 C.ar    1  UNL1        0.1659
     23 C           0.2789    1.6399   26.0494 C.ar    1  UNL1        0.1391
     24 N          -0.8833    2.3101   25.3785 N.ar    1  UNL1       -0.2104
     25 C          -1.8331    2.7683   26.4453 C.ar    1  UNL1        0.2052
     26 O          -1.2579    2.3813   27.7754 O.2     1  UNL1       -0.4384
     27 C          -3.1304    3.4873   26.2212 C.3     1  UNL1        0.0766
     28 C          -4.2630    4.3179   26.7478 C.3     1  UNL1        0.0097
     29 C          -4.2447    3.9020   25.3067 C.3     1  UNL1        0.0097
@<TRIPOS>BOND
     1     4     5    2
     2     5     6   am
     3     6     7    1
     4     1     5    1
     5     1     2    1
     6     2    10    1
     7    10    11   ar
     8    11    12   ar
     9    12    13   ar
    10    13    14   ar
    11    14    15   ar
    12     2     3    1
    13     3    16    1
    14    16    17   ar
    15    17    18   ar
    16    18    19   ar
    17    19    22    1
    18    22    23   ar
    19    23    24   ar
    20    24    25   ar
    21    25    27    1
    22    27    28    1
    23    28    29    1
    24    25    26   ar
    25    19    20   ar
    26    20    21   ar
    27     3     1    1
    28    21    16   ar
    29    15    10   ar
    30    26    22   ar
    31    29    27    1
    32     6     8    1
    33     7     9    1
@<TRIPOS>MOLECULE
*****
 29 33 0 0 0
SMALL
GASTEIGER

@<TRIPOS>ATOM
      1 C          -2.9303    3.5974   25.9518 C.3     1  UNL1        0.0872
      2 C          -1.8559    3.2859   24.9525 C.3     1  UNL1        0.0358
      3 C          -1.6269    3.0131   26.4096 C.3     1  UNL1        0.0358
      4 O          -5.4745    3.6837   25.4324 O.2     1  UNL1       -0.2730
      5 C          -4.3031    4.1147   26.2645 C.2     1  UNL1        0.2445
      6 N          -4.5046    5.0628   27.4092 N.am    1  UNL1       -0.1970
      7 O          -5.8775    5.5800   27.7218 O.3     1  UNL1       -0.2952
      8 H          -3.7359    5.3456   27.9553 H       1  UNL1        0.1822
      9 H          -6.5148    5.2061   27.0934 H       1  UNL1        0.2414
     10 C          -1.3679    3.2636   23.5342 C.ar    1  UNL1       -0.0217
     11 C          -2.2638    3.7300   22.4253 C.ar    1  UNL1       -0.0043
     12 C          -1.7758    3.7077   21.0072 C.ar    1  UNL1       -0.0003
     13 C          -0.3918    3.2188   20.6979 C.ar    1  UNL1       -0.0000
     14 C           0.5041    2.7523   21.8067 C.ar    1  UNL1       -0.0003
     15 C           0.0161    2.7747   23.2249 C.ar    1  UNL1       -0.0043
     16 C          -0.7420    2.5182   27.5151 C.ar    1  UNL1       -0.0217
     17 C          -0.8673    1.1043   28.0000 C.ar    1  UNL1       -0.0042
     18 C           0.0176    0.6095   29.1056 C.ar    1  UNL1        0.0028
     19 C           1.0276    1.5285   29.7261 C.ar    1  UNL1        0.0362
     20 C           1.1529    2.9424   29.2411 C.ar    1  UNL1        0.0028
     21 C           0.2681    3.4373   28.1356 C.ar    1  UNL1       -0.0042
     22 C           1.9124    1.0336   30.8316 C.ar    1  UNL1        0.1659
     23 C           2.2307    1.7664   32.1012 C.ar    1  UNL1        0.1391
     24 N           3.1493    0.9047   32.9159 N.ar    1  UNL1       -0.2104
     25 C           3.3988   -0.3606   32.1498 C.ar    1  UNL1        0.2052
     26 O           2.6344   -0.2809   30.8617 O.2     1  UNL1       -0.4384
     27 C           4.2613   -1.5046   32.5939 C.3     1  UNL1        0.0766
     28 C           5.5894   -2.2018   32.6062 C.3     1  UNL1        0.0097
     29 C           4.4271   -2.7890   33.3508 C.3     1  UNL1        0.0097
@<TRIPOS>BOND
     1     4     5    2
     2     5     6   am
     3     6     7    1
     4     1     5    1
     5     1     2    1
     6     2    10    1
     7    10    11   ar
     8    11    12   ar
     9    12    13   ar
    10    13    14   ar
    11    14    15   ar
    12     2     3    1
    13     3    16    1
    14    16    17   ar
    15    17    18   ar
    16    18    19   ar
    17    19    22    1
    18    22    23   ar
    19    23    24   ar
    20    24    25   ar
    21    25    27    1
    22    27    28    1
    23    28    29    1
    24    25    26   ar
    25    19    20   ar
    26    20    21   ar
    27     3     1    1
    28    21    16   ar
    29    15    10   ar
    30    26    22   ar
    31    29    27    1
    32     6     8    1
    33     7     9    1
@<TRIPOS>MOLECULE
*****
 29 33 0 0 0
SMALL
GASTEIGER

@<TRIPOS>ATOM
      1 C          -0.2531    1.2356   27.4548 C.3     1  UNL1        0.0872
      2 C          -0.9129    2.4173   26.8081 C.3     1  UNL1        0.0358
      3 C          -0.0130    1.5271   26.0032 C.3     1  UNL1        0.0358
      4 O          -1.1686   -0.0845   29.4968 O.2     1  UNL1       -0.2730
      5 C          -0.0109    0.3850   28.6664 C.2     1  UNL1        0.2445
      6 N           1.3889    0.0040   29.0476 N.am    1  UNL1       -0.1970
      7 O           1.6311   -0.8466   30.2591 O.3     1  UNL1       -0.2952
      8 H           2.1486    0.3121   28.5026 H       1  UNL1        0.1822
      9 H           0.7831   -1.0611   30.6784 H       1  UNL1        0.2414
     10 C          -1.8133    3.6135   26.8993 C.ar    1  UNL1       -0.0217
     11 C          -1.2524    4.9456   27.3003 C.ar    1  UNL1       -0.0043
     12 C          -2.1529    6.1417   27.3915 C.ar    1  UNL1       -0.0003
     13 C          -3.6143    6.0057   27.0819 C.ar    1  UNL1       -0.0000
     14 C          -4.1752    4.6736   26.6809 C.ar    1  UNL1       -0.0003
     15 C          -3.2747    3.4775   26.5897 C.ar    1  UNL1       -0.0043
     16 C           0.6453    1.1815   24.7004 C.ar    1  UNL1       -0.0217
     17 C           1.8991    0.3583   24.6888 C.ar    1  UNL1       -0.0042
     18 C           2.5573    0.0127   23.3859 C.ar    1  UNL1        0.0028
     19 C           1.9617    0.4903   22.0948 C.ar    1  UNL1        0.0362
     20 C           0.7078    1.3135   22.1064 C.ar    1  UNL1        0.0028
     21 C           0.0496    1.6591   23.4092 C.ar    1  UNL1       -0.0042
     22 C           2.6199    0.1447   20.7920 C.ar    1  UNL1        0.1659
     23 C           2.0909    0.4635   19.4251 C.ar    1  UNL1        0.1391
     24 N           3.0667   -0.0645   18.4156 N.ar    1  UNL1       -0.2104
     25 C           4.1988   -0.7097   19.1587 C.ar    1  UNL1        0.2052
     26 O           3.9227   -0.5803   20.6274 O.2     1  UNL1       -0.4384
     27 C           5.3967   -1.3685   18.5415 C.3     1  UNL1        0.0766
     28 C           6.7356   -1.2653   17.8729 C.3     1  UNL1        0.0097
     29 C           6.1329   -2.6125   18.1410 C.3     1  UNL1        0.0097
@<TRIPOS>BOND
     1     4     5    2
     2     5     6   am
     3     6     7    1
     4     1     5    1
     5     1     2    1
     6     2    10    1
     7    10    11   ar
     8    11    12   ar
     9    12    13   ar
    10    13    14   ar
    11    14    15   ar
    12     2     3    1
    13     3    16    1
    14    16    17   ar
    15    17    18   ar
    16    18    19   ar
    17    19    22    1
    18    22    23   ar
    19    23    24   ar
    20    24    25   ar
    21    25    27    1
    22    27    28    1
    23    28    29    1
    24    25    26   ar
    25    19    20   ar
    26    20    21   ar
    27     3     1    1
    28    21    16   ar
    29    15    10   ar
    30    26    22   ar
    31    29    27    1
    32     6     8    1
    33     7     9    1
@<TRIPOS>MOLECULE
*****
 29 33 0 0 0
SMALL
GASTEIGER

@<TRIPOS>ATOM
      1 C          -0.0835    1.9415   20.8173 C.3     1  UNL1        0.0872
      2 C           1.0466    0.9570   20.7581 C.3     1  UNL1        0.0358
      3 C           0.5356    1.4333   22.0855 C.3     1  UNL1        0.0358
      4 O          -0.6834    3.6326   18.9383 O.2     1  UNL1       -0.2730
      5 C          -1.0934    2.8034   20.1192 C.2     1  UNL1        0.2445
      6 N          -2.5132    2.8360   20.6020 N.am    1  UNL1       -0.1970
      7 O          -3.5231    3.6979   19.9039 O.3     1  UNL1       -0.2952
      8 H          -2.7822    2.2918   21.3770 H       1  UNL1        0.1822
      9 H          -3.0967    4.1640   19.1678 H       1  UNL1        0.2414
     10 C           1.9941    0.1135   19.9575 C.ar    1  UNL1       -0.0217
     11 C           2.4668   -1.2031   20.4989 C.ar    1  UNL1       -0.0043
     12 C           3.4143   -2.0465   19.6983 C.ar    1  UNL1       -0.0003
     13 C           3.8890   -1.5733   18.3564 C.ar    1  UNL1       -0.0000
     14 C           3.4163   -0.2568   17.8150 C.ar    1  UNL1       -0.0003
     15 C           2.4688    0.5866   18.6156 C.ar    1  UNL1       -0.0043
     16 C           0.5981    1.4149   23.5840 C.ar    1  UNL1       -0.0217
     17 C           1.7772    0.8002   24.2781 C.ar    1  UNL1       -0.0042
     18 C           1.8396    0.7818   25.7767 C.ar    1  UNL1        0.0028
     19 C           0.7229    1.3782   26.5812 C.ar    1  UNL1        0.0362
     20 C          -0.4563    1.9929   25.8872 C.ar    1  UNL1        0.0028
     21 C          -0.5187    2.0113   24.3886 C.ar    1  UNL1       -0.0042
     22 C           0.7853    1.3598   28.0798 C.ar    1  UNL1        0.1659
     23 C           0.9502    0.1424   28.9405 C.ar    1  UNL1        0.1391
     24 N           0.9606    0.5857   30.3734 N.ar    1  UNL1       -0.2104
     25 C           0.8022    2.0772   30.3984 C.ar    1  UNL1        0.2052
     26 O           0.6939    2.5555   28.9808 O.2     1  UNL1       -0.4384
     27 C           0.7596    2.9389   31.6254 C.3     1  UNL1        0.0766
     28 C           1.2861    3.2893   32.9856 C.3     1  UNL1        0.0097
     29 C           0.1595    4.0810   32.3906 C.3     1  UNL1        0.0097
@<TRIPOS>BOND
     1     4     5    2
     2     5     6   am
     3     6     7    1
     4     1     5    1
     5     1     2    1
     6     2    10    1
     7    10    11   ar
     8    11    12   ar
     9    12    13   ar
    10    13    14   ar
    11    14    15   ar
    12     2     3    1
    13     3    16    1
    14    16    17   ar
    15    17    18   ar
    16    18    19   ar
    17    19    22    1
    18    22    23   ar
    19    23    24   ar
    20    24    25   ar
    21    25    27    1
    22    27    28    1
    23    28    29    1
    24    25    26   ar
    25    19    20   ar
    26    20    21   ar
    27     3     1    1
    28    21    16   ar
    29    15    10   ar
    30    26    22   ar
    31    29    27    1
    32     6     8    1
    33     7     9    1
