@<TRIPOS>MOLECULE
*****
 29 33 0 0 0
SMALL
GASTEIGER

@<TRIPOS>ATOM
      1 C           1.7382    4.3128   34.6444 C.ar    1  UNL1        0.2014
      2 N           0.8135    4.9162   33.6292 N.ar    1  UNL1       -0.2136
      3 C          -0.1003    5.8682   34.3424 C.ar    1  UNL1        0.0999
      4 C          -1.2137    6.7468   33.8541 C.ar    1  UNL1        0.0207
      5 C          -1.9670    7.6103   34.8219 C.ar    1  UNL1        0.0016
      6 C          -1.6070    7.5953   36.2780 C.ar    1  UNL1        0.0016
      7 C          -0.4937    6.7167   36.7663 C.ar    1  UNL1        0.0188
      8 C           0.2597    5.8532   35.7985 C.ar    1  UNL1        0.0801
      9 N           1.3959    4.8919   35.9851 N.ar    1  UNL1       -0.2954
     10 C           4.9715    1.2952   33.8139 C.3     1  UNL1        0.1086
     11 C           5.3357    2.6873   34.2374 C.3     1  UNL1        0.0459
     12 C           4.2579    3.6931   34.5143 C.3     1  UNL1        0.0955
     13 N           2.8160    3.3069   34.3676 N.pl3   1  UNL1       -0.2794
     14 C           2.4518    1.9148   33.9440 C.3     1  UNL1        0.0955
     15 C           3.5296    0.9090   33.6671 C.3     1  UNL1        0.0459
     16 C           7.4809   -3.0586   32.1925 C.3     1  UNL1        0.0343
     17 C           7.2028   -1.7119   32.7918 C.ar    1  UNL1        0.0177
     18 C           8.2129   -0.8052   33.4302 C.ar    1  UNL1        0.1174
     19 N           7.5000    0.4316   33.8908 N.ar    1  UNL1       -0.1681
     20 N           6.0493    0.2893   33.5370 N.ar    1  UNL1       -0.2516
     21 C           5.8656   -1.0354   32.8578 C.ar    1  UNL1        0.0923
     22 C           2.0714    4.5668   37.2844 C.3     1  UNL1        0.1354
     23 C           1.8373    3.2379   37.9395 C.ar    1  UNL1        0.0006
     24 C           2.8153    2.1188   37.7363 C.ar    1  UNL1       -0.0001
     25 C           2.5813    0.7899   38.3914 C.ar    1  UNL1        0.0294
     26 C           1.3691    0.5800   39.2498 C.ar    1  UNL1        0.1401
     27 F           1.1351   -0.7489   39.9049 F       1  UNL1       -0.2042
     28 C           0.3911    1.6990   39.4530 C.ar    1  UNL1        0.0294
     29 C           0.6252    3.0280   38.7979 C.ar    1  UNL1       -0.0001
@<TRIPOS>BOND
     1    16    17    1
     2    17    18   ar
     3    18    19   ar
     4    19    20   ar
     5    20    10    1
     6    10    11    1
     7    11    12    1
     8    12    13    1
     9    13     1    1
    10     1     2   ar
    11     2     3   ar
    12     3     4   ar
    13     4     5   ar
    14     5     6   ar
    15     6     7   ar
    16     7     8   ar
    17     8     9   ar
    18     9    22    1
    19    22    23    1
    20    23    24   ar
    21    24    25   ar
    22    25    26   ar
    23    26    27    1
    24    26    28   ar
    25    28    29   ar
    26    13    14    1
    27    14    15    1
    28    20    21   ar
    29    21    17   ar
    30    15    10    1
    31     9     1   ar
    32    29    23   ar
    33     8     3   ar
@<TRIPOS>MOLECULE
*****
 29 33 0 0 0
SMALL
GASTEIGER

@<TRIPOS>ATOM
      1 C           2.6728    2.1976   18.9310 C.ar    1  UNL1        0.2014
      2 N           3.6418    3.2320   18.4400 N.ar    1  UNL1       -0.2136
      3 C           4.8162    2.5185   17.8384 C.ar    1  UNL1        0.0999
      4 C           6.0755    3.0217   17.1974 C.ar    1  UNL1        0.0207
      5 C           7.0916    2.0495   16.6757 C.ar    1  UNL1        0.0016
      6 C           6.8484    0.5742   16.7948 C.ar    1  UNL1        0.0016
      7 C           5.5891    0.0710   17.4358 C.ar    1  UNL1        0.0188
      8 C           4.5729    1.0432   17.9575 C.ar    1  UNL1        0.0801
      9 N           3.2483    0.8449   18.6328 N.ar    1  UNL1       -0.2954
     10 C          -1.2685    3.0100   20.9449 C.3     1  UNL1        0.1086
     11 C          -1.0904    3.3271   19.4897 C.3     1  UNL1        0.0459
     12 C           0.2234    3.0563   18.8184 C.3     1  UNL1        0.0955
     13 N           1.3590    2.4684   19.6023 N.pl3   1  UNL1       -0.2794
     14 C           1.1809    2.1512   21.0575 C.3     1  UNL1        0.0955
     15 C          -0.1329    2.4220   21.7288 C.3     1  UNL1        0.0459
     16 C          -4.8857    4.6366   24.4307 C.3     1  UNL1        0.0343
     17 C          -4.2450    4.0285   23.2184 C.ar    1  UNL1        0.0177
     18 C          -4.9631    3.3665   22.0800 C.ar    1  UNL1        0.1174
     19 N          -3.9355    2.9044   21.0897 N.ar    1  UNL1       -0.1681
     20 N          -2.5823    3.2808   21.6162 N.ar    1  UNL1       -0.2516
     21 C          -2.7736    3.9755   22.9318 C.ar    1  UNL1        0.0923
     22 C           2.6110   -0.4746   18.9536 C.3     1  UNL1        0.1354
     23 C           3.2124   -1.3629   20.0019 C.ar    1  UNL1        0.0006
     24 C           3.7406   -2.7156   19.6259 C.ar    1  UNL1       -0.0001
     25 C           4.3421   -3.6040   20.6742 C.ar    1  UNL1        0.0294
     26 C           4.4154   -3.1396   22.0987 C.ar    1  UNL1        0.1401
     27 F           5.0168   -4.0280   23.1470 F       1  UNL1       -0.2042
     28 C           3.8872   -1.7870   22.4747 C.ar    1  UNL1        0.0294
     29 C           3.2858   -0.8986   21.4264 C.ar    1  UNL1       -0.0001
@<TRIPOS>BOND
     1    16    17    1
     2    17    18   ar
     3    18    19   ar
     4    19    20   ar
     5    20    10    1
     6    10    11    1
     7    11    12    1
     8    12    13    1
     9    13     1    1
    10     1     2   ar
    11     2     3   ar
    12     3     4   ar
    13     4     5   ar
    14     5     6   ar
    15     6     7   ar
    16     7     8   ar
    17     8     9   ar
    18     9    22    1
    19    22    23    1
    20    23    24   ar
    21    24    25   ar
    22    25    26   ar
    23    26    27    1
    24    26    28   ar
    25    28    29   ar
    26    13    14    1
    27    14    15    1
    28    20    21   ar
    29    21    17   ar
    30    15    10    1
    31     9     1   ar
    32    29    23   ar
    33     8     3   ar
@<TRIPOS>MOLECULE
*****
 29 33 0 0 0
SMALL
GASTEIGER

@<TRIPOS>ATOM
      1 C           6.4515   -1.9842   21.0712 C.ar    1  UNL1        0.2014
      2 N           7.5636   -1.3668   20.2763 N.ar    1  UNL1       -0.2136
      3 C           6.9615   -0.7087   19.0703 C.ar    1  UNL1        0.0999
      4 C           7.5730    0.0552   17.9334 C.ar    1  UNL1        0.0207
      5 C           6.7002    0.6084   16.8462 C.ar    1  UNL1        0.0016
      6 C           5.2159    0.3978   16.8958 C.ar    1  UNL1        0.0016
      7 C           4.6044   -0.3661   18.0327 C.ar    1  UNL1        0.0188
      8 C           5.4772   -0.9193   19.1199 C.ar    1  UNL1        0.0801
      9 N           5.1620   -1.7076   20.3566 N.ar    1  UNL1       -0.2954
     10 C           6.9040   -4.2655   24.9236 C.3     1  UNL1        0.1086
     11 C           6.2305   -2.9253   24.9203 C.3     1  UNL1        0.0459
     12 C           6.0796   -2.1648   23.6362 C.3     1  UNL1        0.0955
     13 N           6.6023   -2.7446   22.3553 N.pl3   1  UNL1       -0.2794
     14 C           7.2759   -4.0848   22.3586 C.3     1  UNL1        0.0955
     15 C           7.4268   -4.8453   23.6428 C.3     1  UNL1        0.0459
     16 C           6.8451   -5.5239   30.0514 C.3     1  UNL1        0.0343
     17 C           7.0278   -5.6044   28.5647 C.ar    1  UNL1        0.0177
     18 C           7.5463   -6.7879   27.8029 C.ar    1  UNL1        0.1174
     19 N           7.5630   -6.4304   26.3462 N.ar    1  UNL1       -0.1681
     20 N           7.0549   -5.0259   26.2077 N.ar    1  UNL1       -0.2516
     21 C           6.7241   -4.5154   27.5788 C.ar    1  UNL1        0.0923
     22 C           3.7969   -2.1429   20.8006 C.3     1  UNL1        0.1354
     23 C           2.7419   -1.1183   21.0951 C.ar    1  UNL1        0.0006
     24 C           1.5835   -0.9437   20.1581 C.ar    1  UNL1       -0.0001
     25 C           0.5284    0.0809   20.4526 C.ar    1  UNL1        0.0294
     26 C           0.6315    0.9310   21.6842 C.ar    1  UNL1        0.1401
     27 F          -0.4237    1.9556   21.9787 F       1  UNL1       -0.2042
     28 C           1.7897    0.7564   22.6212 C.ar    1  UNL1        0.0294
     29 C           2.8449   -0.2682   22.3267 C.ar    1  UNL1       -0.0001
@<TRIPOS>BOND
     1    16    17    1
     2    17    18   ar
     3    18    19   ar
     4    19    20   ar
     5    20    10    1
     6    10    11    1
     7    11    12    1
     8    12    13    1
     9    13     1    1
    10     1     2   ar
    11     2     3   ar
    12     3     4   ar
    13     4     5   ar
    14     5     6   ar
    15     6     7   ar
    16     7     8   ar
    17     8     9   ar
    18     9    22    1
    19    22    23    1
    20    23    24   ar
    21    24    25   ar
    22    25    26   ar
    23    26    27    1
    24    26    28   ar
    25    28    29   ar
    26    13    14    1
    27    14    15    1
    28    20    21   ar
    29    21    17   ar
    30    15    10    1
    31     9     1   ar
    32    29    23   ar
    33     8     3   ar
@<TRIPOS>MOLECULE
*****
 29 33 0 0 0
SMALL
GASTEIGER

@<TRIPOS>ATOM
      1 C           7.6332   -1.2282   19.6490 C.ar    1  UNL1        0.2014
      2 N           8.6794   -0.1781   19.4194 N.ar    1  UNL1       -0.2136
      3 C           8.2300    0.6816   18.2752 C.ar    1  UNL1        0.0999
      4 C           8.8553    1.8698   17.6065 C.ar    1  UNL1        0.0207
      5 C           8.1567    2.5391   16.4603 C.ar    1  UNL1        0.0016
      6 C           6.8327    2.0203   15.9828 C.ar    1  UNL1        0.0016
      7 C           6.2074    0.8321   16.6516 C.ar    1  UNL1        0.0188
      8 C           6.9061    0.1628   17.7978 C.ar    1  UNL1        0.0801
      9 N           6.5373   -1.0175   18.6468 N.ar    1  UNL1       -0.2954
     10 C           7.7603   -4.4455   22.7927 C.3     1  UNL1        0.1086
     11 C           6.9346   -3.2130   23.0139 C.3     1  UNL1        0.0459
     12 C           6.8922   -2.1405   21.9660 C.3     1  UNL1        0.0955
     13 N           7.6756   -2.3006   20.6969 N.pl3   1  UNL1       -0.2794
     14 C           8.5013   -3.5332   20.4757 C.3     1  UNL1        0.0955
     15 C           8.5437   -4.6056   21.5236 C.3     1  UNL1        0.0459
     16 C           7.4684   -6.9455   27.4344 C.3     1  UNL1        0.0343
     17 C           7.6685   -6.6671   25.9741 C.ar    1  UNL1        0.0177
     18 C           8.0672   -7.6696   24.9320 C.ar    1  UNL1        0.1174
     19 N           8.1501   -6.9594   23.6134 N.ar    1  UNL1       -0.1681
     20 N           7.8027   -5.5180   23.8405 N.ar    1  UNL1       -0.2516
     21 C           7.5050   -5.3374   25.2996 C.ar    1  UNL1        0.0923
     22 C           5.2912   -1.8423   18.5165 C.3     1  UNL1        0.1354
     23 C           3.9630   -1.2605   18.9003 C.ar    1  UNL1        0.0006
     24 C           3.2331   -0.3631   17.9452 C.ar    1  UNL1       -0.0001
     25 C           1.9049    0.2188   18.3289 C.ar    1  UNL1        0.0294
     26 C           1.3066   -0.0967   19.6677 C.ar    1  UNL1        0.1401
     27 F          -0.0217    0.4852   20.0514 F       1  UNL1       -0.2042
     28 C           2.0364   -0.9940   20.6228 C.ar    1  UNL1        0.0294
     29 C           3.3646   -1.5759   20.2391 C.ar    1  UNL1       -0.0001
@<TRIPOS>BOND
     1    16    17    1
     2    17    18   ar
     3    18    19   ar
     4    19    20   ar
     5    20    10    1
     6    10    11    1
     7    11    12    1
     8    12    13    1
     9    13     1    1
    10     1     2   ar
    11     2     3   ar
    12     3     4   ar
    13     4     5   ar
    14     5     6   ar
    15     6     7   ar
    16     7     8   ar
    17     8     9   ar
    18     9    22    1
    19    22    23    1
    20    23    24   ar
    21    24    25   ar
    22    25    26   ar
    23    26    27    1
    24    26    28   ar
    25    28    29   ar
    26    13    14    1
    27    14    15    1
    28    20    21   ar
    29    21    17   ar
    30    15    10    1
    31     9     1   ar
    32    29    23   ar
    33     8     3   ar
@<TRIPOS>MOLECULE
*****
 29 33 0 0 0
SMALL
GASTEIGER

@<TRIPOS>ATOM
      1 C          -1.6431    2.8744   20.9067 C.ar    1  UNL1        0.2014
      2 N          -2.9874    2.9649   20.2476 N.ar    1  UNL1       -0.2136
      3 C          -3.8890    3.7642   21.1410 C.ar    1  UNL1        0.0999
      4 C          -5.3250    4.1768   21.0081 C.ar    1  UNL1        0.0207
      5 C          -5.9737    4.9929   22.0865 C.ar    1  UNL1        0.0016
      6 C          -5.1865    5.3964   23.2979 C.ar    1  UNL1        0.0016
      7 C          -3.7506    4.9839   23.4308 C.ar    1  UNL1        0.0188
      8 C          -3.1018    4.1678   22.3524 C.ar    1  UNL1        0.0801
      9 N          -1.7138    3.6179   22.2076 N.ar    1  UNL1       -0.2954
     10 C           1.9680    0.7464   19.2691 C.3     1  UNL1        0.1086
     11 C           1.4511    1.9790   18.5885 C.3     1  UNL1        0.0459
     12 C           0.2474    2.6884   19.1343 C.3     1  UNL1        0.0955
     13 N          -0.4394    2.1651   20.3608 N.pl3   1  UNL1       -0.2794
     14 C           0.0775    0.9324   21.0415 C.3     1  UNL1        0.0955
     15 C           1.2812    0.2231   20.4956 C.3     1  UNL1        0.0459
     16 C           5.5467   -2.9910   18.2178 C.3     1  UNL1        0.0343
     17 C           4.8166   -1.6809   18.2400 C.ar    1  UNL1        0.0177
     18 C           5.2313   -0.4283   17.5265 C.ar    1  UNL1        0.1174
     19 N           4.2146    0.6334   17.8252 N.ar    1  UNL1       -0.1681
     20 N           3.1717    0.0370   18.7232 N.ar    1  UNL1       -0.2516
     21 C           3.5437   -1.3933   18.9796 C.ar    1  UNL1        0.0923
     22 C          -0.5931    3.7825   23.1910 C.3     1  UNL1        0.1354
     23 C          -0.6233    3.0397   24.4938 C.ar    1  UNL1        0.0006
     24 C          -1.4272    3.5727   25.6426 C.ar    1  UNL1       -0.0001
     25 C          -1.4574    2.8300   26.9454 C.ar    1  UNL1        0.0294
     26 C          -0.6837    1.5541   27.0995 C.ar    1  UNL1        0.1401
     27 F          -0.7139    0.8114   28.4023 F       1  UNL1       -0.2042
     28 C           0.1202    1.0212   25.9507 C.ar    1  UNL1        0.0294
     29 C           0.1504    1.7639   24.6479 C.ar    1  UNL1       -0.0001
@<TRIPOS>BOND
     1    16    17    1
     2    17    18   ar
     3    18    19   ar
     4    19    20   ar
     5    20    10    1
     6    10    11    1
     7    11    12    1
     8    12    13    1
     9    13     1    1
    10     1     2   ar
    11     2     3   ar
    12     3     4   ar
    13     4     5   ar
    14     5     6   ar
    15     6     7   ar
    16     7     8   ar
    17     8     9   ar
    18     9    22    1
    19    22    23    1
    20    23    24   ar
    21    24    25   ar
    22    25    26   ar
    23    26    27    1
    24    26    28   ar
    25    28    29   ar
    26    13    14    1
    27    14    15    1
    28    20    21   ar
    29    21    17   ar
    30    15    10    1
    31     9     1   ar
    32    29    23   ar
    33     8     3   ar
@<TRIPOS>MOLECULE
*****
 29 33 0 0 0
SMALL
GASTEIGER

@<TRIPOS>ATOM
      1 C           4.8652    0.3657   35.3939 C.ar    1  UNL1        0.2014
      2 N           4.7416    0.1490   36.8730 N.ar    1  UNL1       -0.2136
      3 C           4.3108    1.4433   37.4968 C.ar    1  UNL1        0.0999
      4 C           4.0299    1.8275   38.9193 C.ar    1  UNL1        0.0207
      5 C           3.6064    3.2283   39.2482 C.ar    1  UNL1        0.0016
      6 C           3.4637    4.2450   38.1546 C.ar    1  UNL1        0.0016
      7 C           3.7445    3.8609   36.7321 C.ar    1  UNL1        0.0188
      8 C           4.1681    2.4600   36.4032 C.ar    1  UNL1        0.0801
      9 N           4.5108    1.7940   35.1036 N.ar    1  UNL1       -0.2954
     10 C           6.0853   -2.7260   32.3603 C.3     1  UNL1        0.1086
     11 C           7.0498   -1.6510   32.7652 C.3     1  UNL1        0.0459
     12 C           6.6432   -0.6204   33.7764 C.3     1  UNL1        0.0955
     13 N           5.2719   -0.6648   34.3827 N.pl3   1  UNL1       -0.2794
     14 C           4.3073   -1.7398   33.9778 C.3     1  UNL1        0.0955
     15 C           4.7140   -2.7704   32.9667 C.3     1  UNL1        0.0459
     16 C           7.2052   -5.0957   27.7765 C.3     1  UNL1        0.0343
     17 C           7.0067   -4.8458   29.2422 C.ar    1  UNL1        0.0177
     18 C           7.2288   -5.8392   30.3439 C.ar    1  UNL1        0.1174
     19 N           6.9107   -5.1660   31.6461 N.ar    1  UNL1       -0.1681
     20 N           6.4919   -3.7566   31.3492 N.ar    1  UNL1       -0.2516
     21 C           6.5513   -3.5587   29.8635 C.ar    1  UNL1        0.0923
     22 C           4.5007    2.4425   33.7510 C.3     1  UNL1        0.1354
     23 C           3.4171    2.1111   32.7683 C.ar    1  UNL1        0.0006
     24 C           3.7074    1.2042   31.6093 C.ar    1  UNL1       -0.0001
     25 C           2.6238    0.8726   30.6265 C.ar    1  UNL1        0.0294
     26 C           1.2498    1.4480   30.8028 C.ar    1  UNL1        0.1401
     27 F           0.1662    1.1165   29.8200 F       1  UNL1       -0.2042
     28 C           0.9595    2.3549   31.9617 C.ar    1  UNL1        0.0294
     29 C           2.0431    2.6864   32.9445 C.ar    1  UNL1       -0.0001
@<TRIPOS>BOND
     1    16    17    1
     2    17    18   ar
     3    18    19   ar
     4    19    20   ar
     5    20    10    1
     6    10    11    1
     7    11    12    1
     8    12    13    1
     9    13     1    1
    10     1     2   ar
    11     2     3   ar
    12     3     4   ar
    13     4     5   ar
    14     5     6   ar
    15     6     7   ar
    16     7     8   ar
    17     8     9   ar
    18     9    22    1
    19    22    23    1
    20    23    24   ar
    21    24    25   ar
    22    25    26   ar
    23    26    27    1
    24    26    28   ar
    25    28    29   ar
    26    13    14    1
    27    14    15    1
    28    20    21   ar
    29    21    17   ar
    30    15    10    1
    31     9     1   ar
    32    29    23   ar
    33     8     3   ar
@<TRIPOS>MOLECULE
*****
 29 33 0 0 0
SMALL
GASTEIGER

@<TRIPOS>ATOM
      1 C          -8.4229  -18.1981   21.7456 C.ar    1  UNL1        0.2014
      2 N          -9.4589  -19.2494   21.4777 N.ar    1  UNL1       -0.2136
      3 C         -10.7942  -18.6977   21.8809 C.ar    1  UNL1        0.0999
      4 C         -12.1747  -19.2832   21.8440 C.ar    1  UNL1        0.0207
      5 C         -13.3445  -18.4765   22.3242 C.ar    1  UNL1        0.0016
      6 C         -13.1339  -17.0843   22.8413 C.ar    1  UNL1        0.0016
      7 C         -11.7534  -16.4988   22.8782 C.ar    1  UNL1        0.0188
      8 C         -10.5836  -17.3055   22.3980 C.ar    1  UNL1        0.0801
      9 N          -9.1181  -16.9968   22.3144 N.ar    1  UNL1       -0.2954
     10 C          -4.0055  -18.5812   20.9778 C.3     1  UNL1        0.1086
     11 C          -4.9849  -18.8539   19.8749 C.3     1  UNL1        0.0459
     12 C          -6.4574  -18.7261   20.1308 C.3     1  UNL1        0.0955
     13 N          -6.9505  -18.3258   21.4897 N.pl3   1  UNL1       -0.2794
     14 C          -5.9711  -18.0532   22.5926 C.3     1  UNL1        0.0955
     15 C          -4.4986  -18.1809   22.3366 C.3     1  UNL1        0.0459
     16 C           1.0305  -17.3922   19.9264 C.3     1  UNL1        0.0343
     17 C          -0.2182  -18.1624   20.2386 C.ar    1  UNL1        0.0177
     18 C          -0.3160  -19.6485   20.4174 C.ar    1  UNL1        0.1174
     19 N          -1.7466  -19.9863   20.7161 N.ar    1  UNL1       -0.1681
     20 N          -2.5330  -18.7089   20.7218 N.ar    1  UNL1       -0.2516
     21 C          -1.5884  -17.5818   20.4267 C.ar    1  UNL1        0.0923
     22 C          -8.4628  -15.7122   22.7271 C.3     1  UNL1        0.1354
     23 C          -7.9441  -15.5501   24.1252 C.ar    1  UNL1        0.0006
     24 C          -8.8821  -15.6602   25.2906 C.ar    1  UNL1       -0.0001
     25 C          -8.3635  -15.4981   26.6887 C.ar    1  UNL1        0.0294
     26 C          -6.9069  -15.2259   26.9215 C.ar    1  UNL1        0.1401
     27 F          -6.3883  -15.0639   28.3196 F       1  UNL1       -0.2042
     28 C          -5.9689  -15.1159   25.7561 C.ar    1  UNL1        0.0294
     29 C          -6.4875  -15.2779   24.3580 C.ar    1  UNL1       -0.0001
@<TRIPOS>BOND
     1    16    17    1
     2    17    18   ar
     3    18    19   ar
     4    19    20   ar
     5    20    10    1
     6    10    11    1
     7    11    12    1
     8    12    13    1
     9    13     1    1
    10     1     2   ar
    11     2     3   ar
    12     3     4   ar
    13     4     5   ar
    14     5     6   ar
    15     6     7   ar
    16     7     8   ar
    17     8     9   ar
    18     9    22    1
    19    22    23    1
    20    23    24   ar
    21    24    25   ar
    22    25    26   ar
    23    26    27    1
    24    26    28   ar
    25    28    29   ar
    26    13    14    1
    27    14    15    1
    28    20    21   ar
    29    21    17   ar
    30    15    10    1
    31     9     1   ar
    32    29    23   ar
    33     8     3   ar
@<TRIPOS>MOLECULE
*****
 29 33 0 0 0
SMALL
GASTEIGER

@<TRIPOS>ATOM
      1 C           6.3790   -3.0279   30.6833 C.ar    1  UNL1        0.2014
      2 N           6.7559   -4.4771   30.5948 N.ar    1  UNL1       -0.2136
      3 C           6.8644   -4.8400   29.1434 C.ar    1  UNL1        0.0999
      4 C           7.2053   -6.1275   28.4535 C.ar    1  UNL1        0.0207
      5 C           7.2364   -6.1901   26.9551 C.ar    1  UNL1        0.0016
      6 C           6.9267   -4.9652   26.1467 C.ar    1  UNL1        0.0016
      7 C           6.5858   -3.6777   26.8366 C.ar    1  UNL1        0.0188
      8 C           6.5546   -3.6151   28.3349 C.ar    1  UNL1        0.0801
      9 N           6.2547   -2.4952   29.2867 N.ar    1  UNL1       -0.2954
     10 C           5.7347   -0.6893   34.4736 C.3     1  UNL1        0.1086
     11 C           7.0070   -0.5230   33.6968 C.3     1  UNL1        0.0459
     12 C           7.2218   -1.3025   32.4334 C.3     1  UNL1        0.0955
     13 N           6.1642   -2.2484   31.9467 N.pl3   1  UNL1       -0.2794
     14 C           4.8919   -2.4147   32.7235 C.3     1  UNL1        0.0955
     15 C           4.6771   -1.6352   33.9869 C.3     1  UNL1        0.0459
     16 C           3.5156    1.2920   38.8360 C.3     1  UNL1        0.0343
     17 C           4.4999    1.0010   37.7422 C.ar    1  UNL1        0.0177
     18 C           5.8788    1.5787   37.6201 C.ar    1  UNL1        0.1174
     19 N           6.5091    1.0158   36.3808 N.ar    1  UNL1       -0.1681
     20 N           5.5199    0.0902   35.7370 N.ar    1  UNL1       -0.2516
     21 C           4.2781    0.0811   36.5783 C.ar    1  UNL1        0.0923
     22 C           5.8937   -1.0893   28.9082 C.3     1  UNL1        0.1354
     23 C           4.5177   -0.5653   29.1944 C.ar    1  UNL1        0.0006
     24 C           4.2874    0.3325   30.3739 C.ar    1  UNL1       -0.0001
     25 C           2.9114    0.8566   30.6603 C.ar    1  UNL1        0.0294
     26 C           1.7657    0.4829   29.7670 C.ar    1  UNL1        0.1401
     27 F           0.3897    1.0070   30.0534 F       1  UNL1       -0.2042
     28 C           1.9960   -0.4147   28.5876 C.ar    1  UNL1        0.0294
     29 C           3.3720   -0.9388   28.3013 C.ar    1  UNL1       -0.0001
@<TRIPOS>BOND
     1    16    17    1
     2    17    18   ar
     3    18    19   ar
     4    19    20   ar
     5    20    10    1
     6    10    11    1
     7    11    12    1
     8    12    13    1
     9    13     1    1
    10     1     2   ar
    11     2     3   ar
    12     3     4   ar
    13     4     5   ar
    14     5     6   ar
    15     6     7   ar
    16     7     8   ar
    17     8     9   ar
    18     9    22    1
    19    22    23    1
    20    23    24   ar
    21    24    25   ar
    22    25    26   ar
    23    26    27    1
    24    26    28   ar
    25    28    29   ar
    26    13    14    1
    27    14    15    1
    28    20    21   ar
    29    21    17   ar
    30    15    10    1
    31     9     1   ar
    32    29    23   ar
    33     8     3   ar
@<TRIPOS>MOLECULE
*****
 29 33 0 0 0
SMALL
GASTEIGER

@<TRIPOS>ATOM
      1 C          -6.1175  -18.2441   22.3928 C.ar    1  UNL1        0.2014
      2 N          -5.3580  -19.3847   21.7828 N.ar    1  UNL1       -0.2136
      3 C          -3.9238  -18.9667   21.6469 C.ar    1  UNL1        0.0999
      4 C          -2.7170  -19.6792   21.1123 C.ar    1  UNL1        0.0207
      5 C          -1.3834  -18.9927   21.1035 C.ar    1  UNL1        0.0016
      6 C          -1.2566  -17.5936   21.6295 C.ar    1  UNL1        0.0016
      7 C          -2.4634  -16.8811   22.1641 C.ar    1  UNL1        0.0188
      8 C          -3.7970  -17.5677   22.1729 C.ar    1  UNL1        0.0801
      9 N          -5.1528  -17.1211   22.6338 N.ar    1  UNL1       -0.2954
     10 C         -10.5178  -18.1991   23.3340 C.3     1  UNL1        0.1086
     11 C          -9.9753  -17.3248   22.2426 C.3     1  UNL1        0.0459
     12 C          -8.5085  -17.3398   21.9289 C.3     1  UNL1        0.0955
     13 N          -7.5843  -18.2291   22.7065 N.pl3   1  UNL1       -0.2794
     14 C          -8.1268  -19.1035   23.7979 C.3     1  UNL1        0.0955
     15 C          -9.5935  -19.0885   24.1117 C.3     1  UNL1        0.0459
     16 C         -15.1050  -18.6060   25.9171 C.3     1  UNL1        0.0343
     17 C         -14.0931  -18.3711   24.8351 C.ar    1  UNL1        0.0177
     18 C         -14.3902  -17.9510   23.4261 C.ar    1  UNL1        0.1174
     19 N         -13.0870  -17.8354   22.6924 N.ar    1  UNL1       -0.1681
     20 N         -11.9845  -18.1841   23.6478 N.ar    1  UNL1       -0.2516
     21 C         -12.6063  -18.5152   24.9721 C.ar    1  UNL1        0.0923
     22 C          -5.4854  -15.7859   23.2310 C.3     1  UNL1        0.1354
     23 C          -6.3165  -15.7077   24.4772 C.ar    1  UNL1        0.0006
     24 C          -5.6694  -15.8650   25.8213 C.ar    1  UNL1       -0.0001
     25 C          -6.5004  -15.7868   27.0676 C.ar    1  UNL1        0.0294
     26 C          -7.9786  -15.5512   26.9698 C.ar    1  UNL1        0.1401
     27 F          -8.8096  -15.4729   28.2161 F       1  UNL1       -0.2042
     28 C          -8.6256  -15.3938   25.6258 C.ar    1  UNL1        0.0294
     29 C          -7.7946  -15.4721   24.3795 C.ar    1  UNL1       -0.0001
@<TRIPOS>BOND
     1    16    17    1
     2    17    18   ar
     3    18    19   ar
     4    19    20   ar
     5    20    10    1
     6    10    11    1
     7    11    12    1
     8    12    13    1
     9    13     1    1
    10     1     2   ar
    11     2     3   ar
    12     3     4   ar
    13     4     5   ar
    14     5     6   ar
    15     6     7   ar
    16     7     8   ar
    17     8     9   ar
    18     9    22    1
    19    22    23    1
    20    23    24   ar
    21    24    25   ar
    22    25    26   ar
    23    26    27    1
    24    26    28   ar
    25    28    29   ar
    26    13    14    1
    27    14    15    1
    28    20    21   ar
    29    21    17   ar
    30    15    10    1
    31     9     1   ar
    32    29    23   ar
    33     8     3   ar
