@<TRIPOS>MOLECULE
*****
 30 34 0 0 0
SMALL
GASTEIGER

@<TRIPOS>ATOM
      1 N         -10.7130  -19.0437   22.0285 N.3     1  UNL1       -0.2725
      2 C         -10.2695  -19.0033   20.5962 C.3     1  UNL1        0.0738
      3 C          -8.8512  -19.3375   20.2404 C.3     1  UNL1        0.0376
      4 C          -7.8762  -19.7122   21.3170 C.3     1  UNL1        0.0841
      5 C          -8.3197  -19.7526   22.7493 C.3     1  UNL1        0.0376
      6 C          -9.7380  -19.4183   23.1051 C.3     1  UNL1        0.0738
      7 N          -6.4579  -20.0464   20.9612 N.am    1  UNL1       -0.2423
      8 C          -6.0184  -21.0804   19.9673 C.2     1  UNL1        0.3310
      9 O          -6.9201  -21.9616   19.1547 O.2     1  UNL1       -0.2501
     10 N          -4.5189  -21.0784   19.9287 N.am    1  UNL1       -0.1647
     11 C          -4.0317  -20.0432   20.8987 C.2     1  UNL1        0.0715
     12 C          -2.6516  -19.5989   21.2834 C.3     1  UNL1        0.0824
     13 C          -2.4699  -18.5168   22.3062 C.2     1  UNL1        0.0412
     14 CL         -1.0898  -18.0725   22.6909 Cl      1  UNL1       -0.0865
     15 C          -3.6682  -17.8791   22.9443 C.2     1  UNL1        0.0087
     16 C          -5.0483  -18.3234   22.5597 C.2     1  UNL1        0.0165
     17 C          -5.2300  -19.4054   21.5369 C.2     1  UNL1        0.0669
     18 C         -12.1313  -18.7094   22.3843 C.3     1  UNL1        0.0739
     19 C         -12.6177  -17.2945   22.2781 C.3     1  UNL1        0.0393
     20 C         -11.8756  -16.1921   22.9737 C.3     1  UNL1        0.1013
     21 O         -10.6859  -15.6282   19.9877 O.2     1  UNL1       -0.2501
     22 C          -9.8930  -15.6639   21.2604 C.2     1  UNL1        0.3310
     23 N          -8.4139  -15.4467   21.3842 N.am    1  UNL1       -0.1647
     24 C          -8.0467  -15.5716   22.8332 C.2     1  UNL1        0.0706
     25 C          -6.7339  -15.4553   23.5495 C.3     1  UNL1        0.0705
     26 C          -6.6732  -15.6334   25.0376 C.2     1  UNL1       -0.0199
     27 C          -7.9253  -15.9279   25.8094 C.2     1  UNL1       -0.0029
     28 C          -9.2380  -16.0442   25.0931 C.2     1  UNL1        0.0156
     29 C          -9.2987  -15.8660   23.6050 C.2     1  UNL1        0.0669
     30 N         -10.4398  -15.9231   22.6330 N.am    1  UNL1       -0.2407
@<TRIPOS>BOND
     1    21    22    2
     2    22    23    1
     3    23    24    2
     4    24    25    1
     5    25    26    1
     6    26    27    2
     7    27    28    1
     8    28    29    2
     9    29    30    1
    10    30    20    1
    11    20    19    1
    12    19    18    1
    13    18     1    1
    14     1     2    1
    15     2     3    1
    16     3     4    1
    17     4     7    1
    18     7     8   am
    19     8     9    2
    20     8    10    1
    21    10    11    2
    22    11    12    1
    23    12    13    1
    24    13    14    1
    25    13    15    2
    26    15    16    1
    27    16    17    2
    28     4     5    1
    29     5     6    1
    30    30    22   am
    31     6     1    1
    32    29    24    1
    33    17     7    1
    34    17    11    1
@<TRIPOS>MOLECULE
*****
 30 34 0 0 0
SMALL
GASTEIGER

@<TRIPOS>ATOM
      1 N          -6.9173  -19.2099   20.1917 N.3     1  UNL1       -0.2725
      2 C          -8.0847  -19.6578   19.3632 C.3     1  UNL1        0.0738
      3 C          -9.4762  -19.2469   19.7437 C.3     1  UNL1        0.0376
      4 C          -9.7004  -18.3880   20.9529 C.3     1  UNL1        0.0841
      5 C          -8.5330  -17.9400   21.7814 C.3     1  UNL1        0.0376
      6 C          -7.1415  -18.3509   21.4009 C.3     1  UNL1        0.0738
      7 N         -11.0919  -17.9771   21.3334 N.am    1  UNL1       -0.2423
      8 C         -12.0597  -17.2306   20.4638 C.2     1  UNL1        0.3310
      9 O         -11.8059  -16.7640   19.0610 O.2     1  UNL1       -0.2501
     10 N         -13.3258  -17.0327   21.2433 N.am    1  UNL1       -0.1647
     11 C         -13.1406  -17.6568   22.5946 C.2     1  UNL1        0.0715
     12 C         -14.0507  -17.7691   23.7817 C.3     1  UNL1        0.0824
     13 C         -13.5802  -18.4650   25.0244 C.2     1  UNL1        0.0412
     14 CL        -14.4903  -18.5773   26.2114 Cl      1  UNL1       -0.0865
     15 C         -12.1995  -19.0487   25.0800 C.2     1  UNL1        0.0087
     16 C         -11.2894  -18.9364   23.8930 C.2     1  UNL1        0.0165
     17 C         -11.7599  -18.2405   22.6503 C.2     1  UNL1        0.0669
     18 C          -5.5258  -19.6208   19.8112 C.3     1  UNL1        0.0739
     19 C          -4.6908  -20.4181   20.7689 C.3     1  UNL1        0.0393
     20 C          -4.2174  -19.7959   22.0489 C.3     1  UNL1        0.1013
     21 O          -5.0524  -17.1399   23.7513 O.2     1  UNL1       -0.2501
     22 C          -3.8934  -17.2528   22.8058 C.2     1  UNL1        0.3310
     23 N          -2.9146  -16.1648   22.4768 N.am    1  UNL1       -0.1647
     24 C          -1.9260  -16.7132   21.4910 C.2     1  UNL1        0.0706
     25 C          -0.7384  -16.0975   20.8123 C.3     1  UNL1        0.0705
     26 C           0.0814  -16.9088   19.8534 C.2     1  UNL1       -0.0199
     27 C          -0.2863  -18.3358   19.5731 C.2     1  UNL1       -0.0029
     28 C          -1.4738  -18.9514   20.2518 C.2     1  UNL1        0.0156
     29 C          -2.2937  -18.1401   21.2107 C.2     1  UNL1        0.0669
     30 N          -3.5096  -18.4737   22.0233 N.am    1  UNL1       -0.2407
@<TRIPOS>BOND
     1    21    22    2
     2    22    23    1
     3    23    24    2
     4    24    25    1
     5    25    26    1
     6    26    27    2
     7    27    28    1
     8    28    29    2
     9    29    30    1
    10    30    20    1
    11    20    19    1
    12    19    18    1
    13    18     1    1
    14     1     2    1
    15     2     3    1
    16     3     4    1
    17     4     7    1
    18     7     8   am
    19     8     9    2
    20     8    10    1
    21    10    11    2
    22    11    12    1
    23    12    13    1
    24    13    14    1
    25    13    15    2
    26    15    16    1
    27    16    17    2
    28     4     5    1
    29     5     6    1
    30    30    22   am
    31     6     1    1
    32    29    24    1
    33    17     7    1
    34    17    11    1
@<TRIPOS>MOLECULE
*****
 30 34 0 0 0
SMALL
GASTEIGER

@<TRIPOS>ATOM
      1 N          -6.4878  -20.3182   20.5982 N.3     1  UNL1       -0.2725
      2 C          -6.9342  -20.0395   22.0028 C.3     1  UNL1        0.0738
      3 C          -8.2645  -19.3929   22.2527 C.3     1  UNL1        0.0376
      4 C          -9.1483  -19.0251   21.0979 C.3     1  UNL1        0.0841
      5 C          -8.7019  -19.3039   19.6933 C.3     1  UNL1        0.0376
      6 C          -7.3716  -19.9504   19.4434 C.3     1  UNL1        0.0738
      7 N         -10.4786  -18.3786   21.3477 N.am    1  UNL1       -0.2423
      8 C         -11.2067  -17.4667   20.4051 C.2     1  UNL1        0.3310
      9 O         -10.7323  -17.0414   19.0472 O.2     1  UNL1       -0.2501
     10 N         -12.4923  -17.0550   21.0589 N.am    1  UNL1       -0.1647
     11 C         -12.5589  -17.7123   22.4056 C.2     1  UNL1        0.0715
     12 C         -13.5920  -17.6717   23.4923 C.3     1  UNL1        0.0824
     13 C         -13.3804  -18.4492   24.7576 C.2     1  UNL1        0.0412
     14 CL        -14.4135  -18.4085   25.8444 Cl      1  UNL1       -0.0865
     15 C         -12.1359  -19.2671   24.9361 C.2     1  UNL1        0.0087
     16 C         -11.1028  -19.3078   23.8493 C.2     1  UNL1        0.0165
     17 C         -11.3143  -18.5304   22.5841 C.2     1  UNL1        0.0669
     18 C          -5.1575  -20.9647   20.3484 C.3     1  UNL1        0.0739
     19 C          -3.9696  -20.1220   19.9899 C.3     1  UNL1        0.0393
     20 C          -3.0102  -19.6854   21.0570 C.3     1  UNL1        0.1013
     21 O          -0.6711  -17.6681   20.0040 O.2     1  UNL1       -0.2501
     22 C          -1.8053  -17.3036   20.9155 C.2     1  UNL1        0.3310
     23 N          -2.0634  -15.9478   21.5031 N.am    1  UNL1       -0.1647
     24 C          -3.2981  -16.0372   22.3502 C.2     1  UNL1        0.0706
     25 C          -4.0278  -15.0160   23.1716 C.3     1  UNL1        0.0705
     26 C          -5.2624  -15.4058   23.9290 C.2     1  UNL1       -0.0199
     27 C          -5.7673  -16.8168   23.8650 C.2     1  UNL1       -0.0029
     28 C          -5.0376  -17.8380   23.0436 C.2     1  UNL1        0.0156
     29 C          -3.8030  -17.4482   22.2862 C.2     1  UNL1        0.0669
     30 N          -2.8804  -18.2308   21.3995 N.am    1  UNL1       -0.2407
@<TRIPOS>BOND
     1    21    22    2
     2    22    23    1
     3    23    24    2
     4    24    25    1
     5    25    26    1
     6    26    27    2
     7    27    28    1
     8    28    29    2
     9    29    30    1
    10    30    20    1
    11    20    19    1
    12    19    18    1
    13    18     1    1
    14     1     2    1
    15     2     3    1
    16     3     4    1
    17     4     7    1
    18     7     8   am
    19     8     9    2
    20     8    10    1
    21    10    11    2
    22    11    12    1
    23    12    13    1
    24    13    14    1
    25    13    15    2
    26    15    16    1
    27    16    17    2
    28     4     5    1
    29     5     6    1
    30    30    22   am
    31     6     1    1
    32    29    24    1
    33    17     7    1
    34    17    11    1
@<TRIPOS>MOLECULE
*****
 30 34 0 0 0
SMALL
GASTEIGER

@<TRIPOS>ATOM
      1 N          -5.6835  -16.8050   23.1137 N.3     1  UNL1       -0.2725
      2 C          -6.3681  -17.9192   22.3791 C.3     1  UNL1        0.0738
      3 C          -7.8407  -17.8428   22.1040 C.3     1  UNL1        0.0376
      4 C          -8.6287  -16.6521   22.5637 C.3     1  UNL1        0.0841
      5 C          -7.9441  -15.5379   23.2983 C.3     1  UNL1        0.0376
      6 C          -6.4715  -15.6143   23.5734 C.3     1  UNL1        0.0738
      7 N         -10.1013  -16.5757   22.2886 N.am    1  UNL1       -0.2423
      8 C         -10.7500  -15.8292   21.1608 C.2     1  UNL1        0.3310
      9 O         -10.0400  -15.0280   20.1101 O.2     1  UNL1       -0.2501
     10 N         -12.2333  -16.0245   21.2682 N.am    1  UNL1       -0.1647
     11 C         -12.5014  -16.8917   22.4624 C.2     1  UNL1        0.0715
     12 C         -13.7751  -17.4152   23.0571 C.3     1  UNL1        0.0824
     13 C         -13.7311  -18.2794   24.2824 C.2     1  UNL1        0.0412
     14 CL        -15.0048  -18.8029   24.8771 Cl      1  UNL1       -0.0865
     15 C         -12.4134  -18.6200   24.9130 C.2     1  UNL1        0.0087
     16 C         -11.1397  -18.0965   24.3183 C.2     1  UNL1        0.0165
     17 C         -11.1837  -17.2324   23.0931 C.2     1  UNL1        0.0669
     18 C          -4.2109  -16.8814   23.3888 C.3     1  UNL1        0.0739
     19 C          -3.6017  -18.1686   23.8598 C.3     1  UNL1        0.0393
     20 C          -3.7242  -19.4070   23.0225 C.3     1  UNL1        0.1013
     21 O          -5.6563  -20.7662   20.7710 O.2     1  UNL1       -0.2501
     22 C          -4.4244  -19.9539   20.5015 C.2     1  UNL1        0.3310
     23 N          -3.8643  -19.6238   19.1497 N.am    1  UNL1       -0.1647
     24 C          -2.6301  -18.7950   19.3491 C.2     1  UNL1        0.0706
     25 C          -1.6646  -18.1826   18.3781 C.3     1  UNL1        0.0705
     26 C          -0.4965  -17.3881   18.8822 C.2     1  UNL1       -0.0199
     27 C          -0.2937  -17.2061   20.3573 C.2     1  UNL1       -0.0029
     28 C          -1.2592  -17.8185   21.3282 C.2     1  UNL1        0.0156
     29 C          -2.4274  -18.6129   20.8241 C.2     1  UNL1        0.0669
     30 N          -3.5363  -19.3292   21.5363 N.am    1  UNL1       -0.2407
@<TRIPOS>BOND
     1    21    22    2
     2    22    23    1
     3    23    24    2
     4    24    25    1
     5    25    26    1
     6    26    27    2
     7    27    28    1
     8    28    29    2
     9    29    30    1
    10    30    20    1
    11    20    19    1
    12    19    18    1
    13    18     1    1
    14     1     2    1
    15     2     3    1
    16     3     4    1
    17     4     7    1
    18     7     8   am
    19     8     9    2
    20     8    10    1
    21    10    11    2
    22    11    12    1
    23    12    13    1
    24    13    14    1
    25    13    15    2
    26    15    16    1
    27    16    17    2
    28     4     5    1
    29     5     6    1
    30    30    22   am
    31     6     1    1
    32    29    24    1
    33    17     7    1
    34    17    11    1
@<TRIPOS>MOLECULE
*****
 30 34 0 0 0
SMALL
GASTEIGER

@<TRIPOS>ATOM
      1 N         -13.5786   -2.2106   19.0077 N.3     1  UNL1       -0.2725
      2 C         -14.6946   -1.9589   18.0376 C.3     1  UNL1        0.0738
      3 C         -16.0208   -2.6330   18.2287 C.3     1  UNL1        0.0376
      4 C         -16.2312   -3.5589   19.3899 C.3     1  UNL1        0.0841
      5 C         -15.1152   -3.8107   20.3600 C.3     1  UNL1        0.0376
      6 C         -13.7889   -3.1365   20.1690 C.3     1  UNL1        0.0738
      7 N         -17.5574   -4.2331   19.5810 N.am    1  UNL1       -0.2423
      8 C         -18.8214   -3.5754   20.0500 C.2     1  UNL1        0.3310
      9 O         -18.9809   -2.1281   20.4103 O.2     1  UNL1       -0.2501
     10 N         -19.8977   -4.6191   20.0955 N.am    1  UNL1       -0.1647
     11 C         -19.2990   -5.9219   19.6546 C.2     1  UNL1        0.0715
     12 C         -19.8840   -7.2946   19.5016 C.3     1  UNL1        0.0824
     13 C         -19.0226   -8.4287   19.0307 C.2     1  UNL1        0.0412
     14 CL        -19.6076   -9.8014   18.8776 Cl      1  UNL1       -0.0865
     15 C         -17.5763   -8.1901   18.7127 C.2     1  UNL1        0.0087
     16 C         -16.9913   -6.8174   18.8657 C.2     1  UNL1        0.0165
     17 C         -17.8526   -5.6833   19.3367 C.2     1  UNL1        0.0669
     18 C         -12.2523   -1.5365   18.8167 C.3     1  UNL1        0.0739
     19 C         -11.0010   -2.3576   18.7170 C.3     1  UNL1        0.0393
     20 C         -10.8620   -3.3842   17.6323 C.3     1  UNL1        0.1013
     21 O          -9.2089   -5.4062   19.5890 O.2     1  UNL1       -0.2501
     22 C         -10.4433   -5.7479   18.8081 C.2     1  UNL1        0.3310
     23 N         -11.1345   -7.0790   18.7896 N.am    1  UNL1       -0.1647
     24 C         -12.3216   -6.9722   17.8788 C.2     1  UNL1        0.0706
     25 C         -13.3693   -7.9667   17.4748 C.3     1  UNL1        0.0705
     26 C         -14.4594   -7.5640   16.5264 C.2     1  UNL1       -0.0199
     27 C         -14.5018   -6.1669   15.9820 C.2     1  UNL1       -0.0029
     28 C         -13.4540   -5.1725   16.3860 C.2     1  UNL1        0.0156
     29 C         -12.3639   -5.5752   17.3344 C.2     1  UNL1        0.0669
     30 N         -11.2031   -4.8185   17.9088 N.am    1  UNL1       -0.2407
@<TRIPOS>BOND
     1    21    22    2
     2    22    23    1
     3    23    24    2
     4    24    25    1
     5    25    26    1
     6    26    27    2
     7    27    28    1
     8    28    29    2
     9    29    30    1
    10    30    20    1
    11    20    19    1
    12    19    18    1
    13    18     1    1
    14     1     2    1
    15     2     3    1
    16     3     4    1
    17     4     7    1
    18     7     8   am
    19     8     9    2
    20     8    10    1
    21    10    11    2
    22    11    12    1
    23    12    13    1
    24    13    14    1
    25    13    15    2
    26    15    16    1
    27    16    17    2
    28     4     5    1
    29     5     6    1
    30    30    22   am
    31     6     1    1
    32    29    24    1
    33    17     7    1
    34    17    11    1
@<TRIPOS>MOLECULE
*****
 30 34 0 0 0
SMALL
GASTEIGER

@<TRIPOS>ATOM
      1 N          -5.8198  -16.2924   23.4630 N.3     1  UNL1       -0.2725
      2 C          -6.7319  -15.1632   23.8407 C.3     1  UNL1        0.0738
      3 C          -8.1797  -15.2059   23.4508 C.3     1  UNL1        0.0376
      4 C          -8.7155  -16.3780   22.6832 C.3     1  UNL1        0.0841
      5 C          -7.8033  -17.5073   22.3056 C.3     1  UNL1        0.0376
      6 C          -6.3555  -17.4646   22.6954 C.3     1  UNL1        0.0738
      7 N         -10.1633  -16.4208   22.2933 N.am    1  UNL1       -0.2423
      8 C         -10.7681  -15.7840   21.0773 C.2     1  UNL1        0.3310
      9 O         -10.0313  -14.9927   20.0377 O.2     1  UNL1       -0.2501
     10 N         -12.2391  -16.0775   21.0834 N.am    1  UNL1       -0.1647
     11 C         -12.5434  -16.8957   22.3033 C.2     1  UNL1        0.0715
     12 C         -13.8229  -17.4750   22.8297 C.3     1  UNL1        0.0824
     13 C         -13.8195  -18.2664   24.1040 C.2     1  UNL1        0.0412
     14 CL        -15.0991  -18.8457   24.6305 Cl      1  UNL1       -0.0865
     15 C         -12.5366  -18.4786   24.8517 C.2     1  UNL1        0.0087
     16 C         -11.2571  -17.8993   24.3252 C.2     1  UNL1        0.0165
     17 C         -11.2604  -17.1079   23.0510 C.2     1  UNL1        0.0669
     18 C          -4.3720  -16.2497   23.8529 C.3     1  UNL1        0.0739
     19 C          -3.6024  -17.5262   24.0206 C.3     1  UNL1        0.0393
     20 C          -2.4653  -17.8436   23.0953 C.3     1  UNL1        0.1013
     21 O          -0.7459  -17.2844   20.3786 O.2     1  UNL1       -0.2501
     22 C          -1.9503  -18.1712   20.4929 C.2     1  UNL1        0.3310
     23 N          -2.5758  -18.9568   19.3786 N.am    1  UNL1       -0.1647
     24 C          -3.7527  -19.6993   19.9387 C.2     1  UNL1        0.0706
     25 C          -4.7447  -20.6306   19.3074 C.3     1  UNL1        0.0705
     26 C          -5.8386  -21.2352   20.1367 C.2     1  UNL1       -0.0199
     27 C          -5.9405  -20.9086   21.5971 C.2     1  UNL1       -0.0029
     28 C          -4.9485  -19.9773   22.2284 C.2     1  UNL1        0.0156
     29 C          -3.8545  -19.3726   21.3991 C.2     1  UNL1        0.0669
     30 N          -2.7406  -18.4283   21.7416 N.am    1  UNL1       -0.2407
@<TRIPOS>BOND
     1    21    22    2
     2    22    23    1
     3    23    24    2
     4    24    25    1
     5    25    26    1
     6    26    27    2
     7    27    28    1
     8    28    29    2
     9    29    30    1
    10    30    20    1
    11    20    19    1
    12    19    18    1
    13    18     1    1
    14     1     2    1
    15     2     3    1
    16     3     4    1
    17     4     7    1
    18     7     8   am
    19     8     9    2
    20     8    10    1
    21    10    11    2
    22    11    12    1
    23    12    13    1
    24    13    14    1
    25    13    15    2
    26    15    16    1
    27    16    17    2
    28     4     5    1
    29     5     6    1
    30    30    22   am
    31     6     1    1
    32    29    24    1
    33    17     7    1
    34    17    11    1
@<TRIPOS>MOLECULE
*****
 30 34 0 0 0
SMALL
GASTEIGER

@<TRIPOS>ATOM
      1 N           0.3881    1.6029   19.8474 N.3     1  UNL1       -0.2725
      2 C           1.5761    2.0905   19.0722 C.3     1  UNL1        0.0738
      3 C           2.7175    1.1606   18.7852 C.3     1  UNL1        0.0376
      4 C           2.6710   -0.2570   19.2732 C.3     1  UNL1        0.0841
      5 C           1.4830   -0.7446   20.0483 C.3     1  UNL1        0.0376
      6 C           0.3416    0.1853   20.3354 C.3     1  UNL1        0.0738
      7 N           3.8124   -1.1869   18.9862 N.am    1  UNL1       -0.2423
      8 C           4.3372   -1.5455   17.6275 C.2     1  UNL1        0.3310
      9 O           3.8128   -1.0371   16.3174 O.2     1  UNL1       -0.2501
     10 N           5.4786   -2.5017   17.8090 N.am    1  UNL1       -0.1647
     11 C           5.6592   -2.7341   19.2798 C.2     1  UNL1        0.0715
     12 C           6.6282   -3.5807   20.0507 C.3     1  UNL1        0.0824
     13 C           6.5675   -3.6147   21.5491 C.2     1  UNL1        0.0412
     14 CL          7.5366   -4.4612   22.3200 Cl      1  UNL1       -0.0865
     15 C           5.5377   -2.8021   22.2766 C.2     1  UNL1        0.0087
     16 C           4.5687   -1.9555   21.5057 C.2     1  UNL1        0.0165
     17 C           4.6294   -1.9215   20.0074 C.2     1  UNL1        0.0669
     18 C          -0.7533    2.5328   20.1344 C.3     1  UNL1        0.0739
     19 C          -0.9108    3.1269   21.5027 C.3     1  UNL1        0.0393
     20 C           0.3019    3.4535   22.3228 C.3     1  UNL1        0.1013
     21 O           2.8729    1.4456   22.4136 O.2     1  UNL1       -0.2501
     22 C           1.8726    1.6475   23.5130 C.2     1  UNL1        0.3310
     23 N           1.8784    0.9620   24.8471 N.am    1  UNL1       -0.1647
     24 C           0.7002    1.4612   25.6300 C.2     1  UNL1        0.0706
     25 C           0.2010    1.1391   27.0072 C.3     1  UNL1        0.0705
     26 C          -1.0323    1.8110   27.5341 C.2     1  UNL1       -0.0199
     27 C          -1.7662    2.8051   26.6837 C.2     1  UNL1       -0.0029
     28 C          -1.2669    3.1272   25.3065 C.2     1  UNL1        0.0156
     29 C          -0.0337    2.4553   24.7796 C.2     1  UNL1        0.0669
     30 N           0.6909    2.5704   23.4712 N.am    1  UNL1       -0.2407
@<TRIPOS>BOND
     1    21    22    2
     2    22    23    1
     3    23    24    2
     4    24    25    1
     5    25    26    1
     6    26    27    2
     7    27    28    1
     8    28    29    2
     9    29    30    1
    10    30    20    1
    11    20    19    1
    12    19    18    1
    13    18     1    1
    14     1     2    1
    15     2     3    1
    16     3     4    1
    17     4     7    1
    18     7     8   am
    19     8     9    2
    20     8    10    1
    21    10    11    2
    22    11    12    1
    23    12    13    1
    24    13    14    1
    25    13    15    2
    26    15    16    1
    27    16    17    2
    28     4     5    1
    29     5     6    1
    30    30    22   am
    31     6     1    1
    32    29    24    1
    33    17     7    1
    34    17    11    1
@<TRIPOS>MOLECULE
*****
 30 34 0 0 0
SMALL
GASTEIGER

@<TRIPOS>ATOM
      1 N           0.5461    2.0912   19.3491 N.3     1  UNL1       -0.2725
      2 C           1.8045    2.4077   18.5968 C.3     1  UNL1        0.0738
      3 C           2.8702    1.3632   18.4445 C.3     1  UNL1        0.0376
      4 C           2.6775    0.0020   19.0446 C.3     1  UNL1        0.0841
      5 C           1.4191   -0.3145   19.7970 C.3     1  UNL1        0.0376
      6 C           0.3533    0.7300   19.9492 C.3     1  UNL1        0.0738
      7 N           3.7432   -1.0425   18.8923 N.am    1  UNL1       -0.2423
      8 C           4.3116   -1.5398   17.5963 C.2     1  UNL1        0.3310
      9 O           3.9140   -1.0800   16.2250 O.2     1  UNL1       -0.2501
     10 N           5.3473   -2.5778   17.9123 N.am    1  UNL1       -0.1647
     11 C           5.4191   -2.7220   19.4037 C.2     1  UNL1        0.0715
     12 C           6.2591   -3.5947   20.2884 C.3     1  UNL1        0.0824
     13 C           6.1077   -3.5185   21.7788 C.2     1  UNL1        0.0412
     14 CL          6.9477   -4.3912   22.6636 Cl      1  UNL1       -0.0865
     15 C           5.1163   -2.5697   22.3845 C.2     1  UNL1        0.0087
     16 C           4.2763   -1.6969   21.4997 C.2     1  UNL1        0.0165
     17 C           4.4277   -1.7731   20.0094 C.2     1  UNL1        0.0669
     18 C          -0.5197    3.1357   19.5014 C.3     1  UNL1        0.0739
     19 C          -1.6017    2.9595   20.5252 C.3     1  UNL1        0.0393
     20 C          -2.4766    4.1191   20.8990 C.3     1  UNL1        0.1013
     21 O          -5.5952    3.5353   20.1354 O.2     1  UNL1       -0.2501
     22 C          -5.0350    3.6584   21.5214 C.2     1  UNL1        0.3310
     23 N          -5.8099    3.5348   22.7998 N.am    1  UNL1       -0.1647
     24 C          -4.8553    3.7268   23.9409 C.2     1  UNL1        0.0706
     25 C          -5.0526    3.7123   25.4278 C.3     1  UNL1        0.0705
     26 C          -3.8851    3.9401   26.3415 C.2     1  UNL1       -0.0199
     27 C          -2.5202    4.1823   25.7683 C.2     1  UNL1       -0.0029
     28 C          -2.3229    4.1968   24.2814 C.2     1  UNL1        0.0156
     29 C          -3.4905    3.9690   23.3677 C.2     1  UNL1        0.0669
     30 N          -3.6015    3.9268   21.8724 N.am    1  UNL1       -0.2407
@<TRIPOS>BOND
     1    21    22    2
     2    22    23    1
     3    23    24    2
     4    24    25    1
     5    25    26    1
     6    26    27    2
     7    27    28    1
     8    28    29    2
     9    29    30    1
    10    30    20    1
    11    20    19    1
    12    19    18    1
    13    18     1    1
    14     1     2    1
    15     2     3    1
    16     3     4    1
    17     4     7    1
    18     7     8   am
    19     8     9    2
    20     8    10    1
    21    10    11    2
    22    11    12    1
    23    12    13    1
    24    13    14    1
    25    13    15    2
    26    15    16    1
    27    16    17    2
    28     4     5    1
    29     5     6    1
    30    30    22   am
    31     6     1    1
    32    29    24    1
    33    17     7    1
    34    17    11    1
@<TRIPOS>MOLECULE
*****
 30 34 0 0 0
SMALL
GASTEIGER

@<TRIPOS>ATOM
      1 N           7.7532   -3.9424   22.5594 N.3     1  UNL1       -0.2725
      2 C           9.0108   -4.5911   23.0569 C.3     1  UNL1        0.0738
      3 C           9.0462   -5.2089   24.4233 C.3     1  UNL1        0.0376
      4 C           7.8239   -5.1781   25.2922 C.3     1  UNL1        0.0841
      5 C           6.5663   -4.5295   24.7947 C.3     1  UNL1        0.0376
      6 C           6.5309   -3.9116   23.4283 C.3     1  UNL1        0.0738
      7 N           7.8592   -5.7959   26.6586 N.am    1  UNL1       -0.2423
      8 C           8.2925   -7.1950   26.9827 C.2     1  UNL1        0.3310
      9 O           8.7664   -8.2218   25.9973 O.2     1  UNL1       -0.2501
     10 N           8.1685   -7.3869   28.4652 N.am    1  UNL1       -0.1647
     11 C           7.6587   -6.1065   29.0573 C.2     1  UNL1        0.0715
     12 C           7.3439   -5.7089   30.4690 C.3     1  UNL1        0.0824
     13 C           6.8379   -4.3279   30.7641 C.2     1  UNL1        0.0412
     14 CL          6.5230   -3.9303   32.1757 Cl      1  UNL1       -0.0865
     15 C           6.6467   -3.3447   29.6475 C.2     1  UNL1        0.0087
     16 C           6.9616   -3.7423   28.2359 C.2     1  UNL1        0.0165
     17 C           7.4676   -5.1232   27.9408 C.2     1  UNL1        0.0669
     18 C           7.7179   -3.3246   21.1930 C.3     1  UNL1        0.0739
     19 C           6.6457   -2.3350   20.8448 C.3     1  UNL1        0.0393
     20 C           5.5021   -2.7464   19.9658 C.3     1  UNL1        0.1013
     21 O           6.6861   -1.5066   17.1889 O.2     1  UNL1       -0.2501
     22 C           5.3682   -1.1621   17.8170 C.2     1  UNL1        0.3310
     23 N           4.3631   -0.1872   17.2791 N.am    1  UNL1       -0.1647
     24 C           3.1978   -0.1545   18.2229 C.2     1  UNL1        0.0706
     25 C           1.9141    0.6212   18.2062 C.3     1  UNL1        0.0705
     26 C           0.9152    0.4422   19.3108 C.2     1  UNL1       -0.0199
     27 C           1.2000   -0.5125   20.4321 C.2     1  UNL1       -0.0029
     28 C           2.4837   -1.2883   20.4488 C.2     1  UNL1        0.0156
     29 C           3.4826   -1.1093   19.3442 C.2     1  UNL1        0.0669
     30 N           4.8240   -1.7319   19.0934 N.am    1  UNL1       -0.2407
@<TRIPOS>BOND
     1    21    22    2
     2    22    23    1
     3    23    24    2
     4    24    25    1
     5    25    26    1
     6    26    27    2
     7    27    28    1
     8    28    29    2
     9    29    30    1
    10    30    20    1
    11    20    19    1
    12    19    18    1
    13    18     1    1
    14     1     2    1
    15     2     3    1
    16     3     4    1
    17     4     7    1
    18     7     8   am
    19     8     9    2
    20     8    10    1
    21    10    11    2
    22    11    12    1
    23    12    13    1
    24    13    14    1
    25    13    15    2
    26    15    16    1
    27    16    17    2
    28     4     5    1
    29     5     6    1
    30    30    22   am
    31     6     1    1
    32    29    24    1
    33    17     7    1
    34    17    11    1
