@<TRIPOS>MOLECULE
*****
 34 37 0 0 0
SMALL
GASTEIGER

@<TRIPOS>ATOM
      1 C         -13.0717   -7.1626   18.8272 C.ar    1  UNL1        0.0659
      2 C         -11.5964   -7.0656   18.5742 C.ar    1  UNL1        0.0159
      3 C         -10.9493   -5.7216   18.4161 C.ar    1  UNL1        0.0014
      4 C         -11.7775   -4.4747   18.5110 C.ar    1  UNL1        0.0032
      5 C         -10.9394   -3.2447   18.3248 C.ar    1  UNL1        0.0016
      6 C         -11.3697   -1.8078   18.3455 C.ar    1  UNL1        0.0192
      7 C         -12.7443   -1.2462   18.5576 C.ar    1  UNL1        0.0844
      8 N         -12.7384    0.2528   18.5023 N.ar    1  UNL1       -0.2437
      9 C         -14.0163    1.0153   18.6907 C.ar    1  UNL1        0.0989
     10 C         -15.3001    0.2789   18.9345 C.ar    1  UNL1        0.0223
     11 C         -15.3061   -1.2200   18.9898 C.ar    1  UNL1        0.0063
     12 C         -14.0282   -1.9826   18.8013 C.ar    1  UNL1        0.0566
     13 C         -14.2544   -3.4626   18.8932 C.ar    1  UNL1        0.1970
     14 O         -15.6695   -3.8900   19.1479 O.2     1  UNL1       -0.2865
     15 C         -13.2528   -4.5717   18.7640 C.ar    1  UNL1        0.0403
     16 C         -13.8999   -5.9157   18.9220 C.ar    1  UNL1        0.0191
     17 C         -16.5780    1.0414   19.1229 C.ar    1  UNL1        0.0411
     18 C         -17.1484    2.0542   18.1749 C.ar    1  UNL1        0.1217
     19 N         -18.4328    2.5638   18.7586 N.ar    1  UNL1       -0.1676
     20 N         -18.6563    1.8658   20.0673 N.ar    1  UNL1       -0.2473
     21 C         -19.8215    2.0725   20.9890 C.3     1  UNL1        0.1538
     22 C         -17.5100    0.9250   20.2925 C.ar    1  UNL1        0.0967
     23 N         -13.7187   -8.5066   18.9852 N.pl3   1  UNL1       -0.2052
     24 H         -13.2628   -9.2157   19.4938 H       1  UNL1        0.1748
     25 S         -15.0604   -8.7703   18.3685 S.O2    1  UNL1        0.1130
     26 O         -15.6408   -9.0050   19.7315 O.2     1  UNL1       -0.1379
     27 O         -14.4799   -8.5356   17.0054 O.2     1  UNL1       -0.1379
     28 N         -16.4021   -9.0339   17.7516 N.3     1  UNL1       -0.1413
     29 C         -16.9577   -8.0855   16.7310 C.3     1  UNL1        0.1163
     30 C         -17.1880  -10.2461   18.1554 C.3     1  UNL1        0.0998
     31 C         -18.6462  -10.3415   17.8170 C.3     1  UNL1        0.0512
     32 C         -19.6689   -9.7276   18.7265 C.3     1  UNL1        0.1438
     33 C         -18.9664   -7.6667   20.1439 C.3     1  UNL1        0.1741
     34 O         -19.2470   -9.1364   20.0390 O.3     1  UNL1       -0.3511
@<TRIPOS>BOND
     1    33    34    1
     2    34    32    1
     3    32    31    1
     4    31    30    1
     5    30    28    1
     6    28    29    1
     7    28    25    1
     8    25    26    2
     9    25    27    2
    10    25    23    1
    11    23     1    1
    12     1     2   ar
    13     2     3   ar
    14     3     4   ar
    15     4     5   ar
    16     5     6   ar
    17     6     7   ar
    18     7     8   ar
    19     8     9   ar
    20     9    10   ar
    21    10    17    1
    22    17    18   ar
    23    18    19   ar
    24    19    20   ar
    25    20    21    1
    26    20    22   ar
    27    10    11   ar
    28    11    12   ar
    29    12    13   ar
    30    13    14    2
    31    13    15   ar
    32    15    16   ar
    33    16     1   ar
    34    15     4   ar
    35    12     7   ar
    36    22    17   ar
    37    23    24    1
@<TRIPOS>MOLECULE
*****
 34 37 0 0 0
SMALL
GASTEIGER

@<TRIPOS>ATOM
      1 C         -13.5906   -7.7358   18.1861 C.ar    1  UNL1        0.0659
      2 C         -14.5188   -8.9132   18.2314 C.ar    1  UNL1        0.0159
      3 C         -15.9607   -8.7180   18.5958 C.ar    1  UNL1        0.0014
      4 C         -16.4744   -7.3453   18.9150 C.ar    1  UNL1        0.0032
      5 C         -17.9358   -7.3717   19.2518 C.ar    1  UNL1        0.0016
      6 C         -18.8300   -6.2271   19.6266 C.ar    1  UNL1        0.0192
      7 C         -18.4836   -4.7736   19.7571 C.ar    1  UNL1        0.0844
      8 N         -19.6789   -3.9589   20.1541 N.ar    1  UNL1       -0.2437
      9 C         -19.5480   -2.4761   20.3391 C.ar    1  UNL1        0.0989
     10 C         -18.2218   -1.8080   20.1270 C.ar    1  UNL1        0.0223
     11 C         -17.0265   -2.6227   19.7301 C.ar    1  UNL1        0.0063
     12 C         -17.1575   -4.1055   19.5451 C.ar    1  UNL1        0.0566
     13 C         -15.8501   -4.7261   19.1502 C.ar    1  UNL1        0.1970
     14 O         -14.6940   -3.7795   19.0183 O.2     1  UNL1       -0.2865
     15 C         -15.5462   -6.1679   18.8698 C.ar    1  UNL1        0.0403
     16 C         -14.1043   -6.3632   18.5054 C.ar    1  UNL1        0.0191
     17 C         -18.0908   -0.3252   20.3120 C.ar    1  UNL1        0.0411
     18 C         -19.1988    0.6195   20.6724 C.ar    1  UNL1        0.1217
     19 N         -18.6217    2.0018   20.7522 N.ar    1  UNL1       -0.1676
     20 N         -17.1571    1.9113   20.4411 N.ar    1  UNL1       -0.2473
     21 C         -16.1903    3.0577   20.4079 C.3     1  UNL1        0.1538
     22 C         -16.8291    0.4731   20.1691 C.ar    1  UNL1        0.0967
     23 N         -12.1487   -7.9310   17.8217 N.pl3   1  UNL1       -0.2052
     24 H         -11.8164   -8.8287   17.5913 H       1  UNL1        0.1748
     25 S         -11.2131   -6.7587   17.8082 S.O2    1  UNL1        0.1130
     26 O         -11.5636   -6.4955   16.3737 O.2     1  UNL1       -0.1379
     27 O         -10.8627   -7.0218   19.2427 O.2     1  UNL1       -0.1379
     28 N         -10.2775   -5.5862   17.7948 N.3     1  UNL1       -0.1413
     29 C          -9.6668   -5.0994   19.0754 C.3     1  UNL1        0.1163
     30 C          -9.9527   -4.9007   16.5008 C.3     1  UNL1        0.0998
     31 C          -9.3536   -3.5256   16.5102 C.3     1  UNL1        0.0512
     32 C         -10.2308   -2.3241   16.3183 C.3     1  UNL1        0.1438
     33 C         -11.4962   -1.8506   18.5375 C.3     1  UNL1        0.1741
     34 O         -10.5269   -1.4189   17.4773 O.3     1  UNL1       -0.3511
@<TRIPOS>BOND
     1    33    34    1
     2    34    32    1
     3    32    31    1
     4    31    30    1
     5    30    28    1
     6    28    29    1
     7    28    25    1
     8    25    26    2
     9    25    27    2
    10    25    23    1
    11    23     1    1
    12     1     2   ar
    13     2     3   ar
    14     3     4   ar
    15     4     5   ar
    16     5     6   ar
    17     6     7   ar
    18     7     8   ar
    19     8     9   ar
    20     9    10   ar
    21    10    17    1
    22    17    18   ar
    23    18    19   ar
    24    19    20   ar
    25    20    21    1
    26    20    22   ar
    27    10    11   ar
    28    11    12   ar
    29    12    13   ar
    30    13    14    2
    31    13    15   ar
    32    15    16   ar
    33    16     1   ar
    34    15     4   ar
    35    12     7   ar
    36    22    17   ar
    37    23    24    1
@<TRIPOS>MOLECULE
*****
 34 37 0 0 0
SMALL
GASTEIGER

@<TRIPOS>ATOM
      1 C           2.4524   -0.1903   18.9362 C.ar    1  UNL1        0.0659
      2 C           3.2310    0.1345   17.6960 C.ar    1  UNL1        0.0159
      3 C           4.6252   -0.3921   17.5263 C.ar    1  UNL1        0.0014
      4 C           5.2409   -1.2434   18.5968 C.ar    1  UNL1        0.0032
      5 C           6.6336   -1.6628   18.2302 C.ar    1  UNL1        0.0016
      6 C           7.5917   -2.5107   19.0133 C.ar    1  UNL1        0.0192
      7 C           7.3937   -3.1484   20.3564 C.ar    1  UNL1        0.0844
      8 N           8.6092   -3.9174   20.7824 N.ar    1  UNL1       -0.2437
      9 C           8.6196   -4.6339   22.1002 C.ar    1  UNL1        0.0989
     10 C           7.4146   -4.5813   22.9920 C.ar    1  UNL1        0.0223
     11 C           6.1992   -3.8123   22.5660 C.ar    1  UNL1        0.0063
     12 C           6.1888   -3.0959   21.2482 C.ar    1  UNL1        0.0566
     13 C           4.8842   -2.3926   21.0171 C.ar    1  UNL1        0.1970
     14 O           3.8670   -2.5322   22.1106 O.2     1  UNL1       -0.2865
     15 C           4.4624   -1.5681   19.8371 C.ar    1  UNL1        0.0403
     16 C           3.0681   -1.0416   20.0068 C.ar    1  UNL1        0.0191
     17 C           7.4250   -5.2978   24.3098 C.ar    1  UNL1        0.0411
     18 C           6.8878   -4.7674   25.6060 C.ar    1  UNL1        0.1217
     19 N           7.1052   -5.8123   26.6601 N.ar    1  UNL1       -0.1676
     20 N           7.7768   -6.9884   26.0153 N.ar    1  UNL1       -0.2473
     21 C           8.1800   -8.2593   26.7025 C.3     1  UNL1        0.1538
     22 C           7.9745   -6.6704   24.5628 C.ar    1  UNL1        0.0967
     23 N           1.0582    0.3363   19.1059 N.pl3   1  UNL1       -0.2052
     24 H           0.3999    0.2289   18.3818 H       1  UNL1        0.1748
     25 S           0.6668    1.0264   20.3789 S.O2    1  UNL1        0.1130
     26 O           1.5818    2.1663   20.0421 O.2     1  UNL1       -0.1379
     27 O          -0.2481   -0.1135   20.7157 O.2     1  UNL1       -0.1379
     28 N           0.2755    1.7166   21.6519 N.3     1  UNL1       -0.1413
     29 C           0.8676    1.2746   22.9573 C.3     1  UNL1        0.1163
     30 C          -0.7080    2.8487   21.6195 C.3     1  UNL1        0.0998
     31 C          -1.6527    2.9887   20.4629 C.3     1  UNL1        0.0512
     32 C          -3.0289    3.5440   20.6815 C.3     1  UNL1        0.1438
     33 C          -4.9228    3.1565   22.4173 C.3     1  UNL1        0.1741
     34 O          -4.1067    2.6728   21.2554 O.3     1  UNL1       -0.3511
@<TRIPOS>BOND
     1    33    34    1
     2    34    32    1
     3    32    31    1
     4    31    30    1
     5    30    28    1
     6    28    29    1
     7    28    25    1
     8    25    26    2
     9    25    27    2
    10    25    23    1
    11    23     1    1
    12     1     2   ar
    13     2     3   ar
    14     3     4   ar
    15     4     5   ar
    16     5     6   ar
    17     6     7   ar
    18     7     8   ar
    19     8     9   ar
    20     9    10   ar
    21    10    17    1
    22    17    18   ar
    23    18    19   ar
    24    19    20   ar
    25    20    21    1
    26    20    22   ar
    27    10    11   ar
    28    11    12   ar
    29    12    13   ar
    30    13    14    2
    31    13    15   ar
    32    15    16   ar
    33    16     1   ar
    34    15     4   ar
    35    12     7   ar
    36    22    17   ar
    37    23    24    1
@<TRIPOS>MOLECULE
*****
 34 37 0 0 0
SMALL
GASTEIGER

@<TRIPOS>ATOM
      1 C           7.7214   -4.5180   21.6808 C.ar    1  UNL1        0.0659
      2 C           8.4262   -5.7981   21.3424 C.ar    1  UNL1        0.0159
      3 C           8.8308   -6.7430   22.4349 C.ar    1  UNL1        0.0014
      4 C           8.5304   -6.4079   23.8657 C.ar    1  UNL1        0.0032
      5 C           9.0169   -7.4813   24.7937 C.ar    1  UNL1        0.0016
      6 C           8.9187   -7.5397   26.2894 C.ar    1  UNL1        0.0192
      7 C           8.3097   -6.5391   27.2264 C.ar    1  UNL1        0.0844
      8 N           8.4224   -6.9859   28.6539 N.ar    1  UNL1       -0.2437
      9 C           7.8738   -6.1266   29.7542 C.ar    1  UNL1        0.0989
     10 C           7.2126   -4.8205   29.4270 C.ar    1  UNL1        0.0223
     11 C           7.1000   -4.3738   27.9996 C.ar    1  UNL1        0.0063
     12 C           7.6485   -5.2331   26.8993 C.ar    1  UNL1        0.0566
     13 C           7.4331   -4.6050   25.5542 C.ar    1  UNL1        0.1970
     14 O           6.7325   -3.2787   25.5600 O.2     1  UNL1       -0.2865
     15 C           7.8255   -5.1279   24.2042 C.ar    1  UNL1        0.0403
     16 C           7.4210   -4.1829   23.1117 C.ar    1  UNL1        0.0191
     17 C           6.6641   -3.9612   30.5273 C.ar    1  UNL1        0.0411
     18 C           6.5909   -4.3287   31.9797 C.ar    1  UNL1        0.1217
     19 N           5.9740   -3.1781   32.7185 N.ar    1  UNL1       -0.1676
     20 N           5.6660   -2.0995   31.7226 N.ar    1  UNL1       -0.2473
     21 C           5.0412   -0.7704   32.0274 C.3     1  UNL1        0.1538
     22 C           6.0926   -2.5835   30.3684 C.ar    1  UNL1        0.0967
     23 N           7.3168   -3.5731   20.5884 N.pl3   1  UNL1       -0.2052
     24 H           8.0035   -3.1531   20.0215 H       1  UNL1        0.1748
     25 S           5.8661   -3.2681   20.3596 S.O2    1  UNL1        0.1130
     26 O           5.6281   -4.6957   19.9658 O.2     1  UNL1       -0.1379
     27 O           6.1042   -1.8405   20.7534 O.2     1  UNL1       -0.1379
     28 N           4.4154   -2.9630   20.1308 N.3     1  UNL1       -0.1413
     29 C           3.6111   -3.8074   19.1874 C.3     1  UNL1        0.1163
     30 C           3.7689   -1.8135   20.8454 C.3     1  UNL1        0.0998
     31 C           2.5033   -1.2132   20.3091 C.3     1  UNL1        0.0512
     32 C           2.5485   -0.3192   19.1055 C.3     1  UNL1        0.1438
     33 C           3.8828   -0.8128   16.9315 C.3     1  UNL1        0.1741
     34 O           3.8100   -0.2068   18.3017 O.3     1  UNL1       -0.3511
@<TRIPOS>BOND
     1    33    34    1
     2    34    32    1
     3    32    31    1
     4    31    30    1
     5    30    28    1
     6    28    29    1
     7    28    25    1
     8    25    26    2
     9    25    27    2
    10    25    23    1
    11    23     1    1
    12     1     2   ar
    13     2     3   ar
    14     3     4   ar
    15     4     5   ar
    16     5     6   ar
    17     6     7   ar
    18     7     8   ar
    19     8     9   ar
    20     9    10   ar
    21    10    17    1
    22    17    18   ar
    23    18    19   ar
    24    19    20   ar
    25    20    21    1
    26    20    22   ar
    27    10    11   ar
    28    11    12   ar
    29    12    13   ar
    30    13    14    2
    31    13    15   ar
    32    15    16   ar
    33    16     1   ar
    34    15     4   ar
    35    12     7   ar
    36    22    17   ar
    37    23    24    1
@<TRIPOS>MOLECULE
*****
 34 37 0 0 0
SMALL
GASTEIGER

@<TRIPOS>ATOM
      1 C           2.4957   -0.2931   18.9447 C.ar    1  UNL1        0.0659
      2 C           3.2726   -0.0733   17.6805 C.ar    1  UNL1        0.0159
      3 C           4.6471   -0.6556   17.5340 C.ar    1  UNL1        0.0014
      4 C           5.2448   -1.4579   18.6516 C.ar    1  UNL1        0.0032
      5 C           6.6194   -1.9458   18.3017 C.ar    1  UNL1        0.0016
      6 C           7.5567   -2.7741   19.1296 C.ar    1  UNL1        0.0192
      7 C           7.3508   -3.3190   20.5119 C.ar    1  UNL1        0.0844
      8 N           8.5444   -4.0998   20.9765 N.ar    1  UNL1       -0.2437
      9 C           8.5440   -4.7318   22.3368 C.ar    1  UNL1        0.0989
     10 C           7.3500   -4.5830   23.2326 C.ar    1  UNL1        0.0223
     11 C           6.1565   -3.8023   22.7680 C.ar    1  UNL1        0.0063
     12 C           6.1569   -3.1703   21.4077 C.ar    1  UNL1        0.0566
     13 C           4.8739   -2.4398   21.1423 C.ar    1  UNL1        0.1970
     14 O           3.8632   -2.4764   22.2501 O.2     1  UNL1       -0.2865
     15 C           4.4680   -1.6777   19.9158 C.ar    1  UNL1        0.0403
     16 C           3.0935   -1.0954   20.0623 C.ar    1  UNL1        0.0191
     17 C           7.3496   -5.2151   24.5930 C.ar    1  UNL1        0.0411
     18 C           7.9441   -6.5459   24.9470 C.ar    1  UNL1        0.1217
     19 N           7.7166   -6.7806   26.4110 N.ar    1  UNL1       -0.1676
     20 N           6.9815   -5.5947   26.9617 N.ar    1  UNL1       -0.2473
     21 C           6.5491   -5.4089   28.3860 C.3     1  UNL1        0.1538
     22 C           6.7547   -4.6272   25.8381 C.ar    1  UNL1        0.0967
     23 N           1.1212    0.2892   19.0913 N.pl3   1  UNL1       -0.2052
     24 H           0.4478    0.1446   18.3878 H       1  UNL1        0.1748
     25 S           0.7727    1.0919   20.3095 S.O2    1  UNL1        0.1130
     26 O          -0.2419    0.0585   20.7002 O.2     1  UNL1       -0.1379
     27 O           1.7873    2.1253   19.9189 O.2     1  UNL1       -0.1379
     28 N           0.4243    1.8947   21.5278 N.3     1  UNL1       -0.1413
     29 C          -0.1902    3.2549   21.3792 C.3     1  UNL1        0.1163
     30 C           0.6903    1.3371   22.8947 C.3     1  UNL1        0.0998
     31 C           2.0188    0.7136   23.2049 C.3     1  UNL1        0.0512
     32 C           2.3548    0.3265   24.6146 C.3     1  UNL1        0.1438
     33 C           3.8143   -1.0424   26.2717 C.3     1  UNL1        0.1741
     34 O           3.3324   -0.7810   24.8755 O.3     1  UNL1       -0.3511
@<TRIPOS>BOND
     1    33    34    1
     2    34    32    1
     3    32    31    1
     4    31    30    1
     5    30    28    1
     6    28    29    1
     7    28    25    1
     8    25    26    2
     9    25    27    2
    10    25    23    1
    11    23     1    1
    12     1     2   ar
    13     2     3   ar
    14     3     4   ar
    15     4     5   ar
    16     5     6   ar
    17     6     7   ar
    18     7     8   ar
    19     8     9   ar
    20     9    10   ar
    21    10    17    1
    22    17    18   ar
    23    18    19   ar
    24    19    20   ar
    25    20    21    1
    26    20    22   ar
    27    10    11   ar
    28    11    12   ar
    29    12    13   ar
    30    13    14    2
    31    13    15   ar
    32    15    16   ar
    33    16     1   ar
    34    15     4   ar
    35    12     7   ar
    36    22    17   ar
    37    23    24    1
@<TRIPOS>MOLECULE
*****
 34 37 0 0 0
SMALL
GASTEIGER

@<TRIPOS>ATOM
      1 C           8.3973   -5.3740   22.6798 C.ar    1  UNL1        0.0659
      2 C           8.8721   -6.7968   22.6860 C.ar    1  UNL1        0.0159
      3 C           8.9145   -7.5678   23.9721 C.ar    1  UNL1        0.0014
      4 C           8.4820   -6.9159   25.2519 C.ar    1  UNL1        0.0032
      5 C           8.6020   -7.8567   26.4139 C.ar    1  UNL1        0.0016
      6 C           8.2767   -7.6071   27.8568 C.ar    1  UNL1        0.0192
      7 C           7.7511   -6.3550   28.4940 C.ar    1  UNL1        0.0844
      8 N           7.5620   -6.5299   29.9717 N.ar    1  UNL1       -0.2437
      9 C           7.0427   -5.3930   30.8011 C.ar    1  UNL1        0.0989
     10 C           6.7126   -4.0812   30.1527 C.ar    1  UNL1        0.0223
     11 C           6.9018   -3.9064   28.6751 C.ar    1  UNL1        0.0063
     12 C           7.4210   -5.0432   27.8457 C.ar    1  UNL1        0.0566
     13 C           7.5350   -4.6597   26.4000 C.ar    1  UNL1        0.1970
     14 O           7.1221   -3.2572   26.0644 O.2     1  UNL1       -0.2865
     15 C           8.0071   -5.4931   25.2457 C.ar    1  UNL1        0.0403
     16 C           7.9648   -4.7221   23.9596 C.ar    1  UNL1        0.0191
     17 C           6.1934   -2.9443   30.9821 C.ar    1  UNL1        0.0411
     18 C           5.9272   -1.5497   30.4983 C.ar    1  UNL1        0.1217
     19 N           5.4185   -0.7458   31.6581 N.ar    1  UNL1       -0.1676
     20 N           5.3703   -1.6437   32.8587 N.ar    1  UNL1       -0.2473
     21 C           4.9218   -1.2517   34.2354 C.3     1  UNL1        0.1538
     22 C           5.8492   -3.0024   32.4409 C.ar    1  UNL1        0.0967
     23 N           8.3549   -4.6031   21.3938 N.pl3   1  UNL1       -0.2052
     24 H           9.0160   -4.7868   20.6877 H       1  UNL1        0.1748
     25 S           7.3054   -3.5523   21.1835 S.O2    1  UNL1        0.1130
     26 O           8.3100   -2.4851   21.5027 O.2     1  UNL1       -0.1379
     27 O           6.3009   -4.6194   20.8643 O.2     1  UNL1       -0.1379
     28 N           6.2558   -2.5014   20.9732 N.3     1  UNL1       -0.1413
     29 C           6.5758   -1.0592   21.2331 C.3     1  UNL1        0.1163
     30 C           4.8863   -2.8929   20.5030 C.3     1  UNL1        0.0998
     31 C           4.0838   -1.9467   19.6600 C.3     1  UNL1        0.0512
     32 C           4.2557   -1.9395   18.1699 C.3     1  UNL1        0.1438
     33 C           6.3488   -0.5516   17.5045 C.3     1  UNL1        0.1741
     34 O           5.6303   -1.8665   17.5738 O.3     1  UNL1       -0.3511
@<TRIPOS>BOND
     1    33    34    1
     2    34    32    1
     3    32    31    1
     4    31    30    1
     5    30    28    1
     6    28    29    1
     7    28    25    1
     8    25    26    2
     9    25    27    2
    10    25    23    1
    11    23     1    1
    12     1     2   ar
    13     2     3   ar
    14     3     4   ar
    15     4     5   ar
    16     5     6   ar
    17     6     7   ar
    18     7     8   ar
    19     8     9   ar
    20     9    10   ar
    21    10    17    1
    22    17    18   ar
    23    18    19   ar
    24    19    20   ar
    25    20    21    1
    26    20    22   ar
    27    10    11   ar
    28    11    12   ar
    29    12    13   ar
    30    13    14    2
    31    13    15   ar
    32    15    16   ar
    33    16     1   ar
    34    15     4   ar
    35    12     7   ar
    36    22    17   ar
    37    23    24    1
@<TRIPOS>MOLECULE
*****
 34 37 0 0 0
SMALL
GASTEIGER

@<TRIPOS>ATOM
      1 C           2.3956   -0.3390   19.0576 C.ar    1  UNL1        0.0659
      2 C           3.1818   -0.4683   17.7867 C.ar    1  UNL1        0.0159
      3 C           4.4875   -1.2066   17.7844 C.ar    1  UNL1        0.0014
      4 C           5.0070   -1.8156   19.0530 C.ar    1  UNL1        0.0032
      5 C           6.3211   -2.5043   18.8321 C.ar    1  UNL1        0.0016
      6 C           7.1735   -3.2339   19.8277 C.ar    1  UNL1        0.0192
      7 C           6.9224   -3.4549   21.2899 C.ar    1  UNL1        0.0844
      8 N           8.0320   -4.2403   21.9239 N.ar    1  UNL1       -0.2437
      9 C           7.9760   -4.5716   23.3858 C.ar    1  UNL1        0.0989
     10 C           6.8104   -4.1177   24.2136 C.ar    1  UNL1        0.0223
     11 C           5.7008   -3.3324   23.5796 C.ar    1  UNL1        0.0063
     12 C           5.7568   -3.0010   22.1177 C.ar    1  UNL1        0.0566
     13 C           4.5544   -2.2138   21.6877 C.ar    1  UNL1        0.1970
     14 O           3.5535   -1.9147   22.7641 O.2     1  UNL1       -0.2865
     15 C           4.2208   -1.6863   20.3238 C.ar    1  UNL1        0.0403
     16 C           2.9151   -0.9480   20.3261 C.ar    1  UNL1        0.0191
     17 C           6.7544   -4.4490   25.6755 C.ar    1  UNL1        0.0411
     18 C           6.7875   -5.8261   26.2693 C.ar    1  UNL1        0.1217
     19 N           6.7090   -5.6897   27.7611 N.ar    1  UNL1       -0.1676
     20 N           6.6273   -4.2283   28.0892 N.ar    1  UNL1       -0.2473
     21 C           6.5341   -3.6374   29.4647 C.3     1  UNL1        0.1538
     22 C           6.6554   -3.4616   26.8002 C.ar    1  UNL1        0.0967
     23 N           1.0898    0.3993   19.0599 N.pl3   1  UNL1       -0.2052
     24 H           0.4472    0.2652   18.3262 H       1  UNL1        0.1748
     25 S           0.7632    1.3418   20.1800 S.O2    1  UNL1        0.1130
     26 O           1.7737    2.3174   19.6538 O.2     1  UNL1       -0.1379
     27 O          -0.2474    0.3662   20.7063 O.2     1  UNL1       -0.1379
     28 N           0.4364    2.2844   21.3003 N.3     1  UNL1       -0.1413
     29 C          -0.9160    2.9298   21.3671 C.3     1  UNL1        0.1163
     30 C           1.4622    2.5816   22.3536 C.3     1  UNL1        0.0998
     31 C           2.2007    1.4586   23.0194 C.3     1  UNL1        0.0512
     32 C           1.6924    0.8876   24.3100 C.3     1  UNL1        0.1438
     33 C          -0.1857    1.3920   26.0330 C.3     1  UNL1        0.1741
     34 O           0.2350    0.9866   24.6514 O.3     1  UNL1       -0.3511
@<TRIPOS>BOND
     1    33    34    1
     2    34    32    1
     3    32    31    1
     4    31    30    1
     5    30    28    1
     6    28    29    1
     7    28    25    1
     8    25    26    2
     9    25    27    2
    10    25    23    1
    11    23     1    1
    12     1     2   ar
    13     2     3   ar
    14     3     4   ar
    15     4     5   ar
    16     5     6   ar
    17     6     7   ar
    18     7     8   ar
    19     8     9   ar
    20     9    10   ar
    21    10    17    1
    22    17    18   ar
    23    18    19   ar
    24    19    20   ar
    25    20    21    1
    26    20    22   ar
    27    10    11   ar
    28    11    12   ar
    29    12    13   ar
    30    13    14    2
    31    13    15   ar
    32    15    16   ar
    33    16     1   ar
    34    15     4   ar
    35    12     7   ar
    36    22    17   ar
    37    23    24    1
@<TRIPOS>MOLECULE
*****
 34 37 0 0 0
SMALL
GASTEIGER

@<TRIPOS>ATOM
      1 C           2.1657   -0.1368   21.3917 C.ar    1  UNL1        0.0659
      2 C           2.4461   -0.3668   19.9362 C.ar    1  UNL1        0.0159
      3 C           3.5171   -1.3319   19.5221 C.ar    1  UNL1        0.0014
      4 C           4.3078   -2.0669   20.5635 C.ar    1  UNL1        0.0032
      5 C           5.3229   -2.9778   19.9391 C.ar    1  UNL1        0.0016
      6 C           6.3085   -3.8835   20.6161 C.ar    1  UNL1        0.0192
      7 C           6.5223   -4.1021   22.0846 C.ar    1  UNL1        0.0844
      8 N           7.6152   -5.0981   22.3370 N.ar    1  UNL1       -0.2437
      9 C           7.9890   -5.4610   23.7436 C.ar    1  UNL1        0.0989
     10 C           7.2701   -4.8278   24.8979 C.ar    1  UNL1        0.0223
     11 C           6.1773   -3.8318   24.6455 C.ar    1  UNL1        0.0063
     12 C           5.8034   -3.4690   23.2389 C.ar    1  UNL1        0.0566
     13 C           4.6930   -2.4608   23.2096 C.ar    1  UNL1        0.1970
     14 O           4.1806   -2.0181   24.5480 O.2     1  UNL1       -0.2865
     15 C           4.0275   -1.8369   22.0189 C.ar    1  UNL1        0.0403
     16 C           2.9564   -0.8718   22.4330 C.ar    1  UNL1        0.0191
     17 C           7.6440   -5.1906   26.3045 C.ar    1  UNL1        0.0411
     18 C           8.9921   -5.6599   26.7653 C.ar    1  UNL1        0.1217
     19 N           8.9167   -5.9072   28.2429 N.ar    1  UNL1       -0.1676
     20 N           7.5219   -5.5908   28.6952 N.ar    1  UNL1       -0.2473
     21 C           7.0046   -5.6984   30.0991 C.3     1  UNL1        0.1538
     22 C           6.7354   -5.1479   27.4972 C.ar    1  UNL1        0.0967
     23 N           1.0947    0.8283   21.8057 N.pl3   1  UNL1       -0.2052
     24 H           0.8184    0.8820   22.7492 H       1  UNL1        0.1748
     25 S           0.4446    1.7116   20.7825 S.O2    1  UNL1        0.1130
     26 O          -0.5773    0.6471   20.5129 O.2     1  UNL1       -0.1379
     27 O           1.4664    2.7760   21.0521 O.2     1  UNL1       -0.1379
     28 N          -0.2055    2.5949   19.7591 N.3     1  UNL1       -0.1413
     29 C           0.3903    2.7189   18.3882 C.3     1  UNL1        0.1163
     30 C          -1.4515    3.3543   20.1069 C.3     1  UNL1        0.0998
     31 C          -2.3876    3.7968   19.0216 C.3     1  UNL1        0.0512
     32 C          -3.8455    3.9861   19.3197 C.3     1  UNL1        0.1438
     33 C          -6.3055    3.3440   18.7850 C.3     1  UNL1        0.1741
     34 O          -4.8791    3.4992   18.3477 O.3     1  UNL1       -0.3511
@<TRIPOS>BOND
     1    33    34    1
     2    34    32    1
     3    32    31    1
     4    31    30    1
     5    30    28    1
     6    28    29    1
     7    28    25    1
     8    25    26    2
     9    25    27    2
    10    25    23    1
    11    23     1    1
    12     1     2   ar
    13     2     3   ar
    14     3     4   ar
    15     4     5   ar
    16     5     6   ar
    17     6     7   ar
    18     7     8   ar
    19     8     9   ar
    20     9    10   ar
    21    10    17    1
    22    17    18   ar
    23    18    19   ar
    24    19    20   ar
    25    20    21    1
    26    20    22   ar
    27    10    11   ar
    28    11    12   ar
    29    12    13   ar
    30    13    14    2
    31    13    15   ar
    32    15    16   ar
    33    16     1   ar
    34    15     4   ar
    35    12     7   ar
    36    22    17   ar
    37    23    24    1
@<TRIPOS>MOLECULE
*****
 34 37 0 0 0
SMALL
GASTEIGER

@<TRIPOS>ATOM
      1 C          -0.2384    2.1123   26.8706 C.ar    1  UNL1        0.0659
      2 C          -1.2596    3.1721   26.5808 C.ar    1  UNL1        0.0159
      3 C          -1.5729    3.5437   25.1618 C.ar    1  UNL1        0.0014
      4 C          -0.8652    2.8556   24.0325 C.ar    1  UNL1        0.0032
      5 C          -1.3239    3.3735   22.7016 C.ar    1  UNL1        0.0016
      6 C          -0.8746    2.9594   21.3316 C.ar    1  UNL1        0.0192
      7 C           0.1443    1.9253   20.9542 C.ar    1  UNL1        0.0844
      8 N           0.2950    1.8222   19.4654 N.ar    1  UNL1       -0.2437
      9 C           1.2670    0.8436   18.8759 C.ar    1  UNL1        0.0989
     10 C           2.0883   -0.0320   19.7753 C.ar    1  UNL1        0.0223
     11 C           1.9375    0.0710   21.2641 C.ar    1  UNL1        0.0063
     12 C           0.9655    1.0497   21.8536 C.ar    1  UNL1        0.0566
     13 C           0.9707    0.9921   23.3525 C.ar    1  UNL1        0.1970
     14 O           1.9156   -0.0005   23.9623 O.2     1  UNL1       -0.2865
     15 C           0.1560    1.7958   24.3222 C.ar    1  UNL1        0.0403
     16 C           0.4694    1.4241   25.7412 C.ar    1  UNL1        0.0191
     17 C           3.0603   -1.0106   19.1859 C.ar    1  UNL1        0.0411
     18 C           4.0215   -0.7340   18.0680 C.ar    1  UNL1        0.1217
     19 N           4.7970   -1.9902   17.8020 N.ar    1  UNL1       -0.1676
     20 N           4.3151   -3.0431   18.7555 N.ar    1  UNL1       -0.2473
     21 C           4.8183   -4.4537   18.8391 C.3     1  UNL1        0.1538
     22 C           3.2418   -2.4377   19.6108 C.ar    1  UNL1        0.0967
     23 N           0.0750    1.7407   28.2896 N.pl3   1  UNL1       -0.2052
     24 H          -0.4216    2.1596   29.0293 H       1  UNL1        0.1748
     25 S           1.1449    0.7308   28.5816 S.O2    1  UNL1        0.1130
     26 O           0.1045   -0.3461   28.6694 O.2     1  UNL1       -0.1379
     27 O           2.1853    1.8077   28.4939 O.2     1  UNL1       -0.1379
     28 N           2.2150   -0.2791   28.8736 N.3     1  UNL1       -0.1413
     29 C           2.5218   -0.6578   30.2922 C.3     1  UNL1        0.1163
     30 C           2.9781   -0.9103   27.7470 C.3     1  UNL1        0.0998
     31 C           4.4179   -1.2866   27.9346 C.3     1  UNL1        0.0512
     32 C           5.3014   -1.4913   26.7398 C.3     1  UNL1        0.1438
     33 C           4.7841   -2.2068   24.2963 C.3     1  UNL1        0.1741
     34 O           4.7963   -1.1568   25.3675 O.3     1  UNL1       -0.3511
@<TRIPOS>BOND
     1    33    34    1
     2    34    32    1
     3    32    31    1
     4    31    30    1
     5    30    28    1
     6    28    29    1
     7    28    25    1
     8    25    26    2
     9    25    27    2
    10    25    23    1
    11    23     1    1
    12     1     2   ar
    13     2     3   ar
    14     3     4   ar
    15     4     5   ar
    16     5     6   ar
    17     6     7   ar
    18     7     8   ar
    19     8     9   ar
    20     9    10   ar
    21    10    17    1
    22    17    18   ar
    23    18    19   ar
    24    19    20   ar
    25    20    21    1
    26    20    22   ar
    27    10    11   ar
    28    11    12   ar
    29    12    13   ar
    30    13    14    2
    31    13    15   ar
    32    15    16   ar
    33    16     1   ar
    34    15     4   ar
    35    12     7   ar
    36    22    17   ar
    37    23    24    1
