@<TRIPOS>MOLECULE
*****
 40 42 0 0 0
SMALL
GASTEIGER

@<TRIPOS>ATOM
      1 O          -8.6160  -15.5283   23.5410 O.2     1  UNL1       -0.2864
      2 C          -8.1244  -16.6822   22.7183 C.2     1  UNL1        0.2000
      3 C          -9.0450  -17.3539   21.7428 C.ar    1  UNL1        0.0786
      4 C         -10.4571  -16.8716   21.5901 C.ar    1  UNL1        0.1370
      5 O         -10.9487  -15.7176   22.4127 O.3     1  UNL1       -0.5054
      6 C         -11.3776  -17.5432   20.6146 C.ar    1  UNL1        0.0398
      7 C         -10.8861  -18.6972   19.7920 C.ar    1  UNL1        0.0398
      8 C          -9.4740  -19.1795   19.9448 C.ar    1  UNL1        0.1370
      9 O          -8.9825  -20.3334   19.1221 O.3     1  UNL1       -0.5054
     10 C          -8.5535  -18.5078   20.9202 C.ar    1  UNL1        0.0786
     11 C          -7.1413  -18.9902   21.0730 C.2     1  UNL1        0.2000
     12 O          -6.6498  -20.1441   20.2504 O.2     1  UNL1       -0.2864
     13 C          -6.2208  -18.3185   22.0484 C.ar    1  UNL1        0.0564
     14 C          -4.8087  -18.8008   22.2013 C.ar    1  UNL1        0.0479
     15 C          -3.8882  -18.1292   23.1767 C.ar    1  UNL1        0.0157
     16 C          -4.3797  -16.9752   23.9993 C.ar    1  UNL1        0.0157
     17 C          -5.7918  -16.4929   23.8466 C.ar    1  UNL1        0.0479
     18 C          -6.7124  -17.1646   22.8711 C.ar    1  UNL1        0.0564
     19 H         -10.3736  -15.2981   23.0221 H       1  UNL1        0.2922
     20 H          -9.5575  -20.7530   18.5128 H       1  UNL1        0.2922
     21 N          -4.3171  -19.9548   21.3786 N.pl3   1  UNL1       -0.3315
     22 H          -4.7080  -20.8498   21.5029 H       1  UNL1        0.1469
     23 C          -3.2300  -19.7451   20.3666 C.3     1  UNL1        0.1044
     24 C          -3.3905  -18.7047   19.2981 C.3     1  UNL1        0.0901
     25 N          -2.8257  -17.3297   19.4993 N.3     1  UNL1       -0.2940
     26 H          -3.5935  -16.7402   19.8210 H       1  UNL1        0.1234
     27 C          -1.6881  -17.1185   20.4539 C.3     1  UNL1        0.1008
     28 C          -0.2818  -17.4098   20.0209 C.3     1  UNL1        0.1542
     29 O           0.1480  -18.8249   19.7707 O.3     1  UNL1       -0.3805
     30 H           0.1287  -19.3209   20.6041 H       1  UNL1        0.2105
     31 N          -6.2833  -15.3390   24.6692 N.pl3   1  UNL1       -0.3315
     32 H          -6.6193  -14.5264   24.2263 H       1  UNL1        0.1469
     33 C          -6.2631  -15.4230   26.1667 C.3     1  UNL1        0.1044
     34 C          -7.5493  -15.5473   26.9284 C.3     1  UNL1        0.0901
     35 N          -8.7543  -16.1527   26.2717 N.3     1  UNL1       -0.2940
     36 H          -8.6608  -15.9822   25.2704 H       1  UNL1        0.1234
     37 C          -9.0431  -17.6153   26.4368 C.3     1  UNL1        0.1008
     38 C          -9.7795  -18.3603   25.3631 C.3     1  UNL1        0.1542
     39 O         -10.0829  -19.8192   25.5355 O.3     1  UNL1       -0.3805
     40 H          -9.2541  -20.3230   25.5435 H       1  UNL1        0.2105
@<TRIPOS>BOND
     1     1     2    2
     2     2     3    1
     3     3     4   ar
     4     4     5    1
     5     4     6   ar
     6     6     7   ar
     7     7     8   ar
     8     8     9    1
     9     8    10   ar
    10    10    11    1
    11    11    12    2
    12    11    13    1
    13    13    14   ar
    14    14    21    1
    15    21    23    1
    16    23    24    1
    17    24    25    1
    18    25    27    1
    19    27    28    1
    20    28    29    1
    21    14    15   ar
    22    15    16   ar
    23    16    17   ar
    24    17    31    1
    25    31    33    1
    26    33    34    1
    27    34    35    1
    28    35    37    1
    29    37    38    1
    30    38    39    1
    31    17    18   ar
    32    18     2    1
    33    10     3   ar
    34    18    13   ar
    35     5    19    1
    36     9    20    1
    37    21    22    1
    38    25    26    1
    39    29    30    1
    40    31    32    1
    41    35    36    1
    42    39    40    1
@<TRIPOS>MOLECULE
*****
 40 42 0 0 0
SMALL
GASTEIGER

@<TRIPOS>ATOM
      1 O          -6.9606  -20.1083   20.2622 O.2     1  UNL1       -0.2864
      2 C          -7.3803  -18.9434   21.1088 C.2     1  UNL1        0.2000
      3 C          -8.7841  -18.4216   21.0237 C.ar    1  UNL1        0.0786
      4 C          -9.7681  -19.0647   20.0920 C.ar    1  UNL1        0.1370
      5 O          -9.3484  -20.2296   19.2454 O.3     1  UNL1       -0.5054
      6 C         -11.1718  -18.5429   20.0070 C.ar    1  UNL1        0.0398
      7 C         -11.5915  -17.3780   20.8536 C.ar    1  UNL1        0.0398
      8 C         -10.6075  -16.7349   21.7853 C.ar    1  UNL1        0.1370
      9 O         -11.0273  -15.5699   22.6319 O.3     1  UNL1       -0.5054
     10 C          -9.2038  -17.2567   21.8703 C.ar    1  UNL1        0.0786
     11 C          -8.2197  -16.6135   22.8021 C.2     1  UNL1        0.2000
     12 O          -8.6395  -15.4486   23.6487 O.2     1  UNL1       -0.2864
     13 C          -6.8160  -17.1353   22.8871 C.ar    1  UNL1        0.0564
     14 C          -5.8320  -16.4922   23.8189 C.ar    1  UNL1        0.0479
     15 C          -4.4282  -17.0140   23.9039 C.ar    1  UNL1        0.0157
     16 C          -4.0085  -18.1789   23.0573 C.ar    1  UNL1        0.0157
     17 C          -4.9925  -18.8220   22.1256 C.ar    1  UNL1        0.0479
     18 C          -6.3963  -18.3002   22.0405 C.ar    1  UNL1        0.0564
     19 H          -8.4715  -20.5556   19.2985 H       1  UNL1        0.2922
     20 H         -11.9041  -15.2440   22.5788 H       1  UNL1        0.2922
     21 N          -6.2517  -15.3273   24.6655 N.pl3   1  UNL1       -0.3315
     22 H          -6.7073  -14.5580   24.2533 H       1  UNL1        0.1469
     23 C          -5.9773  -15.3344   26.1401 C.3     1  UNL1        0.1044
     24 C          -7.0253  -15.8228   27.0957 C.3     1  UNL1        0.0901
     25 N          -8.4199  -16.0848   26.6096 N.3     1  UNL1       -0.2940
     26 H          -8.4351  -15.8487   25.6174 H       1  UNL1        0.1234
     27 C          -9.0135  -17.4564   26.7375 C.3     1  UNL1        0.1008
     28 C          -9.6268  -18.1227   25.5416 C.3     1  UNL1        0.1542
     29 O         -10.0152  -19.5700   25.6065 O.3     1  UNL1       -0.3805
     30 H          -9.2186  -20.1145   25.7050 H       1  UNL1        0.2105
     31 N          -4.5728  -19.9869   21.2790 N.pl3   1  UNL1       -0.3315
     32 H          -5.1147  -20.8088   21.2690 H       1  UNL1        0.1469
     33 C          -3.3274  -19.8997   20.4475 C.3     1  UNL1        0.1044
     34 C          -3.2684  -18.9577   19.2817 C.3     1  UNL1        0.0901
     35 N          -2.8880  -17.5226   19.4956 N.3     1  UNL1       -0.2940
     36 H          -3.7116  -17.0525   19.8712 H       1  UNL1        0.1234
     37 C          -1.7422  -17.1772   20.4000 C.3     1  UNL1        0.1008
     38 C          -0.3337  -17.4574   19.9665 C.3     1  UNL1        0.1542
     39 O           0.1338  -18.8736   19.8060 O.3     1  UNL1       -0.3805
     40 H           0.1399  -19.3122   20.6712 H       1  UNL1        0.2105
@<TRIPOS>BOND
     1     1     2    2
     2     2     3    1
     3     3     4   ar
     4     4     5    1
     5     4     6   ar
     6     6     7   ar
     7     7     8   ar
     8     8     9    1
     9     8    10   ar
    10    10    11    1
    11    11    12    2
    12    11    13    1
    13    13    14   ar
    14    14    21    1
    15    21    23    1
    16    23    24    1
    17    24    25    1
    18    25    27    1
    19    27    28    1
    20    28    29    1
    21    14    15   ar
    22    15    16   ar
    23    16    17   ar
    24    17    31    1
    25    31    33    1
    26    33    34    1
    27    34    35    1
    28    35    37    1
    29    37    38    1
    30    38    39    1
    31    17    18   ar
    32    18     2    1
    33    10     3   ar
    34    18    13   ar
    35     5    19    1
    36     9    20    1
    37    21    22    1
    38    25    26    1
    39    29    30    1
    40    31    32    1
    41    35    36    1
    42    39    40    1
@<TRIPOS>MOLECULE
*****
 40 42 0 0 0
SMALL
GASTEIGER

@<TRIPOS>ATOM
      1 O           7.0739   -6.2801   30.2917 O.2     1  UNL1       -0.2864
      2 C           6.8239   -4.9653   29.6142 C.2     1  UNL1        0.2000
      3 C           6.4549   -3.7605   30.4280 C.ar    1  UNL1        0.0786
      4 C           6.3359   -3.8704   31.9192 C.ar    1  UNL1        0.1370
      5 O           6.5859   -5.1851   32.5967 O.3     1  UNL1       -0.5054
      6 C           5.9669   -2.6655   32.7329 C.ar    1  UNL1        0.0398
      7 C           5.7169   -1.3508   32.0554 C.ar    1  UNL1        0.0398
      8 C           5.8359   -1.2409   30.5642 C.ar    1  UNL1        0.1370
      9 O           5.5859    0.0738   29.8867 O.3     1  UNL1       -0.5054
     10 C           6.2049   -2.4457   29.7505 C.ar    1  UNL1        0.0786
     11 C           6.3239   -2.3359   28.2592 C.2     1  UNL1        0.2000
     12 O           6.0740   -1.0212   27.5817 O.2     1  UNL1       -0.2864
     13 C           6.6930   -3.5407   27.4455 C.ar    1  UNL1        0.0564
     14 C           6.8120   -3.4309   25.9542 C.ar    1  UNL1        0.0479
     15 C           7.1810   -4.6357   25.1405 C.ar    1  UNL1        0.0157
     16 C           7.4310   -5.9504   25.8180 C.ar    1  UNL1        0.0157
     17 C           7.3120   -6.0603   27.3092 C.ar    1  UNL1        0.0479
     18 C           6.9429   -4.8554   28.1230 C.ar    1  UNL1        0.0564
     19 H           6.8164   -5.9377   32.0883 H       1  UNL1        0.2922
     20 H           5.3554    0.8265   30.3950 H       1  UNL1        0.2922
     21 N           6.5620   -2.1161   25.2767 N.pl3   1  UNL1       -0.3315
     22 H           7.0090   -1.3017   25.6024 H       1  UNL1        0.1469
     23 C           5.6310   -2.0423   24.1030 C.3     1  UNL1        0.1044
     24 C           4.2054   -1.6201   24.3018 C.3     1  UNL1        0.0901
     25 N           3.6478   -1.4911   25.6883 N.3     1  UNL1       -0.2940
     26 H           4.3850   -1.7822   26.3304 H       1  UNL1        0.1234
     27 C           3.1487   -0.1631   26.1754 C.3     1  UNL1        0.1008
     28 C           2.7003   -0.0064   27.5983 C.3     1  UNL1        0.1542
     29 O           3.0149   -1.0726   28.6055 O.3     1  UNL1       -0.3805
     30 H           2.5399   -1.8861   28.3742 H       1  UNL1        0.2105
     31 N           7.5620   -7.3750   27.9867 N.pl3   1  UNL1       -0.3315
     32 H           7.4198   -7.4638   28.9568 H       1  UNL1        0.1469
     33 C           8.0286   -8.5545   27.1861 C.3     1  UNL1        0.1044
     34 C           8.0400   -9.9221   27.8023 C.3     1  UNL1        0.0901
     35 N           6.7924  -10.7549   27.8028 N.3     1  UNL1       -0.2940
     36 H           6.4617  -10.7903   26.8385 H       1  UNL1        0.1234
     37 C           6.8356  -12.1702   28.2979 C.3     1  UNL1        0.1008
     38 C           5.6868  -12.7238   29.0877 C.3     1  UNL1        0.1542
     39 O           5.0545  -14.0222   28.6824 O.3     1  UNL1       -0.3805
     40 H           4.6227  -13.9163   27.8202 H       1  UNL1        0.2105
@<TRIPOS>BOND
     1     1     2    2
     2     2     3    1
     3     3     4   ar
     4     4     5    1
     5     4     6   ar
     6     6     7   ar
     7     7     8   ar
     8     8     9    1
     9     8    10   ar
    10    10    11    1
    11    11    12    2
    12    11    13    1
    13    13    14   ar
    14    14    21    1
    15    21    23    1
    16    23    24    1
    17    24    25    1
    18    25    27    1
    19    27    28    1
    20    28    29    1
    21    14    15   ar
    22    15    16   ar
    23    16    17   ar
    24    17    31    1
    25    31    33    1
    26    33    34    1
    27    34    35    1
    28    35    37    1
    29    37    38    1
    30    38    39    1
    31    17    18   ar
    32    18     2    1
    33    10     3   ar
    34    18    13   ar
    35     5    19    1
    36     9    20    1
    37    21    22    1
    38    25    26    1
    39    29    30    1
    40    31    32    1
    41    35    36    1
    42    39    40    1
@<TRIPOS>MOLECULE
*****
 40 42 0 0 0
SMALL
GASTEIGER

@<TRIPOS>ATOM
      1 O           6.4652   -4.3823   22.8305 O.2     1  UNL1       -0.2864
      2 C           5.4412   -3.3113   23.0643 C.2     1  UNL1        0.2000
      3 C           4.5954   -2.8211   21.9266 C.ar    1  UNL1        0.0786
      4 C           4.7737   -3.4018   20.5551 C.ar    1  UNL1        0.1370
      5 O           5.7976   -4.4727   20.3213 O.3     1  UNL1       -0.5054
      6 C           3.9279   -2.9116   19.4174 C.ar    1  UNL1        0.0398
      7 C           2.9040   -1.8407   19.6512 C.ar    1  UNL1        0.0398
      8 C           2.7257   -1.2600   21.0227 C.ar    1  UNL1        0.1370
      9 O           1.7018   -0.1891   21.2565 O.3     1  UNL1       -0.5054
     10 C           3.5715   -1.7502   22.1604 C.ar    1  UNL1        0.0786
     11 C           3.3933   -1.1695   23.5320 C.2     1  UNL1        0.2000
     12 O           2.3693   -0.0986   23.7658 O.2     1  UNL1       -0.2864
     13 C           4.2390   -1.6598   24.6696 C.ar    1  UNL1        0.0564
     14 C           4.0608   -1.0791   26.0412 C.ar    1  UNL1        0.0479
     15 C           4.9066   -1.5693   27.1789 C.ar    1  UNL1        0.0157
     16 C           5.9305   -2.6402   26.9451 C.ar    1  UNL1        0.0157
     17 C           6.1087   -3.2209   25.5736 C.ar    1  UNL1        0.0479
     18 C           5.2630   -2.7307   24.4358 C.ar    1  UNL1        0.0564
     19 H           6.3259   -4.7789   21.0320 H       1  UNL1        0.2922
     20 H           1.1735    0.1171   20.5458 H       1  UNL1        0.2922
     21 N           3.0369   -0.0082   26.2750 N.pl3   1  UNL1       -0.3315
     22 H           2.5534    0.3854   25.5130 H       1  UNL1        0.1469
     23 C           2.7495    0.4631   27.6697 C.3     1  UNL1        0.1044
     24 C           1.7686   -0.2818   28.5259 C.3     1  UNL1        0.0901
     25 N           0.2954   -0.0916   28.3176 N.3     1  UNL1       -0.2940
     26 H          -0.1584   -0.3143   29.2035 H       1  UNL1        0.1234
     27 C          -0.2345    1.2427   27.8830 C.3     1  UNL1        0.1008
     28 C          -0.4669    1.5194   26.4271 C.3     1  UNL1        0.1542
     29 O           0.0739    0.5807   25.3897 O.3     1  UNL1       -0.3805
     30 H           1.0435    0.6040   25.4066 H       1  UNL1        0.2105
     31 N           7.1327   -4.2918   25.3398 N.pl3   1  UNL1       -0.3315
     32 H           7.4277   -4.4992   24.4237 H       1  UNL1        0.1469
     33 C           7.7072   -5.0466   26.5017 C.3     1  UNL1        0.1044
     34 C           6.8951   -6.1090   27.1814 C.3     1  UNL1        0.0901
     35 N           6.4540   -5.9214   28.6027 N.3     1  UNL1       -0.2940
     36 H           5.8192   -6.6902   28.8178 H       1  UNL1        0.1234
     37 C           7.4713   -5.8787   29.7042 C.3     1  UNL1        0.1008
     38 C           7.0988   -5.3258   31.0480 C.3     1  UNL1        0.1542
     39 O           6.3769   -6.1887   32.0402 O.3     1  UNL1       -0.3805
     40 H           5.4932   -6.4010   31.7013 H       1  UNL1        0.2105
@<TRIPOS>BOND
     1     1     2    2
     2     2     3    1
     3     3     4   ar
     4     4     5    1
     5     4     6   ar
     6     6     7   ar
     7     7     8   ar
     8     8     9    1
     9     8    10   ar
    10    10    11    1
    11    11    12    2
    12    11    13    1
    13    13    14   ar
    14    14    21    1
    15    21    23    1
    16    23    24    1
    17    24    25    1
    18    25    27    1
    19    27    28    1
    20    28    29    1
    21    14    15   ar
    22    15    16   ar
    23    16    17   ar
    24    17    31    1
    25    31    33    1
    26    33    34    1
    27    34    35    1
    28    35    37    1
    29    37    38    1
    30    38    39    1
    31    17    18   ar
    32    18     2    1
    33    10     3   ar
    34    18    13   ar
    35     5    19    1
    36     9    20    1
    37    21    22    1
    38    25    26    1
    39    29    30    1
    40    31    32    1
    41    35    36    1
    42    39    40    1
@<TRIPOS>MOLECULE
*****
 40 42 0 0 0
SMALL
GASTEIGER

@<TRIPOS>ATOM
      1 O           2.6289   -1.2860   18.8697 O.2     1  UNL1       -0.2864
      2 C           2.7127   -1.0707   20.3518 C.2     1  UNL1        0.2000
      3 C           1.8546   -0.0301   21.0082 C.ar    1  UNL1        0.0786
      4 C           0.9127    0.7952   20.1825 C.ar    1  UNL1        0.1370
      5 O           0.8289    0.5799   18.7004 O.3     1  UNL1       -0.5054
      6 C           0.0547    1.8357   20.8390 C.ar    1  UNL1        0.0398
      7 C           0.1385    2.0510   22.3211 C.ar    1  UNL1        0.0398
      8 C           1.0804    1.2257   23.1467 C.ar    1  UNL1        0.1370
      9 O           1.1642    1.4410   24.6288 O.3     1  UNL1       -0.5054
     10 C           1.9384    0.1852   22.4903 C.ar    1  UNL1        0.0786
     11 C           2.8804   -0.6402   23.3160 C.2     1  UNL1        0.2000
     12 O           2.9642   -0.4249   24.7981 O.2     1  UNL1       -0.2864
     13 C           3.7384   -1.6807   22.6595 C.ar    1  UNL1        0.0564
     14 C           4.6803   -2.5061   23.4852 C.ar    1  UNL1        0.0479
     15 C           5.5384   -3.5466   22.8288 C.ar    1  UNL1        0.0157
     16 C           5.4546   -3.7619   21.3467 C.ar    1  UNL1        0.0157
     17 C           4.5127   -2.9366   20.5210 C.ar    1  UNL1        0.0479
     18 C           3.6546   -1.8960   21.1774 C.ar    1  UNL1        0.0564
     19 H           1.3649   -0.0701   18.2904 H       1  UNL1        0.2922
     20 H           0.6282    2.0910   25.0389 H       1  UNL1        0.2922
     21 N           4.7641   -2.2908   24.9673 N.pl3   1  UNL1       -0.3315
     22 H           3.9597   -2.3921   25.5257 H       1  UNL1        0.1469
     23 C           6.0736   -1.9211   25.5986 C.3     1  UNL1        0.1044
     24 C           6.3001   -0.5228   26.0921 C.3     1  UNL1        0.0901
     25 N           5.1440    0.2938   26.5886 N.3     1  UNL1       -0.2940
     26 H           4.3440    0.0596   26.0006 H       1  UNL1        0.1234
     27 C           4.6887    0.1617   28.0117 C.3     1  UNL1        0.1008
     28 C           3.7690   -0.9565   28.4042 C.3     1  UNL1        0.1542
     29 O           3.1243   -1.8034   27.3473 O.3     1  UNL1       -0.3805
     30 H           2.5090   -1.2612   26.8293 H       1  UNL1        0.2105
     31 N           4.4289   -3.1519   19.0389 N.pl3   1  UNL1       -0.3315
     32 H           3.5796   -3.4361   18.6300 H       1  UNL1        0.1469
     33 C           5.6390   -2.9342   18.1798 C.3     1  UNL1        0.1044
     34 C           6.4344   -1.6692   18.3113 C.3     1  UNL1        0.0901
     35 N           6.6420   -0.7862   17.1167 N.3     1  UNL1       -0.2940
     36 H           6.5163   -1.3726   16.2917 H       1  UNL1        0.1234
     37 C           5.7808    0.4263   16.9215 C.3     1  UNL1        0.1008
     38 C           5.1309    1.0827   18.1034 C.3     1  UNL1        0.1542
     39 O           3.6616    1.3839   18.0800 O.3     1  UNL1       -0.3805
     40 H           3.4795    2.0533   17.4020 H       1  UNL1        0.2105
@<TRIPOS>BOND
     1     1     2    2
     2     2     3    1
     3     3     4   ar
     4     4     5    1
     5     4     6   ar
     6     6     7   ar
     7     7     8   ar
     8     8     9    1
     9     8    10   ar
    10    10    11    1
    11    11    12    2
    12    11    13    1
    13    13    14   ar
    14    14    21    1
    15    21    23    1
    16    23    24    1
    17    24    25    1
    18    25    27    1
    19    27    28    1
    20    28    29    1
    21    14    15   ar
    22    15    16   ar
    23    16    17   ar
    24    17    31    1
    25    31    33    1
    26    33    34    1
    27    34    35    1
    28    35    37    1
    29    37    38    1
    30    38    39    1
    31    17    18   ar
    32    18     2    1
    33    10     3   ar
    34    18    13   ar
    35     5    19    1
    36     9    20    1
    37    21    22    1
    38    25    26    1
    39    29    30    1
    40    31    32    1
    41    35    36    1
    42    39    40    1
@<TRIPOS>MOLECULE
*****
 40 42 0 0 0
SMALL
GASTEIGER

@<TRIPOS>ATOM
      1 O           2.2892   -0.8974   19.4362 O.2     1  UNL1       -0.2864
      2 C           2.1261   -0.3654   20.8291 C.2     1  UNL1        0.2000
      3 C           1.1639    0.7538   21.0967 C.ar    1  UNL1        0.0786
      4 C           0.3647    1.3410   19.9713 C.ar    1  UNL1        0.1370
      5 O           0.5278    0.8090   18.5783 O.3     1  UNL1       -0.5054
      6 C          -0.5974    2.4601   20.2389 C.ar    1  UNL1        0.0398
      7 C          -0.7605    2.9921   21.6319 C.ar    1  UNL1        0.0398
      8 C           0.0386    2.4049   22.7573 C.ar    1  UNL1        0.1370
      9 O          -0.1245    2.9368   24.1503 O.3     1  UNL1       -0.5054
     10 C           1.0008    1.2857   22.4897 C.ar    1  UNL1        0.0786
     11 C           1.8000    0.6985   23.6151 C.2     1  UNL1        0.2000
     12 O           1.6369    1.2304   25.0081 O.2     1  UNL1       -0.2864
     13 C           2.7622   -0.4207   23.3475 C.ar    1  UNL1        0.0564
     14 C           3.5614   -1.0079   24.4730 C.ar    1  UNL1        0.0479
     15 C           4.5235   -2.1271   24.2054 C.ar    1  UNL1        0.0157
     16 C           4.6866   -2.6590   22.8124 C.ar    1  UNL1        0.0157
     17 C           3.8875   -2.0718   21.6870 C.ar    1  UNL1        0.0479
     18 C           2.9252   -0.9526   21.9545 C.ar    1  UNL1        0.0564
     19 H           1.1289    0.1099   18.4112 H       1  UNL1        0.2922
     20 H          -0.7255    3.6359   24.3175 H       1  UNL1        0.2922
     21 N           3.3983   -0.4760   25.8660 N.pl3   1  UNL1       -0.3315
     22 H           3.0513    0.4344   26.0078 H       1  UNL1        0.1469
     23 C           3.7638   -1.3310   27.0429 C.3     1  UNL1        0.1044
     24 C           3.2674   -0.9737   28.4125 C.3     1  UNL1        0.0901
     25 N           1.7952   -0.9716   28.6997 N.3     1  UNL1       -0.2940
     26 H           1.6880   -1.1917   29.6899 H       1  UNL1        0.1234
     27 C           0.9822    0.2619   28.4399 C.3     1  UNL1        0.1008
     28 C          -0.4853    0.2721   28.7505 C.3     1  UNL1        0.1542
     29 O          -1.1099   -0.8927   29.4598 O.3     1  UNL1       -0.3805
     30 H          -1.0699   -1.6771   28.8905 H       1  UNL1        0.2105
     31 N           4.0506   -2.6038   20.2940 N.pl3   1  UNL1       -0.3315
     32 H           3.2574   -2.8473   19.7641 H       1  UNL1        0.1469
     33 C           5.4221   -2.7647   19.7084 C.3     1  UNL1        0.1044
     34 C           5.6250   -2.6375   18.2276 C.3     1  UNL1        0.0901
     35 N           4.5443   -2.0485   17.3703 N.3     1  UNL1       -0.2940
     36 H           3.6643   -2.1924   17.8656 H       1  UNL1        0.1234
     37 C           4.5951   -0.5983   16.9904 C.3     1  UNL1        0.1008
     38 C           5.3112    0.3829   17.8704 C.3     1  UNL1        0.1542
     39 O           4.8726    0.5745   19.2920 O.3     1  UNL1       -0.3805
     40 H           3.9835    0.9621   19.3066 H       1  UNL1        0.2105
@<TRIPOS>BOND
     1     1     2    2
     2     2     3    1
     3     3     4   ar
     4     4     5    1
     5     4     6   ar
     6     6     7   ar
     7     7     8   ar
     8     8     9    1
     9     8    10   ar
    10    10    11    1
    11    11    12    2
    12    11    13    1
    13    13    14   ar
    14    14    21    1
    15    21    23    1
    16    23    24    1
    17    24    25    1
    18    25    27    1
    19    27    28    1
    20    28    29    1
    21    14    15   ar
    22    15    16   ar
    23    16    17   ar
    24    17    31    1
    25    31    33    1
    26    33    34    1
    27    34    35    1
    28    35    37    1
    29    37    38    1
    30    38    39    1
    31    17    18   ar
    32    18     2    1
    33    10     3   ar
    34    18    13   ar
    35     5    19    1
    36     9    20    1
    37    21    22    1
    38    25    26    1
    39    29    30    1
    40    31    32    1
    41    35    36    1
    42    39    40    1
@<TRIPOS>MOLECULE
*****
 40 42 0 0 0
SMALL
GASTEIGER

@<TRIPOS>ATOM
      1 O           3.4519   -1.8592   19.7732 O.2     1  UNL1       -0.2864
      2 C           3.5401   -1.6655   21.2580 C.2     1  UNL1        0.2000
      3 C           4.5538   -2.4314   22.0555 C.ar    1  UNL1        0.0786
      4 C           5.4793   -3.3910   21.3681 C.ar    1  UNL1        0.1370
      5 O           5.3911   -3.5848   19.8833 O.3     1  UNL1       -0.5054
      6 C           6.4930   -4.1568   22.1655 C.ar    1  UNL1        0.0398
      7 C           6.5811   -3.9631   23.6503 C.ar    1  UNL1        0.0398
      8 C           5.6557   -3.0034   24.3377 C.ar    1  UNL1        0.1370
      9 O           5.7438   -2.8097   25.8225 O.3     1  UNL1       -0.5054
     10 C           4.6420   -2.2376   23.5403 C.ar    1  UNL1        0.0786
     11 C           3.7164   -1.2779   24.2277 C.2     1  UNL1        0.2000
     12 O           3.8046   -1.0841   25.7125 O.2     1  UNL1       -0.2864
     13 C           2.7028   -0.5121   23.4303 C.ar    1  UNL1        0.0564
     14 C           1.7772    0.4476   24.1176 C.ar    1  UNL1        0.0479
     15 C           0.7636    1.2135   23.3202 C.ar    1  UNL1        0.0157
     16 C           0.6754    1.0197   21.8354 C.ar    1  UNL1        0.0157
     17 C           1.6009    0.0601   21.1480 C.ar    1  UNL1        0.0479
     18 C           2.6146   -0.7058   21.9454 C.ar    1  UNL1        0.0564
     19 H           4.7579   -3.1064   19.3851 H       1  UNL1        0.2922
     20 H           6.3770   -3.2881   26.3206 H       1  UNL1        0.2922
     21 N           1.8654    0.6414   25.6025 N.pl3   1  UNL1       -0.3315
     22 H           2.1083   -0.1149   26.1840 H       1  UNL1        0.1469
     23 C           1.5835    1.9875   26.2012 C.3     1  UNL1        0.1044
     24 C           0.6750    2.1047   27.3890 C.3     1  UNL1        0.0901
     25 N          -0.2933    1.0033   27.7042 N.3     1  UNL1       -0.2940
     26 H          -0.4847    0.5195   26.8268 H       1  UNL1        0.1234
     27 C           0.0694   -0.0496   28.7091 C.3     1  UNL1        0.1008
     28 C           1.5105   -0.3159   29.0294 C.3     1  UNL1        0.1542
     29 O           2.3479   -1.1353   28.0928 O.3     1  UNL1       -0.3805
     30 H           2.0148   -2.0461   28.0740 H       1  UNL1        0.2105
     31 N           1.5127   -0.1337   19.6632 N.pl3   1  UNL1       -0.3315
     32 H           1.3093   -1.0234   19.2941 H       1  UNL1        0.1469
     33 C           1.7345    1.0281   18.7407 C.3     1  UNL1        0.1044
     34 C           3.1259    1.3939   18.3163 C.3     1  UNL1        0.0901
     35 N           4.0538    0.3363   17.7963 N.3     1  UNL1       -0.2940
     36 H           3.9953    0.3679   16.7784 H       1  UNL1        0.1234
     37 C           5.5114    0.3786   18.1477 C.3     1  UNL1        0.1008
     38 C           6.4438   -0.6647   17.6071 C.3     1  UNL1        0.1542
     39 O           5.9963   -2.0931   17.5107 O.3     1  UNL1       -0.3805
     40 H           5.8545   -2.4484   18.4021 H       1  UNL1        0.2105
@<TRIPOS>BOND
     1     1     2    2
     2     2     3    1
     3     3     4   ar
     4     4     5    1
     5     4     6   ar
     6     6     7   ar
     7     7     8   ar
     8     8     9    1
     9     8    10   ar
    10    10    11    1
    11    11    12    2
    12    11    13    1
    13    13    14   ar
    14    14    21    1
    15    21    23    1
    16    23    24    1
    17    24    25    1
    18    25    27    1
    19    27    28    1
    20    28    29    1
    21    14    15   ar
    22    15    16   ar
    23    16    17   ar
    24    17    31    1
    25    31    33    1
    26    33    34    1
    27    34    35    1
    28    35    37    1
    29    37    38    1
    30    38    39    1
    31    17    18   ar
    32    18     2    1
    33    10     3   ar
    34    18    13   ar
    35     5    19    1
    36     9    20    1
    37    21    22    1
    38    25    26    1
    39    29    30    1
    40    31    32    1
    41    35    36    1
    42    39    40    1
@<TRIPOS>MOLECULE
*****
 40 42 0 0 0
SMALL
GASTEIGER

@<TRIPOS>ATOM
      1 O           2.4374    1.0150   25.2969 O.2     1  UNL1       -0.2864
      2 C           2.3963    0.4182   23.9213 C.2     1  UNL1        0.2000
      3 C           1.4647    0.9791   22.8880 C.ar    1  UNL1        0.0786
      4 C           0.5743    2.1366   23.2303 C.ar    1  UNL1        0.1370
      5 O           0.6154    2.7334   24.6059 O.3     1  UNL1       -0.5054
      6 C          -0.3572    2.6974   22.1970 C.ar    1  UNL1        0.0398
      7 C          -0.3983    2.1006   20.8214 C.ar    1  UNL1        0.0398
      8 C           0.4921    0.9431   20.4792 C.ar    1  UNL1        0.1370
      9 O           0.4510    0.3463   19.1036 O.3     1  UNL1       -0.5054
     10 C           1.4236    0.3823   21.5125 C.ar    1  UNL1        0.0786
     11 C           2.3141   -0.7753   21.1702 C.2     1  UNL1        0.2000
     12 O           2.2730   -1.3721   19.7946 O.2     1  UNL1       -0.2864
     13 C           3.2456   -1.3361   22.2035 C.ar    1  UNL1        0.0564
     14 C           4.1361   -2.4937   21.8612 C.ar    1  UNL1        0.0479
     15 C           5.0676   -3.0545   22.8945 C.ar    1  UNL1        0.0157
     16 C           5.1087   -2.4577   24.2701 C.ar    1  UNL1        0.0157
     17 C           4.2183   -1.3002   24.6124 C.ar    1  UNL1        0.0479
     18 C           3.2867   -0.7393   23.5791 C.ar    1  UNL1        0.0564
     19 H           1.1973    2.3831   25.2513 H       1  UNL1        0.2922
     20 H          -0.1309    0.6966   18.4581 H       1  UNL1        0.2922
     21 N           4.0950   -3.0905   20.4857 N.pl3   1  UNL1       -0.3315
     22 H           3.2332   -3.3531   20.0886 H       1  UNL1        0.1469
     23 C           5.3668   -3.2871   19.7151 C.3     1  UNL1        0.1044
     24 C           5.4699   -2.7985   18.3007 C.3     1  UNL1        0.0901
     25 N           4.2800   -2.1741   17.6343 N.3     1  UNL1       -0.2940
     26 H           3.5585   -2.0787   18.3490 H       1  UNL1        0.1234
     27 C           4.4095   -0.8361   16.9686 C.3     1  UNL1        0.1008
     28 C           4.3813    0.4173   17.7923 C.3     1  UNL1        0.1542
     29 O           3.0698    1.0561   18.1412 O.3     1  UNL1       -0.3805
     30 H           2.6444    1.3833   17.3332 H       1  UNL1        0.2105
     31 N           4.2594   -0.7034   25.9879 N.pl3   1  UNL1       -0.3315
     32 H           4.6031    0.2099   26.1182 H       1  UNL1        0.1469
     33 C           3.7770   -1.4982   27.1650 C.3     1  UNL1        0.1044
     34 C           2.9760   -0.8306   28.2433 C.3     1  UNL1        0.0901
     35 N           1.5635   -0.4041   27.9732 N.3     1  UNL1       -0.2940
     36 H           1.1318   -1.1466   27.4230 H       1  UNL1        0.1234
     37 C           0.6354   -0.1165   29.1160 C.3     1  UNL1        0.1008
     38 C           0.0670    1.2605   29.2923 C.3     1  UNL1        0.1542
     39 O          -0.0130    2.1944   28.1213 O.3     1  UNL1       -0.3805
     40 H           0.8830    2.4248   27.8296 H       1  UNL1        0.2105
@<TRIPOS>BOND
     1     1     2    2
     2     2     3    1
     3     3     4   ar
     4     4     5    1
     5     4     6   ar
     6     6     7   ar
     7     7     8   ar
     8     8     9    1
     9     8    10   ar
    10    10    11    1
    11    11    12    2
    12    11    13    1
    13    13    14   ar
    14    14    21    1
    15    21    23    1
    16    23    24    1
    17    24    25    1
    18    25    27    1
    19    27    28    1
    20    28    29    1
    21    14    15   ar
    22    15    16   ar
    23    16    17   ar
    24    17    31    1
    25    31    33    1
    26    33    34    1
    27    34    35    1
    28    35    37    1
    29    37    38    1
    30    38    39    1
    31    17    18   ar
    32    18     2    1
    33    10     3   ar
    34    18    13   ar
    35     5    19    1
    36     9    20    1
    37    21    22    1
    38    25    26    1
    39    29    30    1
    40    31    32    1
    41    35    36    1
    42    39    40    1
@<TRIPOS>MOLECULE
*****
 40 42 0 0 0
SMALL
GASTEIGER

@<TRIPOS>ATOM
      1 O           1.6924    2.9123   34.2987 O.2     1  UNL1       -0.2864
      2 C           2.3969    1.8393   33.5225 C.2     1  UNL1        0.2000
      3 C           1.9304    1.4832   32.1420 C.ar    1  UNL1        0.0786
      4 C           0.7595    2.2000   31.5378 C.ar    1  UNL1        0.1370
      5 O           0.0550    3.2730   32.3140 O.3     1  UNL1       -0.5054
      6 C           0.2930    1.8439   30.1574 C.ar    1  UNL1        0.0398
      7 C           0.9975    0.7709   29.3812 C.ar    1  UNL1        0.0398
      8 C           2.1684    0.0541   29.9854 C.ar    1  UNL1        0.1370
      9 O           2.8729   -1.0189   29.2092 O.3     1  UNL1       -0.5054
     10 C           2.6349    0.4102   31.3658 C.ar    1  UNL1        0.0786
     11 C           3.8058   -0.3066   31.9701 C.2     1  UNL1        0.2000
     12 O           4.5103   -1.3795   31.1939 O.2     1  UNL1       -0.2864
     13 C           4.2723    0.0496   33.3505 C.ar    1  UNL1        0.0564
     14 C           5.4433   -0.6673   33.9547 C.ar    1  UNL1        0.0479
     15 C           5.9097   -0.3111   35.3351 C.ar    1  UNL1        0.0157
     16 C           5.2052    0.7618   36.1113 C.ar    1  UNL1        0.0157
     17 C           4.0343    1.4786   35.5071 C.ar    1  UNL1        0.0479
     18 C           3.5678    1.1225   34.1267 C.ar    1  UNL1        0.0564
     19 H           0.3464    3.4954   33.1763 H       1  UNL1        0.2922
     20 H           2.5815   -1.2413   28.3469 H       1  UNL1        0.2922
     21 N           6.1477   -1.7402   33.1785 N.pl3   1  UNL1       -0.3315
     22 H           5.6317   -2.4746   32.7741 H       1  UNL1        0.1469
     23 C           7.6384   -1.6942   33.0185 C.3     1  UNL1        0.1044
     24 C           8.2898   -2.3850   31.8572 C.3     1  UNL1        0.0901
     25 N           8.8236   -3.7777   32.0162 N.3     1  UNL1       -0.2940
     26 H           8.6129   -4.0665   32.9715 H       1  UNL1        0.1234
     27 C           8.3382   -4.8744   31.1153 C.3     1  UNL1        0.1008
     28 C           7.1574   -5.7077   31.5171 C.3     1  UNL1        0.1542
     29 O           6.2143   -5.2122   32.5730 O.3     1  UNL1       -0.3805
     30 H           6.6773   -5.1656   33.4241 H       1  UNL1        0.2105
     31 N           3.3299    2.5516   36.2833 N.pl3   1  UNL1       -0.3315
     32 H           2.4382    2.8587   36.0008 H       1  UNL1        0.1469
     33 C           3.9840    3.1567   37.4900 C.3     1  UNL1        0.1044
     34 C           3.7520    2.5608   38.8469 C.3     1  UNL1        0.0901
     35 N           2.4469    2.7852   39.5513 N.3     1  UNL1       -0.2940
     36 H           2.2004    3.7647   39.4097 H       1  UNL1        0.1234
     37 C           1.2416    1.9763   39.1730 C.3     1  UNL1        0.1008
     38 C           1.0870    0.5755   39.6867 C.3     1  UNL1        0.1542
     39 O           2.2897   -0.1881   40.1564 O.3     1  UNL1       -0.3805
     40 H           2.8804   -0.3548   39.4053 H       1  UNL1        0.2105
@<TRIPOS>BOND
     1     1     2    2
     2     2     3    1
     3     3     4   ar
     4     4     5    1
     5     4     6   ar
     6     6     7   ar
     7     7     8   ar
     8     8     9    1
     9     8    10   ar
    10    10    11    1
    11    11    12    2
    12    11    13    1
    13    13    14   ar
    14    14    21    1
    15    21    23    1
    16    23    24    1
    17    24    25    1
    18    25    27    1
    19    27    28    1
    20    28    29    1
    21    14    15   ar
    22    15    16   ar
    23    16    17   ar
    24    17    31    1
    25    31    33    1
    26    33    34    1
    27    34    35    1
    28    35    37    1
    29    37    38    1
    30    38    39    1
    31    17    18   ar
    32    18     2    1
    33    10     3   ar
    34    18    13   ar
    35     5    19    1
    36     9    20    1
    37    21    22    1
    38    25    26    1
    39    29    30    1
    40    31    32    1
    41    35    36    1
    42    39    40    1
