@<TRIPOS>MOLECULE
*****
 34 37 0 0 0
SMALL
GASTEIGER

@<TRIPOS>ATOM
      1 O           4.7733   -1.7267   32.4760 O.2     1  UNL1       -0.2522
      2 C           6.2501   -1.8688   32.6971 C.2     1  UNL1        0.3077
      3 N           6.9385   -1.0255   33.7290 N.am    1  UNL1       -0.2668
      4 N           7.0385   -2.8543   31.8862 N.am    1  UNL1       -0.2633
      5 C           6.3500   -3.6976   30.8543 C.3     1  UNL1        0.0993
      6 C           7.1384   -4.6830   30.0435 C.3     1  UNL1        0.0436
      7 C           8.6152   -4.8251   30.2646 C.2     1  UNL1       -0.0408
      8 C           9.4036   -5.8105   29.4538 C.2     1  UNL1       -0.0083
      9 C           9.3036   -3.9818   31.2965 C.3     1  UNL1        0.0436
     10 C           8.5153   -2.9964   32.1073 C.3     1  UNL1        0.0993
     11 H           7.9078   -1.1188   33.8741 H       1  UNL1        0.1565
     12 C           6.1502   -0.0400   34.5398 C.ar    1  UNL1        0.0709
     13 C           5.3335   -0.5115   35.7063 C.ar    1  UNL1        0.0179
     14 C           4.5452    0.4739   36.5171 C.ar    1  UNL1        0.0220
     15 C           4.5736    1.9309   36.1614 C.ar    1  UNL1        0.0990
     16 N           5.3902    2.4023   34.9949 N.ar    1  UNL1       -0.2410
     17 C           6.1785    1.4169   34.1841 C.ar    1  UNL1        0.1135
     18 C           8.7151   -6.6538   28.4219 C.ar    1  UNL1        0.0024
     19 C           8.0189   -6.0025   27.2638 C.ar    1  UNL1        0.0002
     20 C           7.3305   -6.8458   26.2319 C.ar    1  UNL1        0.0031
     21 C           7.3383   -8.3405   26.3580 C.ar    1  UNL1        0.0376
     22 C           8.0345   -8.9918   27.5161 C.ar    1  UNL1        0.1472
     23 C           8.7230   -8.1485   28.5480 C.ar    1  UNL1        0.0375
     24 O           8.0423  -10.4865   27.6422 O.3     1  UNL1       -0.4361
     25 C           6.7687  -11.2207   27.9403 C.ar    1  UNL1        0.2297
     26 C           6.8022  -12.4813   28.7526 C.ar    1  UNL1        0.0581
     27 C           5.5286  -13.2155   29.0507 C.ar    1  UNL1        0.0102
     28 C           4.2215  -12.6891   28.5367 C.ar    1  UNL1        0.0907
     29 C           4.1880  -11.4285   27.7244 C.ar    1  UNL1        0.1059
     30 N           5.4615  -10.6943   27.4263 N.ar    1  UNL1       -0.2099
     31 C           2.9479  -13.4233   28.8348 C.3     1  UNL1        0.4200
     32 F           1.6743  -14.1575   29.1329 F       1  UNL1       -0.1658
     33 F           3.3325  -14.4894   27.8523 F       1  UNL1       -0.1658
     34 F           2.5632  -12.3572   29.8173 F       1  UNL1       -0.1658
@<TRIPOS>BOND
     1     1     2    2
     2     2     3   am
     3     3    12    1
     4    12    13   ar
     5    13    14   ar
     6    14    15   ar
     7    15    16   ar
     8    16    17   ar
     9     2     4   am
    10     4     5    1
    11     5     6    1
    12     6     7    1
    13     7     8    2
    14     8    18    1
    15    18    19   ar
    16    19    20   ar
    17    20    21   ar
    18    21    22   ar
    19    22    24    1
    20    24    25    1
    21    25    26   ar
    22    26    27   ar
    23    27    28   ar
    24    28    31    1
    25    31    32    1
    26    31    33    1
    27    31    34    1
    28    28    29   ar
    29    29    30   ar
    30    22    23   ar
    31     7     9    1
    32     9    10    1
    33    17    12   ar
    34    10     4    1
    35    23    18   ar
    36    30    25   ar
    37     3    11    1
@<TRIPOS>MOLECULE
*****
 34 37 0 0 0
SMALL
GASTEIGER

@<TRIPOS>ATOM
      1 O           2.7501    0.3461   26.5922 O.2     1  UNL1       -0.2522
      2 C           1.6346    0.9618   25.8007 C.2     1  UNL1        0.3077
      3 N           0.5559    1.7342   26.5005 N.am    1  UNL1       -0.2668
      4 N           1.5978    0.8050   24.3093 N.am    1  UNL1       -0.2633
      5 C           2.6765    0.0327   23.6095 C.3     1  UNL1        0.0993
      6 C           2.6397   -0.1240   22.1182 C.3     1  UNL1        0.0436
      7 C           1.5242    0.4916   21.3267 C.2     1  UNL1       -0.0408
      8 C           1.4874    0.3349   19.8353 C.2     1  UNL1       -0.0083
      9 C           0.4455    1.2640   22.0265 C.3     1  UNL1        0.0436
     10 C           0.4823    1.4207   23.5178 C.3     1  UNL1        0.0993
     11 H          -0.1763    2.1383   25.9810 H       1  UNL1        0.1565
     12 C           0.5926    1.8909   27.9919 C.ar    1  UNL1        0.0709
     13 C           1.2543    3.0899   28.6039 C.ar    1  UNL1        0.0179
     14 C           1.2911    3.2465   30.0952 C.ar    1  UNL1        0.0220
     15 C           0.6661    2.2043   30.9745 C.ar    1  UNL1        0.0990
     16 N           0.0044    1.0053   30.3625 N.ar    1  UNL1       -0.2410
     17 C          -0.0323    0.8486   28.8711 C.ar    1  UNL1        0.1135
     18 C           2.5661   -0.4375   19.1355 C.ar    1  UNL1        0.0024
     19 C           3.1821    0.1041   17.8797 C.ar    1  UNL1        0.0002
     20 C           4.2609   -0.6683   17.1799 C.ar    1  UNL1        0.0031
     21 C           4.7236   -1.9823   17.7360 C.ar    1  UNL1        0.0376
     22 C           4.1076   -2.5239   18.9919 C.ar    1  UNL1        0.1472
     23 C           3.0289   -1.7515   19.6916 C.ar    1  UNL1        0.0375
     24 O           4.5704   -3.8379   19.5480 O.3     1  UNL1       -0.4361
     25 C           5.3149   -3.8811   20.8495 C.ar    1  UNL1        0.2297
     26 C           4.6131   -3.5272   22.1271 C.ar    1  UNL1        0.0581
     27 C           5.3576   -3.5704   23.4285 C.ar    1  UNL1        0.0102
     28 C           6.8039   -3.9674   23.4524 C.ar    1  UNL1        0.0907
     29 C           7.5057   -4.3213   22.1748 C.ar    1  UNL1        0.1059
     30 N           6.7612   -4.2781   20.8733 N.ar    1  UNL1       -0.2099
     31 C           7.5485   -4.0106   24.7539 C.3     1  UNL1        0.4200
     32 F           8.2930   -4.0537   26.0553 F       1  UNL1       -0.1658
     33 F           8.6122   -3.1258   24.1746 F       1  UNL1       -0.1658
     34 F           6.4847   -4.8953   25.3331 F       1  UNL1       -0.1658
@<TRIPOS>BOND
     1     1     2    2
     2     2     3   am
     3     3    12    1
     4    12    13   ar
     5    13    14   ar
     6    14    15   ar
     7    15    16   ar
     8    16    17   ar
     9     2     4   am
    10     4     5    1
    11     5     6    1
    12     6     7    1
    13     7     8    2
    14     8    18    1
    15    18    19   ar
    16    19    20   ar
    17    20    21   ar
    18    21    22   ar
    19    22    24    1
    20    24    25    1
    21    25    26   ar
    22    26    27   ar
    23    27    28   ar
    24    28    31    1
    25    31    32    1
    26    31    33    1
    27    31    34    1
    28    28    29   ar
    29    29    30   ar
    30    22    23   ar
    31     7     9    1
    32     9    10    1
    33    17    12   ar
    34    10     4    1
    35    23    18   ar
    36    30    25   ar
    37     3    11    1
@<TRIPOS>MOLECULE
*****
 34 37 0 0 0
SMALL
GASTEIGER

@<TRIPOS>ATOM
      1 O           1.0549    1.9029   20.8416 O.2     1  UNL1       -0.2522
      2 C           1.3044    1.3392   22.2091 C.2     1  UNL1        0.3077
      3 N           2.4016    0.3382   22.4190 N.am    1  UNL1       -0.2668
      4 N           0.4566    1.7766   23.3667 N.am    1  UNL1       -0.2633
      5 C          -0.6406    2.7777   23.1569 C.3     1  UNL1        0.0993
      6 C          -1.4883    3.2150   24.3145 C.3     1  UNL1        0.0436
      7 C          -1.2388    2.6513   25.6819 C.2     1  UNL1       -0.0408
      8 C          -2.0866    3.0887   26.8396 C.2     1  UNL1       -0.0083
      9 C          -0.1416    1.6503   25.8918 C.3     1  UNL1        0.0436
     10 C           0.7061    1.2129   24.7342 C.3     1  UNL1        0.0993
     11 H           2.5653   -0.0318   23.3165 H       1  UNL1        0.1565
     12 C           3.2494   -0.0992   21.2614 C.ar    1  UNL1        0.0709
     13 C           2.8641   -1.3106   20.4651 C.ar    1  UNL1        0.0179
     14 C           3.7119   -1.7479   19.3076 C.ar    1  UNL1        0.0220
     15 C           4.9449   -0.9738   18.9463 C.ar    1  UNL1        0.0990
     16 N           5.3301    0.2376   19.7425 N.ar    1  UNL1       -0.2410
     17 C           4.4823    0.6749   20.9001 C.ar    1  UNL1        0.1135
     18 C          -3.1838    4.0897   26.6297 C.ar    1  UNL1        0.0024
     19 C          -3.1548    5.3988   27.3615 C.ar    1  UNL1        0.0002
     20 C          -4.2519    6.3998   27.1516 C.ar    1  UNL1        0.0031
     21 C          -5.3782    6.0918   26.2099 C.ar    1  UNL1        0.0376
     22 C          -5.4072    4.7828   25.4781 C.ar    1  UNL1        0.1472
     23 C          -4.3099    3.7817   25.6880 C.ar    1  UNL1        0.0375
     24 O          -6.5333    4.4747   24.5363 O.3     1  UNL1       -0.4361
     25 C          -6.2508    4.2318   23.0833 C.ar    1  UNL1        0.2297
     26 C          -5.1237    3.3283   22.6793 C.ar    1  UNL1        0.0581
     27 C          -4.8411    3.0854   21.2263 C.ar    1  UNL1        0.0102
     28 C          -5.6858    3.7459   20.1774 C.ar    1  UNL1        0.0907
     29 C          -6.8129    4.6493   20.5815 C.ar    1  UNL1        0.1059
     30 N          -7.0955    4.8923   22.0344 N.ar    1  UNL1       -0.2099
     31 C          -5.4033    3.5029   18.7244 C.3     1  UNL1        0.4200
     32 F          -5.1208    3.2600   17.2714 F       1  UNL1       -0.1658
     33 F          -6.7064    2.7717   18.5933 F       1  UNL1       -0.1658
     34 F          -4.1002    4.2341   18.8554 F       1  UNL1       -0.1658
@<TRIPOS>BOND
     1     1     2    2
     2     2     3   am
     3     3    12    1
     4    12    13   ar
     5    13    14   ar
     6    14    15   ar
     7    15    16   ar
     8    16    17   ar
     9     2     4   am
    10     4     5    1
    11     5     6    1
    12     6     7    1
    13     7     8    2
    14     8    18    1
    15    18    19   ar
    16    19    20   ar
    17    20    21   ar
    18    21    22   ar
    19    22    24    1
    20    24    25    1
    21    25    26   ar
    22    26    27   ar
    23    27    28   ar
    24    28    31    1
    25    31    32    1
    26    31    33    1
    27    31    34    1
    28    28    29   ar
    29    29    30   ar
    30    22    23   ar
    31     7     9    1
    32     9    10    1
    33    17    12   ar
    34    10     4    1
    35    23    18   ar
    36    30    25   ar
    37     3    11    1
@<TRIPOS>MOLECULE
*****
 34 37 0 0 0
SMALL
GASTEIGER

@<TRIPOS>ATOM
      1 O           2.8608    1.1120   27.4398 O.2     1  UNL1       -0.2522
      2 C           2.4430    0.9036   28.8653 C.2     1  UNL1        0.3077
      3 N           1.2032    1.5665   29.3880 N.am    1  UNL1       -0.2668
      4 N           3.2652    0.0323   29.7681 N.am    1  UNL1       -0.2633
      5 C           4.5050   -0.6306   29.2453 C.3     1  UNL1        0.0993
      6 C           5.3271   -1.5019   30.1481 C.3     1  UNL1        0.0436
      7 C           4.9093   -1.7103   31.5736 C.2     1  UNL1       -0.0408
      8 C           5.7315   -2.5816   32.4763 C.2     1  UNL1       -0.0083
      9 C           3.6695   -1.0474   32.0963 C.3     1  UNL1        0.0436
     10 C           2.8474   -0.1761   31.1936 C.3     1  UNL1        0.0993
     11 H           0.9290    1.4297   30.3236 H       1  UNL1        0.1565
     12 C           0.3810    2.4378   28.4853 C.ar    1  UNL1        0.0709
     13 C          -0.4900    1.8174   27.4335 C.ar    1  UNL1        0.0179
     14 C          -1.3121    2.6887   26.5308 C.ar    1  UNL1        0.0220
     15 C          -1.2632    4.1805   26.6799 C.ar    1  UNL1        0.0990
     16 N          -0.3921    4.8009   27.7317 N.ar    1  UNL1       -0.2410
     17 C           0.4300    3.9296   28.6344 C.ar    1  UNL1        0.1135
     18 C           6.9714   -3.2445   31.9536 C.ar    1  UNL1        0.0024
     19 C           8.2956   -2.5479   32.0591 C.ar    1  UNL1        0.0002
     20 C           9.5355   -3.2108   31.5363 C.ar    1  UNL1        0.0031
     21 C           9.4511   -4.5703   30.9080 C.ar    1  UNL1        0.0376
     22 C           8.1268   -5.2669   30.8025 C.ar    1  UNL1        0.1472
     23 C           6.8869   -4.6039   31.3253 C.ar    1  UNL1        0.0375
     24 O           8.0424   -6.6263   30.1743 O.3     1  UNL1       -0.4361
     25 C           8.1502   -6.7724   28.6852 C.ar    1  UNL1        0.2297
     26 C           8.5173   -8.0978   28.0863 C.ar    1  UNL1        0.0581
     27 C           8.6250   -8.2439   26.5974 C.ar    1  UNL1        0.0102
     28 C           8.3658   -7.0647   25.7074 C.ar    1  UNL1        0.0907
     29 C           7.9987   -5.7394   26.3063 C.ar    1  UNL1        0.1059
     30 N           7.8909   -5.5932   27.7952 N.ar    1  UNL1       -0.2099
     31 C           8.4736   -7.2108   24.2183 C.3     1  UNL1        0.4200
     32 F           8.5814   -7.3570   22.7294 F       1  UNL1       -0.1658
     33 F           9.4280   -8.3537   24.3996 F       1  UNL1       -0.1658
     34 F           7.5191   -6.0680   24.0371 F       1  UNL1       -0.1658
@<TRIPOS>BOND
     1     1     2    2
     2     2     3   am
     3     3    12    1
     4    12    13   ar
     5    13    14   ar
     6    14    15   ar
     7    15    16   ar
     8    16    17   ar
     9     2     4   am
    10     4     5    1
    11     5     6    1
    12     6     7    1
    13     7     8    2
    14     8    18    1
    15    18    19   ar
    16    19    20   ar
    17    20    21   ar
    18    21    22   ar
    19    22    24    1
    20    24    25    1
    21    25    26   ar
    22    26    27   ar
    23    27    28   ar
    24    28    31    1
    25    31    32    1
    26    31    33    1
    27    31    34    1
    28    28    29   ar
    29    29    30   ar
    30    22    23   ar
    31     7     9    1
    32     9    10    1
    33    17    12   ar
    34    10     4    1
    35    23    18   ar
    36    30    25   ar
    37     3    11    1
@<TRIPOS>MOLECULE
*****
 34 37 0 0 0
SMALL
GASTEIGER

@<TRIPOS>ATOM
      1 O           2.5651    4.1690   30.5641 O.2     1  UNL1       -0.2522
      2 C           1.5378    3.0845   30.4278 C.2     1  UNL1        0.3077
      3 N           0.8844    2.5123   31.6508 N.am    1  UNL1       -0.2668
      4 N           1.1638    2.5723   29.0684 N.am    1  UNL1       -0.2633
      5 C           1.8171    3.1445   27.8455 C.3     1  UNL1        0.0993
      6 C           1.4431    2.6323   26.4862 C.3     1  UNL1        0.0436
      7 C           0.4158    1.5479   26.3498 C.2     1  UNL1       -0.0408
      8 C           0.0418    1.0357   24.9904 C.2     1  UNL1       -0.0083
      9 C          -0.2375    0.9757   27.5728 C.3     1  UNL1        0.0436
     10 C           0.1365    1.4879   28.9321 C.3     1  UNL1        0.0993
     11 H           0.2102    1.8006   31.5613 H       1  UNL1        0.1565
     12 C           1.2584    3.0245   33.0101 C.ar    1  UNL1        0.0709
     13 C           0.8097    4.3873   33.4477 C.ar    1  UNL1        0.0179
     14 C           1.1837    4.8994   34.8070 C.ar    1  UNL1        0.0220
     15 C           2.0064    4.0488   35.7288 C.ar    1  UNL1        0.0990
     16 N           2.4552    2.6861   35.2912 N.ar    1  UNL1       -0.2410
     17 C           2.0812    2.1739   33.9319 C.ar    1  UNL1        0.1135
     18 C           0.6951    1.6079   23.7675 C.ar    1  UNL1        0.0024
     19 C           0.0033    2.6809   22.9801 C.ar    1  UNL1        0.0002
     20 C           0.6567    3.2532   21.7571 C.ar    1  UNL1        0.0031
     21 C           2.0019    2.7524   21.3215 C.ar    1  UNL1        0.0376
     22 C           2.6937    1.6793   22.1089 C.ar    1  UNL1        0.1472
     23 C           2.0403    1.1071   23.3319 C.ar    1  UNL1        0.0375
     24 O           4.0388    1.1785   21.6733 O.3     1  UNL1       -0.4361
     25 C           4.1600   -0.1561   20.9992 C.ar    1  UNL1        0.2297
     26 C           2.9484   -0.8064   20.3999 C.ar    1  UNL1        0.0581
     27 C           3.0696   -2.1408   19.7258 C.ar    1  UNL1        0.0102
     28 C           4.4023   -2.8250   19.6511 C.ar    1  UNL1        0.0907
     29 C           5.6139   -2.1747   20.2504 C.ar    1  UNL1        0.1059
     30 N           5.4927   -0.8402   20.9245 N.ar    1  UNL1       -0.2099
     31 C           4.5235   -4.1596   18.9769 C.3     1  UNL1        0.4200
     32 F           4.6447   -5.4940   18.3028 F       1  UNL1       -0.1658
     33 F           5.4565   -3.5636   17.9649 F       1  UNL1       -0.1658
     34 F           3.5905   -4.7556   19.9890 F       1  UNL1       -0.1658
@<TRIPOS>BOND
     1     1     2    2
     2     2     3   am
     3     3    12    1
     4    12    13   ar
     5    13    14   ar
     6    14    15   ar
     7    15    16   ar
     8    16    17   ar
     9     2     4   am
    10     4     5    1
    11     5     6    1
    12     6     7    1
    13     7     8    2
    14     8    18    1
    15    18    19   ar
    16    19    20   ar
    17    20    21   ar
    18    21    22   ar
    19    22    24    1
    20    24    25    1
    21    25    26   ar
    22    26    27   ar
    23    27    28   ar
    24    28    31    1
    25    31    32    1
    26    31    33    1
    27    31    34    1
    28    28    29   ar
    29    29    30   ar
    30    22    23   ar
    31     7     9    1
    32     9    10    1
    33    17    12   ar
    34    10     4    1
    35    23    18   ar
    36    30    25   ar
    37     3    11    1
@<TRIPOS>MOLECULE
*****
 34 37 0 0 0
SMALL
GASTEIGER

@<TRIPOS>ATOM
      1 O           2.9134    3.3725   35.2806 O.2     1  UNL1       -0.2522
      2 C           3.5550    2.0588   34.9450 C.2     1  UNL1        0.3077
      3 N           4.4950    1.4127   35.9190 N.am    1  UNL1       -0.2668
      4 N           3.2565    1.3914   33.6352 N.am    1  UNL1       -0.2633
      5 C           2.3165    2.0376   32.6611 C.3     1  UNL1        0.0993
      6 C           2.0181    1.3701   31.3514 C.3     1  UNL1        0.0436
      7 C           2.6597    0.0564   31.0158 C.2     1  UNL1       -0.0408
      8 C           2.3612   -0.6110   29.7060 C.2     1  UNL1       -0.0083
      9 C           3.5997   -0.5898   31.9898 C.3     1  UNL1        0.0436
     10 C           3.8981    0.0777   33.2995 C.3     1  UNL1        0.0993
     11 H           4.9161    0.5504   35.6987 H       1  UNL1        0.1565
     12 C           4.7934    2.0801   37.2288 C.ar    1  UNL1        0.0709
     13 C           5.6230    3.3294   37.2621 C.ar    1  UNL1        0.0179
     14 C           5.9214    3.9968   38.5719 C.ar    1  UNL1        0.0220
     15 C           5.3903    3.4149   39.8483 C.ar    1  UNL1        0.0990
     16 N           4.5607    2.1657   39.8150 N.ar    1  UNL1       -0.2410
     17 C           4.2623    1.4983   38.5053 C.ar    1  UNL1        0.1135
     18 C           1.4212    0.0352   28.7319 C.ar    1  UNL1        0.0024
     19 C          -0.0544    0.0357   29.0013 C.ar    1  UNL1        0.0002
     20 C          -0.9944    0.6819   28.0273 C.ar    1  UNL1        0.0031
     21 C          -0.4587    1.3276   26.7838 C.ar    1  UNL1        0.0376
     22 C           1.0169    1.3271   26.5144 C.ar    1  UNL1        0.1472
     23 C           1.9569    0.6808   27.4885 C.ar    1  UNL1        0.0375
     24 O           1.5525    1.9727   25.2709 O.3     1  UNL1       -0.4361
     25 C           1.8320    1.1406   24.0545 C.ar    1  UNL1        0.2297
     26 C           2.8500    0.0407   24.1159 C.ar    1  UNL1        0.0581
     27 C           3.1295   -0.7913   22.8996 C.ar    1  UNL1        0.0102
     28 C           2.3910   -0.5235   21.6218 C.ar    1  UNL1        0.0907
     29 C           1.3730    0.5764   21.5604 C.ar    1  UNL1        0.1059
     30 N           1.0934    1.4085   22.7767 N.ar    1  UNL1       -0.2099
     31 C           2.6705   -1.3556   20.4054 C.3     1  UNL1        0.4200
     32 F           2.9500   -2.1876   19.1891 F       1  UNL1       -0.1658
     33 F           4.1224   -1.4124   20.7779 F       1  UNL1       -0.1658
     34 F           1.2186   -1.2987   20.0329 F       1  UNL1       -0.1658
@<TRIPOS>BOND
     1     1     2    2
     2     2     3   am
     3     3    12    1
     4    12    13   ar
     5    13    14   ar
     6    14    15   ar
     7    15    16   ar
     8    16    17   ar
     9     2     4   am
    10     4     5    1
    11     5     6    1
    12     6     7    1
    13     7     8    2
    14     8    18    1
    15    18    19   ar
    16    19    20   ar
    17    20    21   ar
    18    21    22   ar
    19    22    24    1
    20    24    25    1
    21    25    26   ar
    22    26    27   ar
    23    27    28   ar
    24    28    31    1
    25    31    32    1
    26    31    33    1
    27    31    34    1
    28    28    29   ar
    29    29    30   ar
    30    22    23   ar
    31     7     9    1
    32     9    10    1
    33    17    12   ar
    34    10     4    1
    35    23    18   ar
    36    30    25   ar
    37     3    11    1
@<TRIPOS>MOLECULE
*****
 34 37 0 0 0
SMALL
GASTEIGER

@<TRIPOS>ATOM
      1 O           3.3231   -1.6168   27.6616 O.2     1  UNL1       -0.2522
      2 C           3.3823   -0.1379   27.9050 C.2     1  UNL1        0.3077
      3 N           3.8700    0.3864   29.2230 N.am    1  UNL1       -0.2668
      4 N           2.9538    0.8168   26.8303 N.am    1  UNL1       -0.2633
      5 C           2.4661    0.2926   25.5122 C.3     1  UNL1        0.0993
      6 C           2.0376    1.2473   24.4376 C.3     1  UNL1        0.0436
      7 C           2.0969    2.7262   24.6809 C.2     1  UNL1       -0.0408
      8 C           1.6683    3.6809   23.6062 C.2     1  UNL1       -0.0083
      9 C           2.5845    3.2505   25.9990 C.3     1  UNL1        0.0436
     10 C           3.0130    2.2958   27.0736 C.3     1  UNL1        0.0993
     11 H           3.9089    1.3571   29.3828 H       1  UNL1        0.1565
     12 C           4.2985   -0.5683   30.2978 C.ar    1  UNL1        0.0709
     13 C           5.6419   -1.2311   30.2202 C.ar    1  UNL1        0.0179
     14 C           6.0703   -2.1857   31.2949 C.ar    1  UNL1        0.0220
     15 C           5.1554   -2.4776   32.4472 C.ar    1  UNL1        0.0990
     16 N           3.8120   -1.8148   32.5248 N.ar    1  UNL1       -0.2410
     17 C           3.3836   -0.8602   31.4501 C.ar    1  UNL1        0.1135
     18 C           1.1807    3.1566   22.2881 C.ar    1  UNL1        0.0024
     19 C          -0.2912    3.0832   22.0084 C.ar    1  UNL1        0.0002
     20 C          -0.7789    2.5590   20.6904 C.ar    1  UNL1        0.0031
     21 C           0.2053    2.1081   19.6520 C.ar    1  UNL1        0.0376
     22 C           1.6772    2.1815   19.9317 C.ar    1  UNL1        0.1472
     23 C           2.1648    2.7058   21.2499 C.ar    1  UNL1        0.0375
     24 O           2.6613    1.7307   18.8934 O.3     1  UNL1       -0.4361
     25 C           3.0829    0.2923   18.8341 C.ar    1  UNL1        0.2297
     26 C           2.7885   -0.6237   19.9848 C.ar    1  UNL1        0.0581
     27 C           3.2100   -2.0620   19.9255 C.ar    1  UNL1        0.0102
     28 C           3.9260   -2.5843   18.7154 C.ar    1  UNL1        0.0907
     29 C           4.2204   -1.6684   17.5646 C.ar    1  UNL1        0.1059
     30 N           3.7989   -0.2301   17.6239 N.ar    1  UNL1       -0.2099
     31 C           4.3475   -4.0227   18.6560 C.3     1  UNL1        0.4200
     32 F           4.7691   -5.4609   18.5966 F       1  UNL1       -0.1658
     33 F           5.7821   -3.5978   18.5496 F       1  UNL1       -0.1658
     34 F           2.9130   -4.4476   18.7624 F       1  UNL1       -0.1658
@<TRIPOS>BOND
     1     1     2    2
     2     2     3   am
     3     3    12    1
     4    12    13   ar
     5    13    14   ar
     6    14    15   ar
     7    15    16   ar
     8    16    17   ar
     9     2     4   am
    10     4     5    1
    11     5     6    1
    12     6     7    1
    13     7     8    2
    14     8    18    1
    15    18    19   ar
    16    19    20   ar
    17    20    21   ar
    18    21    22   ar
    19    22    24    1
    20    24    25    1
    21    25    26   ar
    22    26    27   ar
    23    27    28   ar
    24    28    31    1
    25    31    32    1
    26    31    33    1
    27    31    34    1
    28    28    29   ar
    29    29    30   ar
    30    22    23   ar
    31     7     9    1
    32     9    10    1
    33    17    12   ar
    34    10     4    1
    35    23    18   ar
    36    30    25   ar
    37     3    11    1
@<TRIPOS>MOLECULE
*****
 34 37 0 0 0
SMALL
GASTEIGER

@<TRIPOS>ATOM
      1 O           2.1464   -0.2410   27.5724 O.2     1  UNL1       -0.2522
      2 C           1.6687    1.0413   28.1870 C.2     1  UNL1        0.3077
      3 N           2.1992    1.4771   29.5206 N.am    1  UNL1       -0.2668
      4 N           0.6604    1.8876   27.4678 N.am    1  UNL1       -0.2633
      5 C           0.1299    1.4518   26.1343 C.3     1  UNL1        0.0993
      6 C          -0.8783    2.2982   25.4152 C.3     1  UNL1        0.0436
      7 C          -1.3560    3.5804   26.0298 C.2     1  UNL1       -0.0408
      8 C          -2.3643    4.4268   25.3106 C.2     1  UNL1       -0.0083
      9 C          -0.8255    4.0163   27.3634 C.3     1  UNL1        0.0436
     10 C           0.1827    3.1699   28.0824 C.3     1  UNL1        0.0993
     11 H           1.8857    2.3187   29.9239 H       1  UNL1        0.1565
     12 C           3.2075    0.6307   30.2397 C.ar    1  UNL1        0.0709
     13 C           4.6709    0.9320   30.1069 C.ar    1  UNL1        0.0179
     14 C           5.6791    0.0856   30.8260 C.ar    1  UNL1        0.0220
     15 C           5.2239   -1.0620   31.6779 C.ar    1  UNL1        0.0990
     16 N           3.7605   -1.3633   31.8107 N.ar    1  UNL1       -0.2410
     17 C           2.7523   -0.5169   31.0916 C.ar    1  UNL1        0.1135
     18 C          -2.8949    3.9909   23.9771 C.ar    1  UNL1        0.0024
     19 C          -4.2892    3.4494   23.8652 C.ar    1  UNL1        0.0002
     20 C          -4.8198    3.0135   22.5316 C.ar    1  UNL1        0.0031
     21 C          -3.9559    3.1192   21.3098 C.ar    1  UNL1        0.0376
     22 C          -2.5616    3.6607   21.4217 C.ar    1  UNL1        0.1472
     23 C          -2.0310    4.0966   22.7554 C.ar    1  UNL1        0.0375
     24 O          -1.6977    3.7663   20.2000 O.3     1  UNL1       -0.4361
     25 C          -0.6837    2.7013   19.9040 C.ar    1  UNL1        0.2297
     26 C           0.2799    2.8781   18.7681 C.ar    1  UNL1        0.0581
     27 C           1.2939    1.8132   18.4721 C.ar    1  UNL1        0.0102
     28 C           1.3443    0.5714   19.3120 C.ar    1  UNL1        0.0907
     29 C           0.3807    0.3946   20.4478 C.ar    1  UNL1        0.1059
     30 N          -0.6333    1.4596   20.7439 N.ar    1  UNL1       -0.2099
     31 C           2.3583   -0.4936   19.0160 C.3     1  UNL1        0.4200
     32 F           3.3723   -1.5585   18.7200 F       1  UNL1       -0.1658
     33 F           2.6962    0.1876   17.7230 F       1  UNL1       -0.1658
     34 F           2.0204   -1.1747   20.3089 F       1  UNL1       -0.1658
@<TRIPOS>BOND
     1     1     2    2
     2     2     3   am
     3     3    12    1
     4    12    13   ar
     5    13    14   ar
     6    14    15   ar
     7    15    16   ar
     8    16    17   ar
     9     2     4   am
    10     4     5    1
    11     5     6    1
    12     6     7    1
    13     7     8    2
    14     8    18    1
    15    18    19   ar
    16    19    20   ar
    17    20    21   ar
    18    21    22   ar
    19    22    24    1
    20    24    25    1
    21    25    26   ar
    22    26    27   ar
    23    27    28   ar
    24    28    31    1
    25    31    32    1
    26    31    33    1
    27    31    34    1
    28    28    29   ar
    29    29    30   ar
    30    22    23   ar
    31     7     9    1
    32     9    10    1
    33    17    12   ar
    34    10     4    1
    35    23    18   ar
    36    30    25   ar
    37     3    11    1
@<TRIPOS>MOLECULE
*****
 34 37 0 0 0
SMALL
GASTEIGER

@<TRIPOS>ATOM
      1 O           3.4116    1.0766   27.7246 O.2     1  UNL1       -0.2522
      2 C           1.9397    1.3496   27.8206 C.2     1  UNL1        0.3077
      3 N           1.2315    1.1907   29.1332 N.am    1  UNL1       -0.2668
      4 N           1.1762    1.7815   26.6038 N.am    1  UNL1       -0.2633
      5 C           1.8845    1.9404   25.2911 C.3     1  UNL1        0.0993
      6 C           1.1209    2.3723   24.0744 C.3     1  UNL1        0.0436
      7 C          -0.3509    2.6453   24.1704 C.2     1  UNL1       -0.0408
      8 C          -1.1144    3.0773   22.9536 C.2     1  UNL1       -0.0083
      9 C          -1.0592    2.4864   25.4830 C.3     1  UNL1        0.0436
     10 C          -0.2956    2.0545   26.6997 C.3     1  UNL1        0.0993
     11 H           0.2655    1.3698   29.1961 H       1  UNL1        0.1565
     12 C           1.9950    0.7587   30.3500 C.ar    1  UNL1        0.0709
     13 C           2.2746    1.7416   31.4480 C.ar    1  UNL1        0.0179
     14 C           3.0381    1.3097   32.6647 C.ar    1  UNL1        0.0220
     15 C           3.5220   -0.1052   32.7834 C.ar    1  UNL1        0.0990
     16 N           3.2425   -1.0880   31.6854 N.ar    1  UNL1       -0.2410
     17 C           2.4790   -0.6561   30.4686 C.ar    1  UNL1        0.1135
     18 C          -0.4062    3.2362   21.6410 C.ar    1  UNL1        0.0024
     19 C           0.1270    4.5779   21.2340 C.ar    1  UNL1        0.0002
     20 C           0.8352    4.7368   19.9214 C.ar    1  UNL1        0.0031
     21 C           1.0104    3.5540   19.0156 C.ar    1  UNL1        0.0376
     22 C           0.4773    2.2123   19.4226 C.ar    1  UNL1        0.1472
     23 C          -0.2310    2.0534   20.7353 C.ar    1  UNL1        0.0375
     24 O           0.6525    1.0295   18.5169 O.3     1  UNL1       -0.4361
     25 C           1.7987    0.0854   18.7293 C.ar    1  UNL1        0.2297
     26 C           1.8368   -0.7853   19.9501 C.ar    1  UNL1        0.0581
     27 C           2.9829   -1.7293   20.1625 C.ar    1  UNL1        0.0102
     28 C           4.0910   -1.8026   19.1542 C.ar    1  UNL1        0.0907
     29 C           4.0529   -0.9319   17.9334 C.ar    1  UNL1        0.1059
     30 N           2.9067    0.0122   17.7209 N.ar    1  UNL1       -0.2099
     31 C           5.2372   -2.7467   19.3666 C.3     1  UNL1        0.4200
     32 F           6.3833   -3.6907   19.5789 F       1  UNL1       -0.1658
     33 F           4.9494   -3.3934   18.0441 F       1  UNL1       -0.1658
     34 F           5.5249   -2.0999   20.6890 F       1  UNL1       -0.1658
@<TRIPOS>BOND
     1     1     2    2
     2     2     3   am
     3     3    12    1
     4    12    13   ar
     5    13    14   ar
     6    14    15   ar
     7    15    16   ar
     8    16    17   ar
     9     2     4   am
    10     4     5    1
    11     5     6    1
    12     6     7    1
    13     7     8    2
    14     8    18    1
    15    18    19   ar
    16    19    20   ar
    17    20    21   ar
    18    21    22   ar
    19    22    24    1
    20    24    25    1
    21    25    26   ar
    22    26    27   ar
    23    27    28   ar
    24    28    31    1
    25    31    32    1
    26    31    33    1
    27    31    34    1
    28    28    29   ar
    29    29    30   ar
    30    22    23   ar
    31     7     9    1
    32     9    10    1
    33    17    12   ar
    34    10     4    1
    35    23    18   ar
    36    30    25   ar
    37     3    11    1
