@<TRIPOS>MOLECULE
*****
 35 39 0 0 0
SMALL
GASTEIGER

@<TRIPOS>ATOM
      1 N           8.7341   -3.9122   21.1602 N.pl3   1  UNL1       -0.3058
      2 H           9.6774   -3.8306   20.8905 H       1  UNL1        0.1495
      3 C           8.3777   -4.6064   22.4413 C.ar    1  UNL1        0.1981
      4 N           8.4448   -6.0838   22.6917 N.ar    1  UNL1       -0.2138
      5 C           8.0002   -6.3356   24.1020 C.ar    1  UNL1        0.0999
      6 C           7.8625   -7.5977   24.9008 C.ar    1  UNL1        0.0207
      7 C           7.3830   -7.5380   26.3208 C.ar    1  UNL1        0.0016
      8 C           7.0411   -6.2161   26.9420 C.ar    1  UNL1        0.0016
      9 C           7.1788   -4.9540   26.1432 C.ar    1  UNL1        0.0188
     10 C           7.6584   -5.0138   24.7232 C.ar    1  UNL1        0.0801
     11 N           7.8917   -3.9451   23.6968 N.ar    1  UNL1       -0.2956
     12 C           7.6767   -2.4734   23.8918 C.3     1  UNL1        0.1354
     13 C           6.3121   -1.8823   23.6958 C.ar    1  UNL1        0.0006
     14 C           5.2341   -2.1319   24.7085 C.ar    1  UNL1       -0.0001
     15 C           3.8695   -1.5408   24.5125 C.ar    1  UNL1        0.0294
     16 C           3.5829   -0.7001   23.3038 C.ar    1  UNL1        0.1401
     17 F           2.2183   -0.1090   23.1078 F       1  UNL1       -0.2042
     18 C           4.6609   -0.4505   22.2911 C.ar    1  UNL1        0.0294
     19 C           6.0255   -1.0416   22.4870 C.ar    1  UNL1       -0.0001
     20 N           5.4916   -2.2028   18.5498 N.3     1  UNL1       -0.2723
     21 C           5.1611   -3.2607   19.5606 C.3     1  UNL1        0.0738
     22 C           6.2419   -3.8305   20.4308 C.3     1  UNL1        0.0369
     23 C           7.6533   -3.3425   20.2901 C.3     1  UNL1        0.0745
     24 C           7.9838   -2.2846   19.2793 C.3     1  UNL1        0.0369
     25 C           6.9030   -1.7148   18.4092 C.3     1  UNL1        0.0738
     26 C           4.4108   -1.6330   17.6797 C.3     1  UNL1        0.0768
     27 C           4.0765   -0.1728   17.7581 C.3     1  UNL1        0.0437
     28 C           0.5008    1.1927   20.1245 C.ar    1  UNL1        0.1387
     29 C           0.9445   -0.2385   20.1945 C.ar    1  UNL1        0.0366
     30 C           2.1364   -0.6937   19.4058 C.ar    1  UNL1       -0.0011
     31 C           2.8847    0.2823   18.5469 C.ar    1  UNL1       -0.0206
     32 C           2.4410    1.7135   18.4768 C.ar    1  UNL1       -0.0011
     33 C           1.2490    2.1687   19.2657 C.ar    1  UNL1        0.0366
     34 C          -1.4295    2.8889   20.5075 C.3     1  UNL1        0.2525
     35 O          -0.6911    1.6478   20.9132 O.3     1  UNL1       -0.4714
@<TRIPOS>BOND
     1    34    35    1
     2    35    28    1
     3    28    29   ar
     4    29    30   ar
     5    30    31   ar
     6    31    27    1
     7    27    26    1
     8    26    20    1
     9    20    21    1
    10    21    22    1
    11    22    23    1
    12    23     1    1
    13     1     3    1
    14     3     4   ar
    15     4     5   ar
    16     5     6   ar
    17     6     7   ar
    18     7     8   ar
    19     8     9   ar
    20     9    10   ar
    21    10    11   ar
    22    11    12    1
    23    12    13    1
    24    13    14   ar
    25    14    15   ar
    26    15    16   ar
    27    16    17    1
    28    16    18   ar
    29    18    19   ar
    30    23    24    1
    31    24    25    1
    32    31    32   ar
    33    32    33   ar
    34    33    28   ar
    35    25    20    1
    36    11     3   ar
    37    19    13   ar
    38    10     5   ar
    39     1     2    1
@<TRIPOS>MOLECULE
*****
 35 39 0 0 0
SMALL
GASTEIGER

@<TRIPOS>ATOM
      1 N           5.5105   -0.9948   18.1520 N.pl3   1  UNL1       -0.3058
      2 H           5.7296   -1.1876   17.2118 H       1  UNL1        0.1495
      3 C           4.2502   -0.2559   18.4921 C.ar    1  UNL1        0.1981
      4 N           3.8673    1.1080   17.9989 N.ar    1  UNL1       -0.2138
      5 C           2.5320    1.4557   18.5871 C.ar    1  UNL1        0.0999
      6 C           1.6618    2.6700   18.4532 C.ar    1  UNL1        0.0207
      7 C           0.3492    2.7355   19.1762 C.ar    1  UNL1        0.0016
      8 C          -0.0932    1.5865   20.0330 C.ar    1  UNL1        0.0016
      9 C           0.7770    0.3721   20.1669 C.ar    1  UNL1        0.0188
     10 C           2.0896    0.3067   19.4439 C.ar    1  UNL1        0.0801
     11 N           3.1516   -0.7511   19.3852 N.ar    1  UNL1       -0.2956
     12 C           3.1202   -2.0721   20.0951 C.3     1  UNL1        0.1354
     13 C           3.7083   -2.1994   21.4690 C.ar    1  UNL1        0.0006
     14 C           4.5451   -3.3942   21.8190 C.ar    1  UNL1       -0.0001
     15 C           5.1332   -3.5216   23.1929 C.ar    1  UNL1        0.0294
     16 C           4.8846   -2.4542   24.2171 C.ar    1  UNL1        0.1401
     17 F           5.4727   -2.5816   25.5911 F       1  UNL1       -0.2042
     18 C           4.0479   -1.2594   23.8672 C.ar    1  UNL1        0.0294
     19 C           3.4598   -1.1320   22.4932 C.ar    1  UNL1       -0.0001
     20 N           8.2900   -2.3303   21.4293 N.3     1  UNL1       -0.2723
     21 C           7.5904   -1.0075   21.5320 C.3     1  UNL1        0.0738
     22 C           6.6638   -0.5623   20.4395 C.3     1  UNL1        0.0369
     23 C           6.4370   -1.4399   19.2444 C.3     1  UNL1        0.0745
     24 C           7.1367   -2.7628   19.1418 C.3     1  UNL1        0.0369
     25 C           8.0632   -3.2080   20.2342 C.3     1  UNL1        0.0738
     26 C           9.2165   -2.7755   22.5218 C.3     1  UNL1        0.0768
     27 C           8.7062   -2.9223   23.9246 C.3     1  UNL1        0.0437
     28 C           7.7552   -7.0065   25.5571 C.ar    1  UNL1        0.1387
     29 C           8.1323   -6.8446   24.1143 C.ar    1  UNL1        0.0366
     30 C           8.4492   -5.4832   23.5701 C.ar    1  UNL1       -0.0011
     31 C           8.3892   -4.2837   24.4688 C.ar    1  UNL1       -0.0206
     32 C           8.0122   -4.4455   25.9116 C.ar    1  UNL1       -0.0011
     33 C           7.6952   -5.8070   26.4557 C.ar    1  UNL1        0.0366
     34 C           8.1413   -8.8673   27.3286 C.3     1  UNL1        0.2525
     35 O           7.4382   -8.3678   26.1012 O.3     1  UNL1       -0.4714
@<TRIPOS>BOND
     1    34    35    1
     2    35    28    1
     3    28    29   ar
     4    29    30   ar
     5    30    31   ar
     6    31    27    1
     7    27    26    1
     8    26    20    1
     9    20    21    1
    10    21    22    1
    11    22    23    1
    12    23     1    1
    13     1     3    1
    14     3     4   ar
    15     4     5   ar
    16     5     6   ar
    17     6     7   ar
    18     7     8   ar
    19     8     9   ar
    20     9    10   ar
    21    10    11   ar
    22    11    12    1
    23    12    13    1
    24    13    14   ar
    25    14    15   ar
    26    15    16   ar
    27    16    17    1
    28    16    18   ar
    29    18    19   ar
    30    23    24    1
    31    24    25    1
    32    31    32   ar
    33    32    33   ar
    34    33    28   ar
    35    25    20    1
    36    11     3   ar
    37    19    13   ar
    38    10     5   ar
    39     1     2    1
@<TRIPOS>MOLECULE
*****
 35 39 0 0 0
SMALL
GASTEIGER

@<TRIPOS>ATOM
      1 N         -14.0531   -2.7311   16.9212 N.pl3   1  UNL1       -0.3058
      2 H         -14.2366   -2.6655   15.9562 H       1  UNL1        0.1495
      3 C         -13.0083   -3.6833   17.4229 C.ar    1  UNL1        0.1981
      4 N         -11.7207   -3.3060   18.0935 N.ar    1  UNL1       -0.2138
      5 C         -10.9842   -4.5695   18.4271 C.ar    1  UNL1        0.0999
      6 C          -9.6632   -4.8150   19.0938 C.ar    1  UNL1        0.0207
      7 C          -9.1746   -6.2187   19.2961 C.ar    1  UNL1        0.0016
      8 C         -10.0071   -7.3768   18.8317 C.ar    1  UNL1        0.0016
      9 C         -11.3281   -7.1313   18.1650 C.ar    1  UNL1        0.0188
     10 C         -11.8167   -5.7276   17.9627 C.ar    1  UNL1        0.0801
     11 N         -13.0676   -5.1799   17.3421 N.ar    1  UNL1       -0.2956
     12 C         -14.1822   -5.9872   16.7454 C.3     1  UNL1        0.1354
     13 C         -14.8593   -7.0486   17.5607 C.ar    1  UNL1        0.0006
     14 C         -14.6330   -8.4970   17.2429 C.ar    1  UNL1       -0.0001
     15 C         -15.3102   -9.5585   18.0581 C.ar    1  UNL1        0.0294
     16 C         -16.2136   -9.1716   19.1913 C.ar    1  UNL1        0.1401
     17 F         -16.8908  -10.2331   20.0066 F       1  UNL1       -0.2042
     18 C         -16.4400   -7.7232   19.5091 C.ar    1  UNL1        0.0294
     19 C         -15.7628   -6.6617   18.6939 C.ar    1  UNL1       -0.0001
     20 N         -16.3486   -0.1744   19.8270 N.3     1  UNL1       -0.2723
     21 C         -16.7071   -1.6207   19.6550 C.3     1  UNL1        0.0738
     22 C         -15.9419   -2.4730   18.6863 C.3     1  UNL1        0.0369
     23 C         -14.8183   -1.8789   17.8898 C.3     1  UNL1        0.0745
     24 C         -14.4598   -0.4325   18.0618 C.3     1  UNL1        0.0369
     25 C         -15.2250    0.4197   19.0304 C.3     1  UNL1        0.0738
     26 C         -17.1138    0.6779   20.7956 C.3     1  UNL1        0.0768
     27 C         -17.1811    2.1632   20.5970 C.3     1  UNL1        0.0437
     28 C         -15.2081    4.9204   23.5559 C.ar    1  UNL1        0.1387
     29 C         -16.2881    3.9831   24.0088 C.ar    1  UNL1        0.0366
     30 C         -16.9458    3.0640   23.0225 C.ar    1  UNL1       -0.0011
     31 C         -16.5235    3.0822   21.5833 C.ar    1  UNL1       -0.0206
     32 C         -15.4435    4.0196   21.1303 C.ar    1  UNL1       -0.0011
     33 C         -14.7858    4.9387   22.1167 C.ar    1  UNL1        0.0366
     34 C         -14.2928    5.3741   25.9447 C.3     1  UNL1        0.2525
     35 O         -14.5505    5.8395   24.5421 O.3     1  UNL1       -0.4714
@<TRIPOS>BOND
     1    34    35    1
     2    35    28    1
     3    28    29   ar
     4    29    30   ar
     5    30    31   ar
     6    31    27    1
     7    27    26    1
     8    26    20    1
     9    20    21    1
    10    21    22    1
    11    22    23    1
    12    23     1    1
    13     1     3    1
    14     3     4   ar
    15     4     5   ar
    16     5     6   ar
    17     6     7   ar
    18     7     8   ar
    19     8     9   ar
    20     9    10   ar
    21    10    11   ar
    22    11    12    1
    23    12    13    1
    24    13    14   ar
    25    14    15   ar
    26    15    16   ar
    27    16    17    1
    28    16    18   ar
    29    18    19   ar
    30    23    24    1
    31    24    25    1
    32    31    32   ar
    33    32    33   ar
    34    33    28   ar
    35    25    20    1
    36    11     3   ar
    37    19    13   ar
    38    10     5   ar
    39     1     2    1
@<TRIPOS>MOLECULE
*****
 35 39 0 0 0
SMALL
GASTEIGER

@<TRIPOS>ATOM
      1 N         -10.5353  -17.4460   20.6150 N.pl3   1  UNL1       -0.3058
      2 H         -10.6733  -16.6686   20.0269 H       1  UNL1        0.1495
      3 C         -11.4880  -17.7119   21.7426 C.ar    1  UNL1        0.1981
      4 N         -12.9842  -17.6345   21.6696 N.ar    1  UNL1       -0.2138
      5 C         -13.5328  -17.9767   23.0231 C.ar    1  UNL1        0.0999
      6 C         -14.9365  -18.0625   23.5448 C.ar    1  UNL1        0.0207
      7 C         -15.1830  -18.4373   24.9761 C.ar    1  UNL1        0.0016
      8 C         -14.0257  -18.7264   25.8857 C.ar    1  UNL1        0.0016
      9 C         -12.6221  -18.6405   25.3640 C.ar    1  UNL1        0.0188
     10 C         -12.3756  -18.2657   23.9327 C.ar    1  UNL1        0.0801
     11 N         -11.1119  -18.1021   23.1413 N.ar    1  UNL1       -0.2956
     12 C          -9.7169  -18.2948   23.6579 C.3     1  UNL1        0.1354
     13 C          -9.1643  -17.3596   24.6922 C.ar    1  UNL1        0.0006
     14 C          -9.1854  -17.7468   26.1413 C.ar    1  UNL1       -0.0001
     15 C          -8.6328  -16.8117   27.1757 C.ar    1  UNL1        0.0294
     16 C          -8.0590  -15.4892   26.7611 C.ar    1  UNL1        0.1401
     17 F          -7.5063  -14.5540   27.7955 F       1  UNL1       -0.2042
     18 C          -8.0378  -15.1020   25.3121 C.ar    1  UNL1        0.0294
     19 C          -8.5904  -16.0372   24.2777 C.ar    1  UNL1       -0.0001
     20 N          -7.0460  -20.2014   19.9202 N.3     1  UNL1       -0.2723
     21 C          -6.9344  -19.0868   20.9177 C.3     1  UNL1        0.0738
     22 C          -8.0975  -18.1683   21.1493 C.3     1  UNL1        0.0369
     23 C          -9.3722  -18.3644   20.3834 C.3     1  UNL1        0.0745
     24 C          -9.4838  -19.4791   19.3858 C.3     1  UNL1        0.0369
     25 C          -8.3207  -20.3976   19.1542 C.3     1  UNL1        0.0738
     26 C          -5.8829  -21.1199   19.6885 C.3     1  UNL1        0.0768
     27 C          -4.7296  -21.1262   20.6476 C.3     1  UNL1        0.0437
     28 C          -1.6094  -17.8907   20.4355 C.ar    1  UNL1        0.1387
     29 C          -1.8919  -18.5758   21.7396 C.ar    1  UNL1        0.0366
     30 C          -2.9320  -19.6543   21.8103 C.ar    1  UNL1       -0.0011
     31 C          -3.6896  -20.0477   20.5769 C.ar    1  UNL1       -0.0206
     32 C          -3.4070  -19.3626   19.2727 C.ar    1  UNL1       -0.0011
     33 C          -2.3669  -18.2840   19.2020 C.ar    1  UNL1        0.0366
     34 C           0.8479  -17.1586   20.0158 C.3     1  UNL1        0.2525
     35 O          -0.5693  -16.8122   20.3647 O.3     1  UNL1       -0.4714
@<TRIPOS>BOND
     1    34    35    1
     2    35    28    1
     3    28    29   ar
     4    29    30   ar
     5    30    31   ar
     6    31    27    1
     7    27    26    1
     8    26    20    1
     9    20    21    1
    10    21    22    1
    11    22    23    1
    12    23     1    1
    13     1     3    1
    14     3     4   ar
    15     4     5   ar
    16     5     6   ar
    17     6     7   ar
    18     7     8   ar
    19     8     9   ar
    20     9    10   ar
    21    10    11   ar
    22    11    12    1
    23    12    13    1
    24    13    14   ar
    25    14    15   ar
    26    15    16   ar
    27    16    17    1
    28    16    18   ar
    29    18    19   ar
    30    23    24    1
    31    24    25    1
    32    31    32   ar
    33    32    33   ar
    34    33    28   ar
    35    25    20    1
    36    11     3   ar
    37    19    13   ar
    38    10     5   ar
    39     1     2    1
@<TRIPOS>MOLECULE
*****
 35 39 0 0 0
SMALL
GASTEIGER

@<TRIPOS>ATOM
      1 N           3.9278   -1.2793   17.3783 N.pl3   1  UNL1       -0.3058
      2 H           3.5619   -1.7645   16.6038 H       1  UNL1        0.1495
      3 C           5.1387   -1.8063   18.0897 C.ar    1  UNL1        0.1981
      4 N           6.5566   -1.7041   17.6111 N.ar    1  UNL1       -0.2138
      5 C           7.4385   -2.3627   18.6302 C.ar    1  UNL1        0.0999
      6 C           8.9235   -2.5644   18.6920 C.ar    1  UNL1        0.0207
      7 C           9.5357   -3.2755   19.8623 C.ar    1  UNL1        0.0016
      8 C           8.6628   -3.7848   20.9707 C.ar    1  UNL1        0.0016
      9 C           7.1777   -3.5831   20.9089 C.ar    1  UNL1        0.0188
     10 C           6.5656   -2.8720   19.7386 C.ar    1  UNL1        0.0801
     11 N           5.1442   -2.5282   19.4046 N.ar    1  UNL1       -0.2956
     12 C           3.9399   -2.8498   20.2389 C.3     1  UNL1        0.1354
     13 C           3.6412   -2.0425   21.4673 C.ar    1  UNL1        0.0006
     14 C           2.7231   -0.8592   21.3822 C.ar    1  UNL1       -0.0001
     15 C           2.4243   -0.0518   22.6106 C.ar    1  UNL1        0.0294
     16 C           3.0436   -0.4277   23.9241 C.ar    1  UNL1        0.1401
     17 F           2.7448    0.3797   25.1524 F       1  UNL1       -0.2042
     18 C           3.9616   -1.6109   24.0091 C.ar    1  UNL1        0.0294
     19 C           4.2604   -2.4183   22.7808 C.ar    1  UNL1       -0.0001
     20 N           1.9677    2.5195   18.7845 N.3     1  UNL1       -0.2723
     21 C           3.4606    2.4487   18.6566 C.3     1  UNL1        0.0738
     22 C           4.1140    1.1824   18.1878 C.3     1  UNL1        0.0369
     23 C           3.2745   -0.0131   17.8470 C.3     1  UNL1        0.0745
     24 C           1.7816    0.0578   17.9750 C.3     1  UNL1        0.0369
     25 C           1.1282    1.3240   18.4437 C.3     1  UNL1        0.0738
     26 C           1.3143    3.7858   19.2532 C.3     1  UNL1        0.0768
     27 C           0.2085    4.4015   18.4483 C.3     1  UNL1        0.0437
     28 C          -4.0832    3.5558   19.5049 C.ar    1  UNL1        0.1387
     29 C          -2.9904    3.2102   20.4726 C.ar    1  UNL1        0.0366
     30 C          -1.5599    3.4921   20.1204 C.ar    1  UNL1       -0.0011
     31 C          -1.2220    4.1196   18.8005 C.ar    1  UNL1       -0.0206
     32 C          -2.3148    4.4652   17.8328 C.ar    1  UNL1       -0.0011
     33 C          -3.7454    4.1833   18.1850 C.ar    1  UNL1        0.0366
     34 C          -6.5712    3.3216   18.7942 C.3     1  UNL1        0.2525
     35 O          -5.5137    3.2739   19.8570 O.3     1  UNL1       -0.4714
@<TRIPOS>BOND
     1    34    35    1
     2    35    28    1
     3    28    29   ar
     4    29    30   ar
     5    30    31   ar
     6    31    27    1
     7    27    26    1
     8    26    20    1
     9    20    21    1
    10    21    22    1
    11    22    23    1
    12    23     1    1
    13     1     3    1
    14     3     4   ar
    15     4     5   ar
    16     5     6   ar
    17     6     7   ar
    18     7     8   ar
    19     8     9   ar
    20     9    10   ar
    21    10    11   ar
    22    11    12    1
    23    12    13    1
    24    13    14   ar
    25    14    15   ar
    26    15    16   ar
    27    16    17    1
    28    16    18   ar
    29    18    19   ar
    30    23    24    1
    31    24    25    1
    32    31    32   ar
    33    32    33   ar
    34    33    28   ar
    35    25    20    1
    36    11     3   ar
    37    19    13   ar
    38    10     5   ar
    39     1     2    1
@<TRIPOS>MOLECULE
*****
 35 39 0 0 0
SMALL
GASTEIGER

@<TRIPOS>ATOM
      1 N          -0.5127    3.0083   19.3553 N.pl3   1  UNL1       -0.3058
      2 H          -0.5759    3.6347   18.5984 H       1  UNL1        0.1495
      3 C          -1.4175    3.1706   20.5406 C.ar    1  UNL1        0.1981
      4 N          -2.9086    3.0072   20.5404 N.ar    1  UNL1       -0.2138
      5 C          -3.4028    3.2603   21.9339 C.ar    1  UNL1        0.0999
      6 C          -4.7792    3.2409   22.5297 C.ar    1  UNL1        0.0207
      7 C          -4.9700    3.5413   23.9868 C.ar    1  UNL1        0.0016
      8 C          -3.7843    3.8610   24.8482 C.ar    1  UNL1        0.0016
      9 C          -2.4079    3.8804   24.2524 C.ar    1  UNL1        0.0188
     10 C          -2.2171    3.5801   22.7953 C.ar    1  UNL1        0.0801
     11 N          -0.9902    3.5246   21.9341 N.ar    1  UNL1       -0.2956
     12 C           0.4171    3.7786   22.3871 C.3     1  UNL1        0.1354
     13 C           1.2807    2.6347   22.8292 C.ar    1  UNL1        0.0006
     14 C           0.7955    1.6965   23.8943 C.ar    1  UNL1       -0.0001
     15 C           1.6591    0.5526   24.3365 C.ar    1  UNL1        0.0294
     16 C           3.0080    0.3467   23.7135 C.ar    1  UNL1        0.1401
     17 F           3.8716   -0.7972   24.1557 F       1  UNL1       -0.2042
     18 C           3.4932    1.2849   22.6484 C.ar    1  UNL1        0.0294
     19 C           2.6296    2.4288   22.2062 C.ar    1  UNL1       -0.0001
     20 N           2.4907   -0.3413   19.2590 N.3     1  UNL1       -0.2723
     21 C           1.2131   -0.5015   20.0283 C.3     1  UNL1        0.0738
     22 C           0.2119    0.6151   20.0604 C.3     1  UNL1        0.0369
     23 C           0.4884    1.8918   19.3232 C.3     1  UNL1        0.0745
     24 C           1.7662    2.0520   18.5538 C.3     1  UNL1        0.0369
     25 C           2.7673    0.9354   18.5217 C.3     1  UNL1        0.0738
     26 C           3.4919   -1.4579   19.2268 C.3     1  UNL1        0.0768
     27 C           3.4827   -2.5047   20.3011 C.3     1  UNL1        0.0437
     28 C           6.7058   -2.5345   23.4413 C.ar    1  UNL1        0.1387
     29 C           5.6600   -3.6097   23.4297 C.ar    1  UNL1        0.0366
     30 C           4.5856   -3.5998   22.3830 C.ar    1  UNL1       -0.0011
     31 C           4.5570   -2.5146   21.3478 C.ar    1  UNL1       -0.0206
     32 C           5.6029   -1.4394   21.3594 C.ar    1  UNL1       -0.0011
     33 C           6.6773   -1.4493   22.4062 C.ar    1  UNL1        0.0366
     34 C           7.7033   -3.5110   25.6326 C.3     1  UNL1        0.2525
     35 O           7.7802   -2.5444   24.4880 O.3     1  UNL1       -0.4714
@<TRIPOS>BOND
     1    34    35    1
     2    35    28    1
     3    28    29   ar
     4    29    30   ar
     5    30    31   ar
     6    31    27    1
     7    27    26    1
     8    26    20    1
     9    20    21    1
    10    21    22    1
    11    22    23    1
    12    23     1    1
    13     1     3    1
    14     3     4   ar
    15     4     5   ar
    16     5     6   ar
    17     6     7   ar
    18     7     8   ar
    19     8     9   ar
    20     9    10   ar
    21    10    11   ar
    22    11    12    1
    23    12    13    1
    24    13    14   ar
    25    14    15   ar
    26    15    16   ar
    27    16    17    1
    28    16    18   ar
    29    18    19   ar
    30    23    24    1
    31    24    25    1
    32    31    32   ar
    33    32    33   ar
    34    33    28   ar
    35    25    20    1
    36    11     3   ar
    37    19    13   ar
    38    10     5   ar
    39     1     2    1
@<TRIPOS>MOLECULE
*****
 35 39 0 0 0
SMALL
GASTEIGER

@<TRIPOS>ATOM
      1 N          -0.1355    4.1621   18.8531 N.pl3   1  UNL1       -0.3058
      2 H          -0.1707    4.9721   18.2945 H       1  UNL1        0.1495
      3 C          -1.1701    3.9386   19.9160 C.ar    1  UNL1        0.1981
      4 N          -2.6384    3.7336   19.6881 N.ar    1  UNL1       -0.2138
      5 C          -3.2937    3.5492   21.0247 C.ar    1  UNL1        0.0999
      6 C          -4.7213    3.3101   21.4181 C.ar    1  UNL1        0.0207
      7 C          -5.0855    3.1621   22.8657 C.ar    1  UNL1        0.0016
      8 C          -4.0222    3.2532   23.9197 C.ar    1  UNL1        0.0016
      9 C          -2.5947    3.4923   23.5263 C.ar    1  UNL1        0.0188
     10 C          -2.2304    3.6403   22.0788 C.ar    1  UNL1        0.0801
     11 N          -0.9179    3.8810   21.3936 N.ar    1  UNL1       -0.2956
     12 C           0.4130    4.0367   22.0676 C.3     1  UNL1        0.1354
     13 C           1.3974    2.9050   22.0544 C.ar    1  UNL1        0.0006
     14 C           0.9121    1.4879   22.1347 C.ar    1  UNL1       -0.0001
     15 C           1.8965    0.3561   22.1215 C.ar    1  UNL1        0.0294
     16 C           3.3661    0.6415   22.0281 C.ar    1  UNL1        0.1401
     17 F           4.3505   -0.4903   22.0150 F       1  UNL1       -0.2042
     18 C           3.8514    2.0585   21.9479 C.ar    1  UNL1        0.0294
     19 C           2.8670    3.1903   21.9610 C.ar    1  UNL1       -0.0001
     20 N           3.1287    1.1305   18.2174 N.3     1  UNL1       -0.2723
     21 C           1.7095    0.6784   18.3948 C.3     1  UNL1        0.0738
     22 C           0.6214    1.6890   18.6067 C.3     1  UNL1        0.0369
     23 C           0.9525    3.1516   18.6412 C.3     1  UNL1        0.0745
     24 C           2.3718    3.6036   18.4638 C.3     1  UNL1        0.0369
     25 C           3.4598    2.5931   18.2519 C.3     1  UNL1        0.0738
     26 C           4.2168    0.1199   18.0055 C.3     1  UNL1        0.0768
     27 C           3.9106   -1.3448   18.1094 C.3     1  UNL1        0.0437
     28 C           5.8798   -3.8342   21.2992 C.ar    1  UNL1        0.1387
     29 C           6.7074   -2.9253   20.4396 C.ar    1  UNL1        0.0366
     30 C           6.0511   -2.0955   19.3764 C.ar    1  UNL1       -0.0011
     31 C           4.5670   -2.1746   19.1726 C.ar    1  UNL1       -0.0206
     32 C           3.7394   -3.0835   20.0322 C.ar    1  UNL1       -0.0011
     33 C           4.3958   -3.9134   21.0955 C.ar    1  UNL1        0.0366
     34 C           6.8299   -4.0656   23.7062 C.3     1  UNL1        0.2525
     35 O           6.5362   -4.6640   22.3625 O.3     1  UNL1       -0.4714
@<TRIPOS>BOND
     1    34    35    1
     2    35    28    1
     3    28    29   ar
     4    29    30   ar
     5    30    31   ar
     6    31    27    1
     7    27    26    1
     8    26    20    1
     9    20    21    1
    10    21    22    1
    11    22    23    1
    12    23     1    1
    13     1     3    1
    14     3     4   ar
    15     4     5   ar
    16     5     6   ar
    17     6     7   ar
    18     7     8   ar
    19     8     9   ar
    20     9    10   ar
    21    10    11   ar
    22    11    12    1
    23    12    13    1
    24    13    14   ar
    25    14    15   ar
    26    15    16   ar
    27    16    17    1
    28    16    18   ar
    29    18    19   ar
    30    23    24    1
    31    24    25    1
    32    31    32   ar
    33    32    33   ar
    34    33    28   ar
    35    25    20    1
    36    11     3   ar
    37    19    13   ar
    38    10     5   ar
    39     1     2    1
@<TRIPOS>MOLECULE
*****
 35 39 0 0 0
SMALL
GASTEIGER

@<TRIPOS>ATOM
      1 N          -4.3542  -14.7541   23.1064 N.pl3   1  UNL1       -0.3058
      2 H          -4.1897  -13.7893   22.9993 H       1  UNL1        0.1495
      3 C          -3.4754  -15.7471   22.4053 C.ar    1  UNL1        0.1981
      4 N          -2.1859  -15.4417   21.7025 N.ar    1  UNL1       -0.2138
      5 C          -1.6453  -16.7258   21.1468 C.ar    1  UNL1        0.0999
      6 C          -0.4066  -17.0362   20.3600 C.ar    1  UNL1        0.0207
      7 C          -0.1233  -18.4458   19.9325 C.ar    1  UNL1        0.0016
      8 C          -1.0787  -19.5449   20.2918 C.ar    1  UNL1        0.0016
      9 C          -2.3174  -19.2345   21.0786 C.ar    1  UNL1        0.0188
     10 C          -2.6008  -17.8249   21.5061 C.ar    1  UNL1        0.0801
     11 N          -3.7318  -17.2201   22.2839 N.ar    1  UNL1       -0.2956
     12 C          -4.9120  -17.9586   22.8422 C.3     1  UNL1        0.1354
     13 C          -5.8790  -18.6359   21.9171 C.ar    1  UNL1        0.0006
     14 C          -5.5224  -19.9520   21.2919 C.ar    1  UNL1       -0.0001
     15 C          -6.4895  -20.6295   20.3668 C.ar    1  UNL1        0.0294
     16 C          -7.8132  -19.9908   20.0669 C.ar    1  UNL1        0.1401
     17 F          -8.7803  -20.6683   19.1418 F       1  UNL1       -0.2042
     18 C          -8.1698  -18.6749   20.6921 C.ar    1  UNL1        0.0294
     19 C          -7.2028  -17.9974   21.6172 C.ar    1  UNL1       -0.0001
     20 N          -7.7428  -16.1844   25.6990 N.3     1  UNL1       -0.2723
     21 C          -6.3377  -16.2024   26.2238 C.3     1  UNL1        0.0738
     22 C          -5.2081  -15.7256   25.3596 C.3     1  UNL1        0.0369
     23 C          -5.4837  -15.2309   23.9706 C.3     1  UNL1        0.0745
     24 C          -6.8889  -15.2129   23.4458 C.3     1  UNL1        0.0369
     25 C          -8.0183  -15.6897   24.3100 C.3     1  UNL1        0.0738
     26 C          -8.8724  -16.6612   26.5632 C.3     1  UNL1        0.0768
     27 C          -9.4474  -18.0313   26.3575 C.3     1  UNL1        0.0437
     28 C         -10.9916  -19.2384   22.3068 C.ar    1  UNL1        0.1387
     29 C         -10.3118  -20.2492   23.1821 C.ar    1  UNL1        0.0366
     30 C          -9.7971  -19.8469   24.5323 C.ar    1  UNL1       -0.0011
     31 C          -9.9621  -18.4336   25.0073 C.ar    1  UNL1       -0.0206
     32 C         -10.6419  -17.4228   24.1321 C.ar    1  UNL1       -0.0011
     33 C         -11.1566  -17.8252   22.7818 C.ar    1  UNL1        0.0366
     34 C         -11.4174  -18.6843   19.8045 C.3     1  UNL1        0.2525
     35 O         -11.5063  -19.6408   20.9566 O.3     1  UNL1       -0.4714
@<TRIPOS>BOND
     1    34    35    1
     2    35    28    1
     3    28    29   ar
     4    29    30   ar
     5    30    31   ar
     6    31    27    1
     7    27    26    1
     8    26    20    1
     9    20    21    1
    10    21    22    1
    11    22    23    1
    12    23     1    1
    13     1     3    1
    14     3     4   ar
    15     4     5   ar
    16     5     6   ar
    17     6     7   ar
    18     7     8   ar
    19     8     9   ar
    20     9    10   ar
    21    10    11   ar
    22    11    12    1
    23    12    13    1
    24    13    14   ar
    25    14    15   ar
    26    15    16   ar
    27    16    17    1
    28    16    18   ar
    29    18    19   ar
    30    23    24    1
    31    24    25    1
    32    31    32   ar
    33    32    33   ar
    34    33    28   ar
    35    25    20    1
    36    11     3   ar
    37    19    13   ar
    38    10     5   ar
    39     1     2    1
@<TRIPOS>MOLECULE
*****
 35 39 0 0 0
SMALL
GASTEIGER

@<TRIPOS>ATOM
      1 N           1.0068    0.5060   19.7678 N.pl3   1  UNL1       -0.3058
      2 H           0.2813    0.1016   19.2392 H       1  UNL1        0.1495
      3 C           2.4171    0.4674   19.2584 C.ar    1  UNL1        0.1981
      4 N           3.1180    1.5684   18.5191 N.ar    1  UNL1       -0.2138
      5 C           4.5083    1.1025   18.2028 C.ar    1  UNL1        0.0999
      6 C           5.6504    1.7636   17.4898 C.ar    1  UNL1        0.0207
      7 C           6.9510    1.0357   17.3206 C.ar    1  UNL1        0.0016
      8 C           7.1094   -0.3533   17.8644 C.ar    1  UNL1        0.0016
      9 C           5.9672   -1.0143   18.5774 C.ar    1  UNL1        0.0188
     10 C           4.6666   -0.2864   18.7465 C.ar    1  UNL1        0.0801
     11 N           3.3742   -0.6789   19.3990 N.ar    1  UNL1       -0.2956
     12 C           3.0891   -1.9880   20.0736 C.3     1  UNL1        0.1354
     13 C           3.8722   -2.3926   21.2871 C.ar    1  UNL1        0.0006
     14 C           4.8628   -3.5158   21.2005 C.ar    1  UNL1       -0.0001
     15 C           5.6459   -3.9205   22.4141 C.ar    1  UNL1        0.0294
     16 C           5.4385   -3.2021   23.7144 C.ar    1  UNL1        0.1401
     17 F           6.2217   -3.6068   24.9280 F       1  UNL1       -0.2042
     18 C           4.4480   -2.0790   23.8011 C.ar    1  UNL1        0.0294
     19 C           3.6648   -1.6743   22.5875 C.ar    1  UNL1       -0.0001
     20 N           0.0918    2.4702   23.7117 N.3     1  UNL1       -0.2723
     21 C          -0.6376    2.8992   22.4732 C.3     1  UNL1        0.0738
     22 C          -0.3326    2.2444   21.1585 C.3     1  UNL1        0.0369
     23 C           0.7018    1.1608   21.0824 C.3     1  UNL1        0.0745
     24 C           1.4311    0.7318   22.3210 C.3     1  UNL1        0.0369
     25 C           1.1261    1.3865   23.6356 C.3     1  UNL1        0.0738
     26 C          -0.2132    3.1250   25.0264 C.3     1  UNL1        0.0768
     27 C          -1.0060    2.3883   26.0651 C.3     1  UNL1        0.0437
     28 C           1.1126    0.1518   29.3452 C.ar    1  UNL1        0.1387
     29 C          -0.3229   -0.1535   29.0353 C.ar    1  UNL1        0.0366
     30 C          -1.0291    0.5920   27.9420 C.ar    1  UNL1       -0.0011
     31 C          -0.2998    1.6429   27.1584 C.ar    1  UNL1       -0.0206
     32 C           1.1358    1.9482   27.4683 C.ar    1  UNL1       -0.0011
     33 C           1.8420    1.2026   28.5617 C.ar    1  UNL1        0.0366
     34 C           2.9462    0.0578   31.1835 C.3     1  UNL1        0.2525
     35 O           1.8189   -0.5937   30.4386 O.3     1  UNL1       -0.4714
@<TRIPOS>BOND
     1    34    35    1
     2    35    28    1
     3    28    29   ar
     4    29    30   ar
     5    30    31   ar
     6    31    27    1
     7    27    26    1
     8    26    20    1
     9    20    21    1
    10    21    22    1
    11    22    23    1
    12    23     1    1
    13     1     3    1
    14     3     4   ar
    15     4     5   ar
    16     5     6   ar
    17     6     7   ar
    18     7     8   ar
    19     8     9   ar
    20     9    10   ar
    21    10    11   ar
    22    11    12    1
    23    12    13    1
    24    13    14   ar
    25    14    15   ar
    26    15    16   ar
    27    16    17    1
    28    16    18   ar
    29    18    19   ar
    30    23    24    1
    31    24    25    1
    32    31    32   ar
    33    32    33   ar
    34    33    28   ar
    35    25    20    1
    36    11     3   ar
    37    19    13   ar
    38    10     5   ar
    39     1     2    1
