@<TRIPOS>MOLECULE
*****
 20 23 0 0 0
SMALL
GASTEIGER

@<TRIPOS>ATOM
      1 C          -8.7181  -15.8189   24.6817 C.3     1  UNL1        0.0262
      2 C          -9.2815  -16.5800   23.5185 C.2     1  UNL1       -0.0433
      3 C         -10.7099  -16.5610   23.0609 C.2     1  UNL1       -0.0034
      4 C         -10.8265  -17.4631   21.8682 C.3     1  UNL1        0.1590
      5 O         -12.0795  -17.7401   21.0914 O.3     1  UNL1       -0.3776
      6 C          -9.4703  -18.0396   21.5885 C.3     1  UNL1        0.1471
      7 O         -10.5808  -18.4625   20.6732 O.3     1  UNL1       -0.3554
      8 C          -9.1933  -18.9924   20.4637 C.3     1  UNL1        0.1220
      9 C          -9.7769  -19.7449   19.3047 C.3     1  UNL1        0.0323
     10 C          -7.8929  -19.6348   20.0809 C.3     1  UNL1        0.0776
     11 C          -6.5484  -19.4831   20.7284 C.3     1  UNL1        0.1898
     12 O          -5.3147  -20.1862   20.2457 O.3     1  UNL1       -0.4451
     13 C          -4.1758  -19.7891   21.1375 C.2     1  UNL1        0.3369
     14 O          -2.7562  -20.2582   21.0166 O.2     1  UNL1       -0.2453
     15 C          -4.7059  -18.8405   22.1716 C.2     1  UNL1        0.0492
     16 C          -3.9094  -18.1945   23.2662 C.3     1  UNL1        0.0373
     17 C          -6.1722  -18.6514   21.9188 C.2     1  UNL1       -0.0022
     18 C          -7.0476  -17.7661   22.7555 C.3     1  UNL1        0.0319
     19 C          -8.5153  -17.4939   22.6085 C.3     1  UNL1        0.0521
     20 H         -12.8166  -17.2426   21.4788 H       1  UNL1        0.2109
@<TRIPOS>BOND
     1     1     2    1
     2     2     3    2
     3     3     4    1
     4     4     5    1
     5     4     6    1
     6     6     7    1
     7     7     8    1
     8     8     9    1
     9     8    10    1
    10    11    10    1
    11    11    12    1
    12    12    13    1
    13    13    14    2
    14    13    15    1
    15    15    16    1
    16    15    17    2
    17    17    18    1
    18    19    18    1
    19    19     2    1
    20     8     6    1
    21    17    11    1
    22    19     6    1
    23     5    20    1
@<TRIPOS>MOLECULE
*****
 20 23 0 0 0
SMALL
GASTEIGER

@<TRIPOS>ATOM
      1 C          -9.8707  -18.9314   20.9940 C.3     1  UNL1        0.0262
      2 C          -9.2315  -17.9760   21.9575 C.2     1  UNL1       -0.0433
      3 C          -9.9416  -16.9274   22.7614 C.2     1  UNL1       -0.0034
      4 C          -8.9188  -16.2047   23.5870 C.3     1  UNL1        0.1590
      5 O          -9.1907  -15.0779   24.5391 O.3     1  UNL1       -0.3776
      6 C          -7.5767  -16.8065   23.2934 C.3     1  UNL1        0.1471
      7 O          -7.6053  -15.6828   24.2865 O.3     1  UNL1       -0.3554
      8 C          -6.3038  -16.3407   23.9358 C.3     1  UNL1        0.1220
      9 C          -5.6847  -15.3763   24.9037 C.3     1  UNL1        0.0323
     10 C          -4.9097  -16.8545   23.7297 C.3     1  UNL1        0.0776
     11 C          -4.4441  -17.9611   22.8304 C.3     1  UNL1        0.1898
     12 O          -3.0094  -18.3827   22.7136 O.3     1  UNL1       -0.4451
     13 C          -2.9363  -19.5093   21.7260 C.2     1  UNL1        0.3369
     14 O          -1.6920  -20.2340   21.3057 O.2     1  UNL1       -0.2453
     15 C          -4.3259  -19.7840   21.2324 C.2     1  UNL1        0.0492
     16 C          -4.7151  -20.8316   20.2320 C.3     1  UNL1        0.0373
     17 C          -5.2578  -18.8271   21.9150 C.2     1  UNL1       -0.0022
     18 C          -6.7379  -18.8006   21.6728 C.3     1  UNL1        0.0319
     19 C          -7.7698  -17.9013   22.2863 C.3     1  UNL1        0.0521
     20 H         -10.1404  -14.8806   24.5438 H       1  UNL1        0.2109
@<TRIPOS>BOND
     1     1     2    1
     2     2     3    2
     3     3     4    1
     4     4     5    1
     5     4     6    1
     6     6     7    1
     7     7     8    1
     8     8     9    1
     9     8    10    1
    10    11    10    1
    11    11    12    1
    12    12    13    1
    13    13    14    2
    14    13    15    1
    15    15    16    1
    16    15    17    2
    17    17    18    1
    18    19    18    1
    19    19     2    1
    20     8     6    1
    21    17    11    1
    22    19     6    1
    23     5    20    1
@<TRIPOS>MOLECULE
*****
 20 23 0 0 0
SMALL
GASTEIGER

@<TRIPOS>ATOM
      1 C          -9.1222  -20.6923   18.1807 C.3     1  UNL1        0.0262
      2 C          -9.3273  -19.7822   19.3553 C.2     1  UNL1       -0.0433
      3 C         -10.6334  -19.1889   19.7934 C.2     1  UNL1       -0.0034
      4 C         -10.3755  -18.3455   21.0069 C.3     1  UNL1        0.1590
      5 O         -11.4029  -17.5669   21.7738 O.3     1  UNL1       -0.3776
      6 C          -8.9101  -18.4177   21.3186 C.3     1  UNL1        0.1471
      7 O          -9.7490  -17.5714   22.2296 O.3     1  UNL1       -0.3554
      8 C          -8.2739  -17.6978   22.4706 C.3     1  UNL1        0.1220
      9 C          -8.5009  -16.7867   23.6404 C.3     1  UNL1        0.0323
     10 C          -6.8327  -17.6881   22.8863 C.3     1  UNL1        0.0776
     11 C          -5.6717  -18.3957   22.2529 C.3     1  UNL1        0.1898
     12 O          -4.2665  -18.3042   22.7693 O.3     1  UNL1       -0.4451
     13 C          -3.3915  -19.1398   21.8827 C.2     1  UNL1        0.3369
     14 O          -1.9117  -19.3334   22.0340 O.2     1  UNL1       -0.2453
     15 C          -4.2560  -19.7478   20.8183 C.2     1  UNL1        0.0492
     16 C          -3.7925  -20.6562   19.7183 C.3     1  UNL1        0.0373
     17 C          -5.6652  -19.2879   21.0471 C.2     1  UNL1       -0.0022
     18 C          -6.8181  -19.6929   20.1770 C.3     1  UNL1        0.0319
     19 C          -8.2621  -19.3055   20.2979 C.3     1  UNL1        0.0521
     20 H         -12.2736  -17.6896   21.3644 H       1  UNL1        0.2109
@<TRIPOS>BOND
     1     1     2    1
     2     2     3    2
     3     3     4    1
     4     4     5    1
     5     4     6    1
     6     6     7    1
     7     7     8    1
     8     8     9    1
     9     8    10    1
    10    11    10    1
    11    11    12    1
    12    12    13    1
    13    13    14    2
    14    13    15    1
    15    15    16    1
    16    15    17    2
    17    17    18    1
    18    19    18    1
    19    19     2    1
    20     8     6    1
    21    17    11    1
    22    19     6    1
    23     5    20    1
@<TRIPOS>MOLECULE
*****
 20 23 0 0 0
SMALL
GASTEIGER

@<TRIPOS>ATOM
      1 C         -10.0256   -8.1326   17.9281 C.3     1  UNL1        0.0262
      2 C         -10.4531   -6.7541   18.3367 C.2     1  UNL1       -0.0433
      3 C          -9.5592   -5.5569   18.4693 C.2     1  UNL1       -0.0034
      4 C         -10.4032   -4.3937   18.8990 C.3     1  UNL1        0.1590
      5 O          -9.9170   -2.9973   19.1515 O.3     1  UNL1       -0.3776
      6 C         -11.8186   -4.8720   19.0319 C.3     1  UNL1        0.1471
      7 O         -11.5678   -3.4251   19.3379 O.3     1  UNL1       -0.3554
      8 C         -12.9552   -3.9850   19.4461 C.3     1  UNL1        0.1220
      9 C         -13.3615   -2.5995   19.8527 C.3     1  UNL1        0.0323
     10 C         -14.4033   -4.3379   19.6151 C.3     1  UNL1        0.0776
     11 C         -15.0725   -5.6648   19.4116 C.3     1  UNL1        0.1898
     12 O         -16.5414   -5.8893   19.6153 O.3     1  UNL1       -0.4451
     13 C         -16.8358   -7.3299   19.3185 C.2     1  UNL1        0.3369
     14 O         -18.1811   -7.9889   19.3953 O.2     1  UNL1       -0.2453
     15 C         -15.5486   -7.9957   18.9313 C.2     1  UNL1        0.0492
     16 C         -15.3808   -9.4375   18.5530 C.3     1  UNL1        0.0373
     17 C         -14.4589   -6.9667   18.9889 C.2     1  UNL1       -0.0022
     18 C         -13.0245   -7.2631   18.6652 C.3     1  UNL1        0.0319
     19 C         -11.8495   -6.3308   18.6844 C.3     1  UNL1        0.0521
     20 H          -8.9609   -2.9544   18.9939 H       1  UNL1        0.2109
@<TRIPOS>BOND
     1     1     2    1
     2     2     3    2
     3     3     4    1
     4     4     5    1
     5     4     6    1
     6     6     7    1
     7     7     8    1
     8     8     9    1
     9     8    10    1
    10    11    10    1
    11    11    12    1
    12    12    13    1
    13    13    14    2
    14    13    15    1
    15    15    16    1
    16    15    17    2
    17    17    18    1
    18    19    18    1
    19    19     2    1
    20     8     6    1
    21    17    11    1
    22    19     6    1
    23     5    20    1
@<TRIPOS>MOLECULE
*****
 20 23 0 0 0
SMALL
GASTEIGER

@<TRIPOS>ATOM
      1 C          -5.6420  -14.7622   25.7497 C.3     1  UNL1        0.0262
      2 C          -6.6620  -15.4429   24.8859 C.2     1  UNL1       -0.0433
      3 C          -8.1362  -15.1659   24.8774 C.2     1  UNL1       -0.0034
      4 C          -8.7721  -16.0720   23.8651 C.3     1  UNL1        0.1590
      5 O         -10.2328  -16.1307   23.5290 O.3     1  UNL1       -0.3776
      6 C          -7.6911  -16.9087   23.2479 C.3     1  UNL1        0.1471
      7 O          -9.0869  -17.1432   22.7514 O.3     1  UNL1       -0.3554
      8 C          -7.9467  -17.9378   22.1870 C.3     1  UNL1        0.1220
      9 C          -8.9828  -18.6059   21.3324 C.3     1  UNL1        0.0323
     10 C          -6.9613  -18.8323   21.4949 C.3     1  UNL1        0.0776
     11 C          -5.4770  -18.9186   21.6927 C.3     1  UNL1        0.1898
     12 O          -4.5954  -19.8635   20.9313 O.3     1  UNL1       -0.4451
     13 C          -3.1849  -19.6606   21.3996 C.2     1  UNL1        0.3369
     14 O          -1.9766  -20.3986   20.9039 O.2     1  UNL1       -0.2453
     15 C          -3.1947  -18.5903   22.4505 C.2     1  UNL1        0.0492
     16 C          -1.9981  -18.0701   23.1902 C.3     1  UNL1        0.0373
     17 C          -4.6113  -18.1318   22.6317 C.2     1  UNL1       -0.0022
     18 C          -5.0162  -17.0642   23.6046 C.3     1  UNL1        0.0319
     19 C          -6.3868  -16.5200   23.8788 C.3     1  UNL1        0.0521
     20 H         -10.7154  -15.4867   24.0706 H       1  UNL1        0.2109
@<TRIPOS>BOND
     1     1     2    1
     2     2     3    2
     3     3     4    1
     4     4     5    1
     5     4     6    1
     6     6     7    1
     7     7     8    1
     8     8     9    1
     9     8    10    1
    10    11    10    1
    11    11    12    1
    12    12    13    1
    13    13    14    2
    14    13    15    1
    15    15    16    1
    16    15    17    2
    17    17    18    1
    18    19    18    1
    19    19     2    1
    20     8     6    1
    21    17    11    1
    22    19     6    1
    23     5    20    1
@<TRIPOS>MOLECULE
*****
 20 23 0 0 0
SMALL
GASTEIGER

@<TRIPOS>ATOM
      1 C         -12.6752  -17.7742   23.4651 C.3     1  UNL1        0.0262
      2 C         -11.5802  -18.2296   22.5468 C.2     1  UNL1       -0.0433
      3 C         -11.7491  -19.1005   21.3372 C.2     1  UNL1       -0.0034
      4 C         -10.3972  -19.3031   20.7196 C.3     1  UNL1        0.1590
      5 O         -10.1016  -20.1098   19.4900 O.3     1  UNL1       -0.3776
      6 C          -9.3929  -18.5577   21.5475 C.3     1  UNL1        0.1471
      7 O          -8.8627  -19.2984   20.3558 O.3     1  UNL1       -0.3554
      8 C          -7.9256  -18.5270   21.2371 C.3     1  UNL1        0.1220
      9 C          -6.8457  -18.9935   20.3065 C.3     1  UNL1        0.0323
     10 C          -6.8272  -17.8253   21.9794 C.3     1  UNL1        0.0776
     11 C          -6.9245  -16.9809   23.2154 C.3     1  UNL1        0.1898
     12 O          -5.7409  -16.3287   23.8659 O.3     1  UNL1       -0.4451
     13 C          -6.2293  -15.5744   25.0670 C.2     1  UNL1        0.3369
     14 O          -5.3809  -14.7744   26.0107 O.2     1  UNL1       -0.2453
     15 C          -7.7149  -15.7604   25.1587 C.2     1  UNL1        0.0492
     16 C          -8.6129  -15.1792   26.2101 C.3     1  UNL1        0.0373
     17 C          -8.1446  -16.6297   24.0143 C.2     1  UNL1       -0.0022
     18 C          -9.5685  -17.0361   23.7746 C.3     1  UNL1        0.0319
     19 C         -10.1239  -17.8941   22.6768 C.3     1  UNL1        0.0521
     20 H         -10.9258  -20.4882   19.1457 H       1  UNL1        0.2109
@<TRIPOS>BOND
     1     1     2    1
     2     2     3    2
     3     3     4    1
     4     4     5    1
     5     4     6    1
     6     6     7    1
     7     7     8    1
     8     8     9    1
     9     8    10    1
    10    11    10    1
    11    11    12    1
    12    12    13    1
    13    13    14    2
    14    13    15    1
    15    15    16    1
    16    15    17    2
    17    17    18    1
    18    19    18    1
    19    19     2    1
    20     8     6    1
    21    17    11    1
    22    19     6    1
    23     5    20    1
@<TRIPOS>MOLECULE
*****
 20 23 0 0 0
SMALL
GASTEIGER

@<TRIPOS>ATOM
      1 C          -7.1989  -20.0032   19.8857 C.3     1  UNL1        0.0262
      2 C          -8.4278  -19.2984   20.3785 C.2     1  UNL1       -0.0433
      3 C          -9.8274  -19.5176   19.8856 C.2     1  UNL1       -0.0034
      4 C         -10.7375  -18.6052   20.6533 C.3     1  UNL1        0.1590
      5 O         -12.2238  -18.4954   20.4834 O.3     1  UNL1       -0.3776
      6 C          -9.9004  -17.8221   21.6207 C.3     1  UNL1        0.1471
      7 O         -11.3739  -17.5421   21.6288 O.3     1  UNL1       -0.3554
      8 C         -10.4648  -16.8025   22.5650 C.3     1  UNL1        0.1220
      9 C         -11.7062  -16.1094   23.0433 C.3     1  UNL1        0.0323
     10 C          -9.7411  -15.9593   23.5726 C.3     1  UNL1        0.0776
     11 C          -8.2744  -15.9275   23.8850 C.3     1  UNL1        0.1898
     12 O          -7.6702  -15.0312   24.9247 O.3     1  UNL1       -0.4451
     13 C          -6.1913  -15.2807   24.9491 C.2     1  UNL1        0.3369
     14 O          -5.1967  -14.5992   25.8417 O.2     1  UNL1       -0.2453
     15 C          -5.8815  -16.3314   23.9244 C.2     1  UNL1        0.0492
     16 C          -4.5229  -16.8850   23.6122 C.3     1  UNL1        0.0373
     17 C          -7.1690  -16.7311   23.2667 C.2     1  UNL1       -0.0022
     18 C          -7.2572  -17.7650   22.1834 C.3     1  UNL1        0.0319
     19 C          -8.4729  -18.2504   21.4509 C.3     1  UNL1        0.0521
     20 H         -12.5167  -19.1106   19.7930 H       1  UNL1        0.2109
@<TRIPOS>BOND
     1     1     2    1
     2     2     3    2
     3     3     4    1
     4     4     5    1
     5     4     6    1
     6     6     7    1
     7     7     8    1
     8     8     9    1
     9     8    10    1
    10    11    10    1
    11    11    12    1
    12    12    13    1
    13    13    14    2
    14    13    15    1
    15    15    16    1
    16    15    17    2
    17    17    18    1
    18    19    18    1
    19    19     2    1
    20     8     6    1
    21    17    11    1
    22    19     6    1
    23     5    20    1
@<TRIPOS>MOLECULE
*****
 20 23 0 0 0
SMALL
GASTEIGER

@<TRIPOS>ATOM
      1 C         -12.8882  -18.2573   23.7913 C.3     1  UNL1        0.0262
      2 C         -12.2165  -17.4246   22.7400 C.2     1  UNL1       -0.0433
      3 C         -12.7375  -17.1604   21.3585 C.2     1  UNL1       -0.0034
      4 C         -11.7488  -16.2824   20.6503 C.3     1  UNL1        0.1590
      5 O         -11.8708  -15.7723   19.2449 O.3     1  UNL1       -0.3776
      6 C         -10.6167  -16.0040   21.5940 C.3     1  UNL1        0.1471
      7 O         -10.5223  -15.3838   20.2316 O.3     1  UNL1       -0.3554
      8 C          -9.4324  -15.1557   21.2366 C.3     1  UNL1        0.1220
      9 C          -8.7776  -14.3272   20.1712 C.3     1  UNL1        0.0323
     10 C          -8.2446  -14.8039   22.0824 C.3     1  UNL1        0.0776
     11 C          -7.9477  -15.2133   23.4946 C.3     1  UNL1        0.1898
     12 O          -6.7140  -14.7908   24.2354 O.3     1  UNL1       -0.4451
     13 C          -6.7690  -15.3922   25.6085 C.2     1  UNL1        0.3369
     14 O          -5.7372  -15.2281   26.6849 O.2     1  UNL1       -0.2453
     15 C          -8.0369  -16.1864   25.7162 C.2     1  UNL1        0.0492
     16 C          -8.4956  -16.9560   26.9192 C.3     1  UNL1        0.0373
     17 C          -8.7654  -16.0759   24.4097 C.2     1  UNL1       -0.0022
     18 C         -10.0818  -16.7420   24.1387 C.3     1  UNL1        0.0319
     19 C         -10.9057  -16.7100   22.8856 C.3     1  UNL1        0.0521
     20 H         -12.6963  -16.0981   18.8533 H       1  UNL1        0.2109
@<TRIPOS>BOND
     1     1     2    1
     2     2     3    2
     3     3     4    1
     4     4     5    1
     5     4     6    1
     6     6     7    1
     7     7     8    1
     8     8     9    1
     9     8    10    1
    10    11    10    1
    11    11    12    1
    12    12    13    1
    13    13    14    2
    14    13    15    1
    15    15    16    1
    16    15    17    2
    17    17    18    1
    18    19    18    1
    19    19     2    1
    20     8     6    1
    21    17    11    1
    22    19     6    1
    23     5    20    1
@<TRIPOS>MOLECULE
*****
 20 23 0 0 0
SMALL
GASTEIGER

@<TRIPOS>ATOM
      1 C         -11.8721  -17.3498   21.0165 C.3     1  UNL1        0.0262
      2 C         -10.7003  -18.1745   20.5731 C.2     1  UNL1       -0.0433
      3 C         -10.7161  -19.2246   19.5021 C.2     1  UNL1       -0.0034
      4 C          -9.3324  -19.7930   19.3899 C.3     1  UNL1        0.1590
      5 O          -8.8963  -20.8710   18.4424 O.3     1  UNL1       -0.3776
      6 C          -8.4616  -19.0942   20.3915 C.3     1  UNL1        0.1471
      7 O          -7.8031  -20.1444   19.5469 O.3     1  UNL1       -0.3554
      8 C          -7.0039  -19.3975   20.5732 C.3     1  UNL1        0.1220
      9 C          -5.8452  -20.2326   20.1148 C.3     1  UNL1        0.0323
     10 C          -6.0315  -18.7754   21.5311 C.3     1  UNL1        0.0776
     11 C          -6.2766  -17.6963   22.5438 C.3     1  UNL1        0.1898
     12 O          -5.2106  -17.1560   23.4501 O.3     1  UNL1       -0.4451
     13 C          -5.8298  -16.0986   24.3152 C.2     1  UNL1        0.3369
     14 O          -5.1241  -15.2954   25.3673 O.2     1  UNL1       -0.2453
     15 C          -7.2787  -15.9855   23.9436 C.2     1  UNL1        0.0492
     16 C          -8.2761  -15.0492   24.5588 C.3     1  UNL1        0.0373
     17 C          -7.5548  -16.9729   22.8488 C.2     1  UNL1       -0.0022
     18 C          -8.9035  -17.1498   22.2164 C.3     1  UNL1        0.0319
     19 C          -9.3070  -18.0939   21.1228 C.3     1  UNL1        0.0521
     20 H          -9.6518  -21.1524   17.9031 H       1  UNL1        0.2109
@<TRIPOS>BOND
     1     1     2    1
     2     2     3    2
     3     3     4    1
     4     4     5    1
     5     4     6    1
     6     6     7    1
     7     7     8    1
     8     8     9    1
     9     8    10    1
    10    11    10    1
    11    11    12    1
    12    12    13    1
    13    13    14    2
    14    13    15    1
    15    15    16    1
    16    15    17    2
    17    17    18    1
    18    19    18    1
    19    19     2    1
    20     8     6    1
    21    17    11    1
    22    19     6    1
    23     5    20    1
