@<TRIPOS>MOLECULE
*****
 29 32 0 0 0
SMALL
GASTEIGER

@<TRIPOS>ATOM
      1 C          -7.0386  -16.1560   23.9441 C.ar    1  UNL1        0.0912
      2 C          -8.3275  -16.2820   23.1872 C.ar    1  UNL1        0.0466
      3 C          -9.6312  -16.0039   23.8748 C.ar    1  UNL1        0.1631
      4 C          -9.6462  -15.5997   25.3193 C.ar    1  UNL1        0.1193
      5 N          -8.3573  -15.4737   26.0761 N.ar    1  UNL1       -0.2846
      6 C          -8.0607  -15.0967   27.4973 C.ar    1  UNL1        0.1023
      7 C          -6.5736  -15.1418   27.6881 C.ar    1  UNL1        0.1195
      8 N          -5.9511  -15.5467   26.3848 N.ar    1  UNL1       -0.2247
      9 C          -7.0535  -15.7519   25.3885 C.ar    1  UNL1        0.1524
     10 N          -5.4757  -17.7850   22.6581 N.am    1  UNL1       -0.2657
     11 C          -5.7348  -16.4342   23.2565 C.2     1  UNL1        0.2536
     12 O          -4.6901  -15.3614   23.1673 O.2     1  UNL1       -0.2697
     13 H          -6.1613  -18.4891   22.7167 H       1  UNL1        0.1566
     14 C          -1.5641  -18.6192   20.5956 C.ar    1  UNL1        0.1579
     15 C          -1.5909  -18.3436   22.0698 C.ar    1  UNL1        0.0414
     16 C          -2.8947  -18.0655   22.7573 C.ar    1  UNL1        0.0376
     17 C          -4.1719  -18.0631   21.9706 C.ar    1  UNL1        0.1346
     18 N          -4.1451  -18.3388   20.4964 N.ar    1  UNL1       -0.2258
     19 C          -2.8414  -18.6168   19.8089 C.ar    1  UNL1        0.1371
     20 C           0.8083  -17.8452   19.8728 C.3     1  UNL1        0.2525
     21 O          -0.2604  -18.8973   19.9081 O.3     1  UNL1       -0.4699
     22 O         -10.9202  -16.1299   23.1178 O.3     1  UNL1       -0.4503
     23 C         -11.0177  -17.0715   21.9542 C.ar    1  UNL1        0.1667
     24 C         -11.1129  -16.5312   20.5582 C.ar    1  UNL1        0.1364
     25 N         -11.2104  -17.4727   19.3946 N.ar    1  UNL1       -0.2368
     26 C         -11.2127  -18.9546   19.6270 C.ar    1  UNL1        0.1286
     27 C         -11.1174  -19.4949   21.0231 C.ar    1  UNL1        0.1623
     28 F         -11.1197  -20.9768   21.2557 F       1  UNL1       -0.2024
     29 C         -11.0200  -18.5533   22.1867 C.ar    1  UNL1        0.0703
@<TRIPOS>BOND
     1    20    21    1
     2    21    14    1
     3    14    15   ar
     4    15    16   ar
     5    16    17   ar
     6    17    10    1
     7    10    11   am
     8    11    12    2
     9    11     1    1
    10     1     2   ar
    11     2     3   ar
    12     3    22    1
    13    22    23    1
    14    23    24   ar
    15    24    25   ar
    16    25    26   ar
    17    26    27   ar
    18    27    28    1
    19    27    29   ar
    20     3     4   ar
    21     4     5   ar
    22     5     6   ar
    23     6     7   ar
    24     7     8   ar
    25     8     9   ar
    26    17    18   ar
    27    18    19   ar
    28    19    14   ar
    29     9     1   ar
    30    29    23   ar
    31     9     5   ar
    32    10    13    1
@<TRIPOS>MOLECULE
*****
 29 32 0 0 0
SMALL
GASTEIGER

@<TRIPOS>ATOM
      1 C           2.9615    1.0045   32.9097 C.ar    1  UNL1        0.0912
      2 C           2.9999    1.7334   34.2201 C.ar    1  UNL1        0.0466
      3 C           3.9523    1.2970   35.2934 C.ar    1  UNL1        0.1631
      4 C           4.8665    0.1315   35.0565 C.ar    1  UNL1        0.1193
      5 N           4.8281   -0.5974   33.7460 N.ar    1  UNL1       -0.2846
      6 C           5.6033   -1.7724   33.2281 C.ar    1  UNL1        0.1023
      7 C           5.1299   -2.0622   31.8346 C.ar    1  UNL1        0.1195
      8 N           4.0621   -1.0662   31.4913 N.ar    1  UNL1       -0.2247
      9 C           3.8756   -0.1609   32.6727 C.ar    1  UNL1        0.1524
     10 N           2.1307    0.8783   30.4512 N.am    1  UNL1       -0.2657
     11 C           2.0089    1.4410   31.8363 C.2     1  UNL1        0.2536
     12 O           0.9345    2.4404   32.1480 O.2     1  UNL1       -0.2697
     13 H           2.8359    0.2224   30.2466 H       1  UNL1        0.1566
     14 C          -0.7271    2.1878   27.2313 C.ar    1  UNL1        0.1579
     15 C          -0.9641    0.9023   27.9670 C.ar    1  UNL1        0.0414
     16 C          -0.0114    0.4658   29.0403 C.ar    1  UNL1        0.0376
     17 C           1.1782    1.3149   29.3779 C.ar    1  UNL1        0.1346
     18 N           1.4151    2.6004   28.6422 N.ar    1  UNL1       -0.2258
     19 C           0.4626    3.0369   27.5690 C.ar    1  UNL1        0.1371
     20 C          -2.7844    3.5862   26.4814 C.3     1  UNL1        0.2525
     21 O          -1.6797    2.6243   26.1580 O.3     1  UNL1       -0.4699
     22 O           3.9908    2.0259   36.6039 O.3     1  UNL1       -0.4503
     23 C           2.7914    2.0132   37.5047 C.ar    1  UNL1        0.1667
     24 C           1.9002    3.2171   37.5841 C.ar    1  UNL1        0.1364
     25 N           0.7009    3.2044   38.4849 N.ar    1  UNL1       -0.2368
     26 C           0.3926    1.9876   39.3062 C.ar    1  UNL1        0.1286
     27 C           1.2838    0.7837   39.2267 C.ar    1  UNL1        0.1623
     28 F           0.9757   -0.4332   40.0481 F       1  UNL1       -0.2024
     29 C           2.4832    0.7965   38.3260 C.ar    1  UNL1        0.0703
@<TRIPOS>BOND
     1    20    21    1
     2    21    14    1
     3    14    15   ar
     4    15    16   ar
     5    16    17   ar
     6    17    10    1
     7    10    11   am
     8    11    12    2
     9    11     1    1
    10     1     2   ar
    11     2     3   ar
    12     3    22    1
    13    22    23    1
    14    23    24   ar
    15    24    25   ar
    16    25    26   ar
    17    26    27   ar
    18    27    28    1
    19    27    29   ar
    20     3     4   ar
    21     4     5   ar
    22     5     6   ar
    23     6     7   ar
    24     7     8   ar
    25     8     9   ar
    26    17    18   ar
    27    18    19   ar
    28    19    14   ar
    29     9     1   ar
    30    29    23   ar
    31     9     5   ar
    32    10    13    1
@<TRIPOS>MOLECULE
*****
 29 32 0 0 0
SMALL
GASTEIGER

@<TRIPOS>ATOM
      1 C           0.2172    2.3118   22.6819 C.ar    1  UNL1        0.0912
      2 C           0.4460    2.5276   24.1485 C.ar    1  UNL1        0.0466
      3 C          -0.5926    3.2262   24.9749 C.ar    1  UNL1        0.1631
      4 C          -1.8603    3.7092   24.3346 C.ar    1  UNL1        0.1193
      5 N          -2.0892    3.4934   22.8680 N.ar    1  UNL1       -0.2846
      6 C          -3.2319    3.8561   21.9665 C.ar    1  UNL1        0.1023
      7 C          -2.8993    3.3815   20.5829 C.ar    1  UNL1        0.1195
      8 N          -1.5511    2.7256   20.6293 N.ar    1  UNL1       -0.2247
      9 C          -1.0504    2.7948   22.0416 C.ar    1  UNL1        0.1524
     10 N           0.8383    0.7003   20.7410 N.am    1  UNL1       -0.2657
     11 C           1.2560    1.6132   21.8555 C.2     1  UNL1        0.2536
     12 O           2.7124    1.8275   22.1436 O.2     1  UNL1       -0.2697
     13 H          -0.1175    0.5596   20.5519 H       1  UNL1        0.1566
     14 C           3.9548   -1.3957   18.2621 C.ar    1  UNL1        0.1579
     15 C           3.5173   -1.9837   19.5709 C.ar    1  UNL1        0.0414
     16 C           2.4785   -1.2851   20.3971 C.ar    1  UNL1        0.0376
     17 C           1.8772    0.0016   19.9147 C.ar    1  UNL1        0.1346
     18 N           2.3147    0.5896   18.6059 N.ar    1  UNL1       -0.2258
     19 C           3.3534   -0.1090   17.7797 C.ar    1  UNL1        0.1371
     20 C           6.3649   -2.3292   17.9968 C.3     1  UNL1        0.2525
     21 O           4.9936   -2.0943   17.4359 O.3     1  UNL1       -0.4699
     22 O          -0.3637    3.4419   26.4416 O.3     1  UNL1       -0.4503
     23 C           0.0266    2.2884   27.3174 C.ar    1  UNL1        0.1667
     24 C           1.4134    2.2126   27.8840 C.ar    1  UNL1        0.1364
     25 N           1.8038    1.0591   28.7598 N.ar    1  UNL1       -0.2368
     26 C           0.8074   -0.0187   29.0690 C.ar    1  UNL1        0.1286
     27 C          -0.5794    0.0571   28.5024 C.ar    1  UNL1        0.1623
     28 F          -1.5759   -1.0206   28.8115 F       1  UNL1       -0.2024
     29 C          -0.9698    1.2106   27.6266 C.ar    1  UNL1        0.0703
@<TRIPOS>BOND
     1    20    21    1
     2    21    14    1
     3    14    15   ar
     4    15    16   ar
     5    16    17   ar
     6    17    10    1
     7    10    11   am
     8    11    12    2
     9    11     1    1
    10     1     2   ar
    11     2     3   ar
    12     3    22    1
    13    22    23    1
    14    23    24   ar
    15    24    25   ar
    16    25    26   ar
    17    26    27   ar
    18    27    28    1
    19    27    29   ar
    20     3     4   ar
    21     4     5   ar
    22     5     6   ar
    23     6     7   ar
    24     7     8   ar
    25     8     9   ar
    26    17    18   ar
    27    18    19   ar
    28    19    14   ar
    29     9     1   ar
    30    29    23   ar
    31     9     5   ar
    32    10    13    1
@<TRIPOS>MOLECULE
*****
 29 32 0 0 0
SMALL
GASTEIGER

@<TRIPOS>ATOM
      1 C          -7.8460  -18.3166   21.7092 C.ar    1  UNL1        0.0912
      2 C          -8.0767  -17.7508   23.0791 C.ar    1  UNL1        0.0466
      3 C          -9.4701  -17.6546   23.6259 C.ar    1  UNL1        0.1631
      4 C         -10.6329  -18.1243   22.8028 C.ar    1  UNL1        0.1193
      5 N         -10.4022  -18.6900   21.4329 N.ar    1  UNL1       -0.2846
      6 C         -11.3446  -19.2288   20.3977 C.ar    1  UNL1        0.1023
      7 C         -10.5335  -19.6580   19.2111 C.ar    1  UNL1        0.1195
      8 N          -9.0899  -19.3844   19.5129 N.ar    1  UNL1       -0.2247
      9 C          -9.0087  -18.7862   20.8861 C.ar    1  UNL1        0.1524
     10 N          -5.2752  -18.2929   22.0841 N.am    1  UNL1       -0.2657
     11 C          -6.4525  -18.4127   21.1624 C.2     1  UNL1        0.2536
     12 O          -6.2363  -18.6288   19.6938 O.2     1  UNL1       -0.2697
     13 H          -5.4170  -18.1511   23.0480 H       1  UNL1        0.1566
     14 C          -1.0948  -18.5815   20.4434 C.ar    1  UNL1        0.1579
     15 C          -1.9168  -19.8231   20.6246 C.ar    1  UNL1        0.0414
     16 C          -3.3103  -19.7268   21.1715 C.ar    1  UNL1        0.0376
     17 C          -3.8817  -18.3890   21.5372 C.ar    1  UNL1        0.1346
     18 N          -3.0597  -17.1475   21.3560 N.ar    1  UNL1       -0.2258
     19 C          -1.6664  -17.2437   20.8091 C.ar    1  UNL1        0.1371
     20 C           1.2766  -17.5658   20.1357 C.3     1  UNL1        0.2525
     21 O           0.2985  -18.6778   19.8966 O.3     1  UNL1       -0.4699
     22 O          -9.7008  -17.0888   24.9959 O.3     1  UNL1       -0.4503
     23 C          -8.5641  -16.4670   25.7517 C.ar    1  UNL1        0.1667
     24 C          -8.5832  -16.4461   27.2514 C.ar    1  UNL1        0.1364
     25 N          -7.4465  -15.8243   28.0073 N.ar    1  UNL1       -0.2368
     26 C          -6.2908  -15.2235   27.2634 C.ar    1  UNL1        0.1286
     27 C          -6.2718  -15.2444   25.7637 C.ar    1  UNL1        0.1623
     28 F          -5.1160  -14.6436   25.0197 F       1  UNL1       -0.2024
     29 C          -7.4084  -15.8662   25.0079 C.ar    1  UNL1        0.0703
@<TRIPOS>BOND
     1    20    21    1
     2    21    14    1
     3    14    15   ar
     4    15    16   ar
     5    16    17   ar
     6    17    10    1
     7    10    11   am
     8    11    12    2
     9    11     1    1
    10     1     2   ar
    11     2     3   ar
    12     3    22    1
    13    22    23    1
    14    23    24   ar
    15    24    25   ar
    16    25    26   ar
    17    26    27   ar
    18    27    28    1
    19    27    29   ar
    20     3     4   ar
    21     4     5   ar
    22     5     6   ar
    23     6     7   ar
    24     7     8   ar
    25     8     9   ar
    26    17    18   ar
    27    18    19   ar
    28    19    14   ar
    29     9     1   ar
    30    29    23   ar
    31     9     5   ar
    32    10    13    1
@<TRIPOS>MOLECULE
*****
 29 32 0 0 0
SMALL
GASTEIGER

@<TRIPOS>ATOM
      1 C           1.4790    1.7037   19.3799 C.ar    1  UNL1        0.0912
      2 C           1.9108    0.3869   18.8059 C.ar    1  UNL1        0.0466
      3 C           3.1977    0.2876   18.0419 C.ar    1  UNL1        0.1631
      4 C           4.0530    1.5051   17.8519 C.ar    1  UNL1        0.1193
      5 N           3.6213    2.8220   18.4259 N.ar    1  UNL1       -0.2846
      6 C           4.2515    4.1829   18.4007 C.ar    1  UNL1        0.1023
      7 C           3.3540    5.1233   19.1491 C.ar    1  UNL1        0.1195
      8 N           2.1691    4.3436   19.6369 N.ar    1  UNL1       -0.2247
      9 C           2.3342    2.9212   19.1899 C.ar    1  UNL1        0.1524
     10 N          -0.4573    3.1395   20.3490 N.am    1  UNL1       -0.2657
     11 C           0.1920    1.8030   20.1440 C.2     1  UNL1        0.2536
     12 O          -0.4458    0.5656   20.7029 O.2     1  UNL1       -0.2697
     13 H          -0.0388    3.9516   19.9822 H       1  UNL1        0.1566
     14 C          -4.3183    3.4371   22.6413 C.ar    1  UNL1        0.1579
     15 C          -3.0124    3.6854   23.3363 C.ar    1  UNL1        0.0414
     16 C          -1.7255    3.5862   22.5722 C.ar    1  UNL1        0.0376
     17 C          -1.7444    3.2387   21.1131 C.ar    1  UNL1        0.1346
     18 N          -3.0503    2.9904   20.4181 N.ar    1  UNL1       -0.2258
     19 C          -4.3372    3.0896   21.1822 C.ar    1  UNL1        0.1371
     20 C          -5.6512    4.2877   24.7029 C.3     1  UNL1        0.2525
     21 O          -5.6052    3.5363   23.4053 O.3     1  UNL1       -0.4699
     22 O           3.6295   -1.0293   17.4679 O.3     1  UNL1       -0.4503
     23 C           4.3578   -2.0196   18.3275 C.ar    1  UNL1        0.1667
     24 C           5.8432   -1.9093   18.5048 C.ar    1  UNL1        0.1364
     25 N           6.5715   -2.8995   19.3644 N.ar    1  UNL1       -0.2368
     26 C           5.8145   -4.0000   20.0469 C.ar    1  UNL1        0.1286
     27 C           4.3291   -4.1103   19.8696 C.ar    1  UNL1        0.1623
     28 F           3.5719   -5.2108   20.5521 F       1  UNL1       -0.2024
     29 C           3.6007   -3.1201   19.0100 C.ar    1  UNL1        0.0703
@<TRIPOS>BOND
     1    20    21    1
     2    21    14    1
     3    14    15   ar
     4    15    16   ar
     5    16    17   ar
     6    17    10    1
     7    10    11   am
     8    11    12    2
     9    11     1    1
    10     1     2   ar
    11     2     3   ar
    12     3    22    1
    13    22    23    1
    14    23    24   ar
    15    24    25   ar
    16    25    26   ar
    17    26    27   ar
    18    27    28    1
    19    27    29   ar
    20     3     4   ar
    21     4     5   ar
    22     5     6   ar
    23     6     7   ar
    24     7     8   ar
    25     8     9   ar
    26    17    18   ar
    27    18    19   ar
    28    19    14   ar
    29     9     1   ar
    30    29    23   ar
    31     9     5   ar
    32    10    13    1
@<TRIPOS>MOLECULE
*****
 29 32 0 0 0
SMALL
GASTEIGER

@<TRIPOS>ATOM
      1 C           1.4376    0.6256   22.5793 C.ar    1  UNL1        0.0912
      2 C           2.5751   -0.2364   22.1176 C.ar    1  UNL1        0.0466
      3 C           3.5901   -0.7308   23.1050 C.ar    1  UNL1        0.1631
      4 C           3.4679   -0.3633   24.5542 C.ar    1  UNL1        0.1193
      5 N           2.3304    0.4986   25.0158 N.ar    1  UNL1       -0.2846
      6 C           1.9524    1.0209   26.3702 C.ar    1  UNL1        0.1023
      7 C           0.7036    1.8382   26.2198 C.ar    1  UNL1        0.1195
      8 N           0.3098    1.8210   24.7725 N.ar    1  UNL1       -0.2247
      9 C           1.3153    0.9931   24.0284 C.ar    1  UNL1        0.1524
     10 N          -0.0833    2.5295   21.6782 N.am    1  UNL1       -0.2657
     11 C           0.4225    1.1200   21.5918 C.2     1  UNL1        0.2536
     12 O          -0.0869    0.2049   20.5179 O.2     1  UNL1       -0.2697
     13 H           0.2511    3.1302   22.3830 H       1  UNL1        0.1566
     14 C          -3.1285    4.0127   18.7156 C.ar    1  UNL1        0.1579
     15 C          -1.6670    4.0760   18.3842 C.ar    1  UNL1        0.0414
     16 C          -0.6519    3.5816   19.3718 C.ar    1  UNL1        0.0376
     17 C          -1.0984    3.0239   20.6907 C.ar    1  UNL1        0.1346
     18 N          -2.5600    2.9606   21.0221 N.ar    1  UNL1       -0.2258
     19 C          -3.5750    3.4549   20.0346 C.ar    1  UNL1        0.1371
     20 C          -4.1902    3.9261   16.3459 C.3     1  UNL1        0.2525
     21 O          -4.1436    4.5070   17.7282 O.3     1  UNL1       -0.4699
     22 O           4.7277   -1.5929   22.6433 O.3     1  UNL1       -0.4503
     23 C           4.8431   -1.9706   21.1962 C.ar    1  UNL1        0.1667
     24 C           5.7123   -1.1639   20.2776 C.ar    1  UNL1        0.1364
     25 N           5.8277   -1.5416   18.8305 N.ar    1  UNL1       -0.2368
     26 C           5.0740   -2.7259   18.3020 C.ar    1  UNL1        0.1286
     27 C           4.2049   -3.5326   19.2206 C.ar    1  UNL1        0.1623
     28 F           3.4511   -4.7170   18.6923 F       1  UNL1       -0.2024
     29 C           4.0894   -3.1549   20.6677 C.ar    1  UNL1        0.0703
@<TRIPOS>BOND
     1    20    21    1
     2    21    14    1
     3    14    15   ar
     4    15    16   ar
     5    16    17   ar
     6    17    10    1
     7    10    11   am
     8    11    12    2
     9    11     1    1
    10     1     2   ar
    11     2     3   ar
    12     3    22    1
    13    22    23    1
    14    23    24   ar
    15    24    25   ar
    16    25    26   ar
    17    26    27   ar
    18    27    28    1
    19    27    29   ar
    20     3     4   ar
    21     4     5   ar
    22     5     6   ar
    23     6     7   ar
    24     7     8   ar
    25     8     9   ar
    26    17    18   ar
    27    18    19   ar
    28    19    14   ar
    29     9     1   ar
    30    29    23   ar
    31     9     5   ar
    32    10    13    1
@<TRIPOS>MOLECULE
*****
 29 32 0 0 0
SMALL
GASTEIGER

@<TRIPOS>ATOM
      1 C           7.4637   -4.0744   27.0328 C.ar    1  UNL1        0.0912
      2 C           7.5098   -3.1659   28.2255 C.ar    1  UNL1        0.0466
      3 C           7.9111   -3.7072   29.5656 C.ar    1  UNL1        0.1631
      4 C           8.2665   -5.1571   29.7130 C.ar    1  UNL1        0.1193
      5 N           8.2204   -6.0656   28.5203 N.ar    1  UNL1       -0.2846
      6 C           8.5143   -7.5278   28.3605 C.ar    1  UNL1        0.1023
      7 C           8.2945   -7.8901   26.9216 C.ar    1  UNL1        0.1195
      8 N           7.8649   -6.6518   26.1921 N.ar    1  UNL1       -0.2247
      9 C           7.8191   -5.5242   27.1802 C.ar    1  UNL1        0.1524
     10 N           6.1939   -4.3505   24.7831 N.am    1  UNL1       -0.2657
     11 C           7.0624   -3.5330   25.6927 C.2     1  UNL1        0.2536
     12 O           7.5294   -2.1740   25.2623 O.2     1  UNL1       -0.2697
     13 H           5.8874   -5.2424   25.0655 H       1  UNL1        0.1566
     14 C           4.9898   -2.7260   20.7629 C.ar    1  UNL1        0.1579
     15 C           4.2548   -2.2942   21.9971 C.ar    1  UNL1        0.0414
     16 C           4.6562   -2.8357   23.3372 C.ar    1  UNL1        0.0376
     17 C           5.7926   -3.8090   23.4430 C.ar    1  UNL1        0.1346
     18 N           6.5276   -4.2408   22.2088 N.ar    1  UNL1       -0.2258
     19 C           6.1263   -3.6993   20.8688 C.ar    1  UNL1        0.1371
     20 C           5.3774   -2.5482   18.2001 C.3     1  UNL1        0.2525
     21 O           4.5885   -2.1846   19.4230 O.3     1  UNL1       -0.4699
     22 O           7.9572   -2.7987   30.7583 O.3     1  UNL1       -0.4503
     23 C           6.6844   -2.2551   31.3366 C.ar    1  UNL1        0.1667
     24 C           6.1852   -0.9051   30.9144 C.ar    1  UNL1        0.1364
     25 N           4.9124   -0.3615   31.4927 N.ar    1  UNL1       -0.2368
     26 C           4.1387   -1.1679   32.4932 C.ar    1  UNL1        0.1286
     27 C           4.6379   -2.5179   32.9155 C.ar    1  UNL1        0.1623
     28 F           3.8642   -3.3244   33.9161 F       1  UNL1       -0.2024
     29 C           5.9107   -3.0615   32.3372 C.ar    1  UNL1        0.0703
@<TRIPOS>BOND
     1    20    21    1
     2    21    14    1
     3    14    15   ar
     4    15    16   ar
     5    16    17   ar
     6    17    10    1
     7    10    11   am
     8    11    12    2
     9    11     1    1
    10     1     2   ar
    11     2     3   ar
    12     3    22    1
    13    22    23    1
    14    23    24   ar
    15    24    25   ar
    16    25    26   ar
    17    26    27   ar
    18    27    28    1
    19    27    29   ar
    20     3     4   ar
    21     4     5   ar
    22     5     6   ar
    23     6     7   ar
    24     7     8   ar
    25     8     9   ar
    26    17    18   ar
    27    18    19   ar
    28    19    14   ar
    29     9     1   ar
    30    29    23   ar
    31     9     5   ar
    32    10    13    1
@<TRIPOS>MOLECULE
*****
 29 32 0 0 0
SMALL
GASTEIGER

@<TRIPOS>ATOM
      1 C           4.7093   -2.2278   24.1174 C.ar    1  UNL1        0.0912
      2 C           4.1902   -2.5338   22.7437 C.ar    1  UNL1        0.0466
      3 C           4.9703   -3.4315   21.8299 C.ar    1  UNL1        0.1631
      4 C           6.2697   -4.0235   22.2895 C.ar    1  UNL1        0.1193
      5 N           6.7889   -3.7176   23.6632 N.ar    1  UNL1       -0.2846
      6 C           8.0285   -4.1521   24.3874 C.ar    1  UNL1        0.1023
      7 C           8.0144   -3.5227   25.7489 C.ar    1  UNL1        0.1195
      8 N           6.7662   -2.6993   25.8662 N.ar    1  UNL1       -0.2247
      9 C           6.0087   -2.8197   24.5771 C.ar    1  UNL1        0.1524
     10 N           4.2310   -1.3102   26.5005 N.am    1  UNL1       -0.2657
     11 C           3.9292   -1.3300   25.0313 C.2     1  UNL1        0.2536
     12 O           2.8471   -0.4519   24.4759 O.2     1  UNL1       -0.2697
     13 H           4.9411   -1.8865   26.8649 H       1  UNL1        0.1566
     14 C           1.8903    1.3836   29.2419 C.ar    1  UNL1        0.1579
     15 C           2.8608    1.9720   28.2611 C.ar    1  UNL1        0.0414
     16 C           3.6410    1.0741   27.3473 C.ar    1  UNL1        0.0376
     17 C           3.4507   -0.4123   27.4143 C.ar    1  UNL1        0.1346
     18 N           2.4802   -1.0007   28.3951 N.ar    1  UNL1       -0.2258
     19 C           1.7001   -0.1029   29.3088 C.ar    1  UNL1        0.1371
     20 C           1.0764    2.0051   31.6296 C.3     1  UNL1        0.2525
     21 O           1.1102    2.2814   30.1556 O.3     1  UNL1       -0.4699
     22 O           4.4511   -3.7375   20.4562 O.3     1  UNL1       -0.4503
     23 C           4.5226   -2.6967   19.3784 C.ar    1  UNL1        0.1667
     24 C           5.7017   -2.6560   18.4520 C.ar    1  UNL1        0.1364
     25 N           5.7732   -1.6152   17.3742 N.ar    1  UNL1       -0.2368
     26 C           4.6656   -0.6151   17.2227 C.ar    1  UNL1        0.1286
     27 C           3.4865   -0.6558   18.1491 C.ar    1  UNL1        0.1623
     28 F           2.3788    0.3444   17.9977 F       1  UNL1       -0.2024
     29 C           3.4150   -1.6966   19.2269 C.ar    1  UNL1        0.0703
@<TRIPOS>BOND
     1    20    21    1
     2    21    14    1
     3    14    15   ar
     4    15    16   ar
     5    16    17   ar
     6    17    10    1
     7    10    11   am
     8    11    12    2
     9    11     1    1
    10     1     2   ar
    11     2     3   ar
    12     3    22    1
    13    22    23    1
    14    23    24   ar
    15    24    25   ar
    16    25    26   ar
    17    26    27   ar
    18    27    28    1
    19    27    29   ar
    20     3     4   ar
    21     4     5   ar
    22     5     6   ar
    23     6     7   ar
    24     7     8   ar
    25     8     9   ar
    26    17    18   ar
    27    18    19   ar
    28    19    14   ar
    29     9     1   ar
    30    29    23   ar
    31     9     5   ar
    32    10    13    1
@<TRIPOS>MOLECULE
*****
 29 32 0 0 0
SMALL
GASTEIGER

@<TRIPOS>ATOM
      1 C           5.0990   -1.3754   27.0876 C.ar    1  UNL1        0.0912
      2 C           4.1170   -0.4149   27.6902 C.ar    1  UNL1        0.0466
      3 C           4.0531   -0.2431   29.1789 C.ar    1  UNL1        0.1631
      4 C           4.9711   -1.0318   30.0651 C.ar    1  UNL1        0.1193
      5 N           5.9531   -1.9922   29.4625 N.ar    1  UNL1       -0.2846
      6 C           6.9766   -2.8996   30.0783 C.ar    1  UNL1        0.1023
      7 C           7.6731   -3.6322   28.9701 C.ar    1  UNL1        0.1195
      8 N           7.0801   -3.1776   27.6694 N.ar    1  UNL1       -0.2247
      9 C           6.0170   -2.1641   27.9737 C.ar    1  UNL1        0.1524
     10 N           3.9491   -2.0009   24.8434 N.am    1  UNL1       -0.2657
     11 C           5.1630   -1.5472   25.5988 C.2     1  UNL1        0.2536
     12 O           6.4409   -1.2654   24.8655 O.2     1  UNL1       -0.2697
     13 H           3.1104   -2.1858   25.3246 H       1  UNL1        0.1566
     14 C           4.1412   -2.5161   20.3770 C.ar    1  UNL1        0.1579
     15 C           3.4281   -1.3351   20.9658 C.ar    1  UNL1        0.0414
     16 C           3.3641   -1.1634   22.4546 C.ar    1  UNL1        0.0376
     17 C           4.0132   -2.1727   23.3546 C.ar    1  UNL1        0.1346
     18 N           4.7263   -3.3537   22.7658 N.ar    1  UNL1       -0.2258
     19 C           4.7903   -3.5254   21.2771 C.ar    1  UNL1        0.1371
     20 C           5.5153   -2.9924   18.2241 C.3     1  UNL1        0.2525
     21 O           4.2052   -2.6878   18.8884 O.3     1  UNL1       -0.4699
     22 O           3.0710    0.7174   29.7815 O.3     1  UNL1       -0.4503
     23 C           1.7289    0.9177   29.1421 C.ar    1  UNL1        0.1667
     24 C           1.4040    2.2201   28.4726 C.ar    1  UNL1        0.1364
     25 N           0.0619    2.4204   27.8333 N.ar    1  UNL1       -0.2368
     26 C          -0.9552    1.3183   27.8634 C.ar    1  UNL1        0.1286
     27 C          -0.6302    0.0159   28.5329 C.ar    1  UNL1        0.1623
     28 F          -1.6473   -1.0863   28.5631 F       1  UNL1       -0.2024
     29 C           0.7118   -0.1843   29.1723 C.ar    1  UNL1        0.0703
@<TRIPOS>BOND
     1    20    21    1
     2    21    14    1
     3    14    15   ar
     4    15    16   ar
     5    16    17   ar
     6    17    10    1
     7    10    11   am
     8    11    12    2
     9    11     1    1
    10     1     2   ar
    11     2     3   ar
    12     3    22    1
    13    22    23    1
    14    23    24   ar
    15    24    25   ar
    16    25    26   ar
    17    26    27   ar
    18    27    28    1
    19    27    29   ar
    20     3     4   ar
    21     4     5   ar
    22     5     6   ar
    23     6     7   ar
    24     7     8   ar
    25     8     9   ar
    26    17    18   ar
    27    18    19   ar
    28    19    14   ar
    29     9     1   ar
    30    29    23   ar
    31     9     5   ar
    32    10    13    1
