@<TRIPOS>MOLECULE
*****
 11 12 0 0 0
SMALL
GASTEIGER

@<TRIPOS>ATOM
      1 C         -10.8054  -17.4092   23.0538 C.ar    1  UNL1        0.0207
      2 C         -10.4813  -16.9997   21.6477 C.ar    1  UNL1        0.0989
      3 N          -9.2305  -16.2226   21.3622 N.ar    1  UNL1       -0.2423
      4 C          -8.3038  -15.8550   22.4828 C.ar    1  UNL1        0.0993
      5 C          -8.6279  -16.2644   23.8890 C.ar    1  UNL1        0.0252
      6 C          -9.8787  -17.0415   24.1745 C.ar    1  UNL1        0.0036
      7 C          -7.7011  -15.8967   25.0097 C.ar    1  UNL1        0.0310
      8 C          -8.0378  -15.9067   26.4715 C.ar    1  UNL1        0.0071
      9 C          -6.8198  -15.4707   27.2307 C.ar    1  UNL1        0.0075
     10 C          -5.7304  -15.1911   26.2381 C.ar    1  UNL1        0.0354
     11 S          -6.2751  -15.4544   24.8655 S.2     1  UNL1       -0.0864
@<TRIPOS>BOND
     1     1     2   ar
     2     2     3   ar
     3     3     4   ar
     4     4     5   ar
     5     5     7    1
     6     7     8   ar
     7     8     9   ar
     8     9    10   ar
     9    10    11   ar
    10     5     6   ar
    11     6     1   ar
    12    11     7   ar
@<TRIPOS>MOLECULE
*****
 11 12 0 0 0
SMALL
GASTEIGER

@<TRIPOS>ATOM
      1 C          -7.8900  -15.5250   25.4296 C.ar    1  UNL1        0.0207
      2 C          -6.6671  -15.3884   24.5719 C.ar    1  UNL1        0.0989
      3 N          -6.7445  -15.6823   23.1031 N.ar    1  UNL1       -0.2423
      4 C          -8.0449  -16.1128   22.4919 C.ar    1  UNL1        0.0993
      5 C          -9.2678  -16.2494   23.3496 C.ar    1  UNL1        0.0252
      6 C          -9.1904  -15.9555   24.8184 C.ar    1  UNL1        0.0036
      7 C         -10.5683  -16.6799   22.7384 C.ar    1  UNL1        0.0310
      8 C         -11.5540  -17.6345   23.3443 C.ar    1  UNL1        0.0071
      9 C         -12.7063  -17.7760   22.3944 C.ar    1  UNL1        0.0075
     10 C         -12.4327  -16.9088   21.2014 C.ar    1  UNL1        0.0354
     11 S         -11.1114  -16.2314   21.4140 S.2     1  UNL1       -0.0864
@<TRIPOS>BOND
     1     1     2   ar
     2     2     3   ar
     3     3     4   ar
     4     4     5   ar
     5     5     7    1
     6     7     8   ar
     7     8     9   ar
     8     9    10   ar
     9    10    11   ar
    10     5     6   ar
    11     6     1   ar
    12    11     7   ar
@<TRIPOS>MOLECULE
*****
 11 12 0 0 0
SMALL
GASTEIGER

@<TRIPOS>ATOM
      1 C          -8.2616  -19.6746   19.4221 C.ar    1  UNL1        0.0207
      2 C          -6.9384  -19.2258   19.9678 C.ar    1  UNL1        0.0989
      3 N          -6.8887  -18.2734   21.1255 N.ar    1  UNL1       -0.2423
      4 C          -8.1621  -17.7697   21.7376 C.ar    1  UNL1        0.0993
      5 C          -9.4852  -18.2185   21.1919 C.ar    1  UNL1        0.0252
      6 C          -9.5350  -19.1709   20.0342 C.ar    1  UNL1        0.0036
      7 C         -10.7588  -17.7149   21.8040 C.ar    1  UNL1        0.0310
      8 C         -11.7279  -18.5239   22.6141 C.ar    1  UNL1        0.0071
      9 C         -12.8548  -17.6229   23.0243 C.ar    1  UNL1        0.0075
     10 C         -12.5821  -16.2569   22.4676 C.ar    1  UNL1        0.0354
     11 S         -11.2867  -16.3138   21.7134 S.2     1  UNL1       -0.0864
@<TRIPOS>BOND
     1     1     2   ar
     2     2     3   ar
     3     3     4   ar
     4     4     5   ar
     5     5     7    1
     6     7     8   ar
     7     8     9   ar
     8     9    10   ar
     9    10    11   ar
    10     5     6   ar
    11     6     1   ar
    12    11     7   ar
@<TRIPOS>MOLECULE
*****
 11 12 0 0 0
SMALL
GASTEIGER

@<TRIPOS>ATOM
      1 C          -1.6892  -17.7769   18.7413 C.ar    1  UNL1        0.0207
      2 C          -0.5252  -17.8743   19.6823 C.ar    1  UNL1        0.0989
      3 N          -0.7013  -18.5091   21.0299 N.ar    1  UNL1       -0.2423
      4 C          -2.0413  -19.0466   21.4364 C.ar    1  UNL1        0.0993
      5 C          -3.2053  -18.9493   20.4954 C.ar    1  UNL1        0.0252
      6 C          -3.0293  -18.3144   19.1478 C.ar    1  UNL1        0.0036
      7 C          -4.5455  -19.4867   20.9020 C.ar    1  UNL1        0.0310
      8 C          -5.2965  -20.5913   20.2193 C.ar    1  UNL1        0.0071
      9 C          -6.5850  -20.8013   20.9579 C.ar    1  UNL1        0.0075
     10 C          -6.6303  -19.8265   22.0971 C.ar    1  UNL1        0.0354
     11 S          -5.3699  -19.0141   22.0625 S.2     1  UNL1       -0.0864
@<TRIPOS>BOND
     1     1     2   ar
     2     2     3   ar
     3     3     4   ar
     4     4     5   ar
     5     5     7    1
     6     7     8   ar
     7     8     9   ar
     8     9    10   ar
     9    10    11   ar
    10     5     6   ar
    11     6     1   ar
    12    11     7   ar
@<TRIPOS>MOLECULE
*****
 11 12 0 0 0
SMALL
GASTEIGER

@<TRIPOS>ATOM
      1 C          -9.2588  -19.5157   22.2791 C.ar    1  UNL1        0.0207
      2 C          -9.9152  -19.2735   20.9523 C.ar    1  UNL1        0.0989
      3 N          -9.0782  -19.1395   19.7147 N.ar    1  UNL1       -0.2423
      4 C          -7.5848  -19.2477   19.8040 C.ar    1  UNL1        0.0993
      5 C          -6.9284  -19.4899   21.1308 C.ar    1  UNL1        0.0252
      6 C          -7.7654  -19.6239   22.3683 C.ar    1  UNL1        0.0036
      7 C          -5.4349  -19.5980   21.2201 C.ar    1  UNL1        0.0310
      8 C          -4.5323  -20.2115   20.1911 C.ar    1  UNL1        0.0071
      9 C          -3.1214  -20.1044   20.6891 C.ar    1  UNL1        0.0075
     10 C          -3.1522  -19.4247   22.0259 C.ar    1  UNL1        0.0354
     11 S          -4.5820  -19.1118   22.3541 S.2     1  UNL1       -0.0864
@<TRIPOS>BOND
     1     1     2   ar
     2     2     3   ar
     3     3     4   ar
     4     4     5   ar
     5     5     7    1
     6     7     8   ar
     7     8     9   ar
     8     9    10   ar
     9    10    11   ar
    10     5     6   ar
    11     6     1   ar
    12    11     7   ar
@<TRIPOS>MOLECULE
*****
 11 12 0 0 0
SMALL
GASTEIGER

@<TRIPOS>ATOM
      1 C          -4.8589  -20.1748   20.4953 C.ar    1  UNL1        0.0207
      2 C          -4.1438  -19.1678   21.3465 C.ar    1  UNL1        0.0989
      3 N          -4.9255  -18.2489   22.2378 N.ar    1  UNL1       -0.2423
      4 C          -6.4224  -18.3370   22.2780 C.ar    1  UNL1        0.0993
      5 C          -7.1375  -19.3439   21.4268 C.ar    1  UNL1        0.0252
      6 C          -6.3557  -20.2628   20.5354 C.ar    1  UNL1        0.0036
      7 C          -8.6344  -19.4320   21.4669 C.ar    1  UNL1        0.0310
      8 C          -9.4654  -19.7782   22.6667 C.ar    1  UNL1        0.0071
      9 C         -10.9076  -19.7496   22.2557 C.ar    1  UNL1        0.0075
     10 C         -10.9680  -19.3856   20.8017 C.ar    1  UNL1        0.0354
     11 S          -9.5631  -19.1894   20.3142 S.2     1  UNL1       -0.0864
@<TRIPOS>BOND
     1     1     2   ar
     2     2     3   ar
     3     3     4   ar
     4     4     5   ar
     5     5     7    1
     6     7     8   ar
     7     8     9   ar
     8     9    10   ar
     9    10    11   ar
    10     5     6   ar
    11     6     1   ar
    12    11     7   ar
@<TRIPOS>MOLECULE
*****
 11 12 0 0 0
SMALL
GASTEIGER

@<TRIPOS>ATOM
      1 C         -14.3744   -4.2641   20.6111 C.ar    1  UNL1        0.0207
      2 C         -14.0170   -2.8277   20.3681 C.ar    1  UNL1        0.0989
      3 N         -12.7889   -2.4838   19.5784 N.ar    1  UNL1       -0.2423
      4 C         -11.9184   -3.5761   19.0317 C.ar    1  UNL1        0.0993
      5 C         -12.2758   -5.0124   19.2748 C.ar    1  UNL1        0.0252
      6 C         -13.5039   -5.3564   20.0645 C.ar    1  UNL1        0.0036
      7 C         -11.4052   -6.1049   18.7282 C.ar    1  UNL1        0.0310
      8 C          -9.9652   -6.3415   19.0752 C.ar    1  UNL1        0.0071
      9 C          -9.4918   -7.5353   18.3001 C.ar    1  UNL1        0.0075
     10 C         -10.6393   -8.0364   17.4741 C.ar    1  UNL1        0.0354
     11 S         -11.8218   -7.1524   17.7387 S.2     1  UNL1       -0.0864
@<TRIPOS>BOND
     1     1     2   ar
     2     2     3   ar
     3     3     4   ar
     4     4     5   ar
     5     5     7    1
     6     7     8   ar
     7     8     9   ar
     8     9    10   ar
     9    10    11   ar
    10     5     6   ar
    11     6     1   ar
    12    11     7   ar
@<TRIPOS>MOLECULE
*****
 11 12 0 0 0
SMALL
GASTEIGER

@<TRIPOS>ATOM
      1 C         -12.0605  -18.2608   23.1229 C.ar    1  UNL1        0.0207
      2 C         -12.4067  -17.8081   21.7354 C.ar    1  UNL1        0.0989
      3 N         -11.5336  -16.8118   21.0318 N.ar    1  UNL1       -0.2423
      4 C         -10.3143  -16.2681   21.7157 C.ar    1  UNL1        0.0993
      5 C          -9.9681  -16.7208   23.1032 C.ar    1  UNL1        0.0252
      6 C         -10.8412  -17.7171   23.8068 C.ar    1  UNL1        0.0036
      7 C          -8.7488  -16.1772   23.7872 C.ar    1  UNL1        0.0310
      8 C          -7.4798  -15.7443   23.1145 C.ar    1  UNL1        0.0071
      9 C          -6.5311  -15.2705   24.1754 C.ar    1  UNL1        0.0075
     10 C          -7.2138  -15.4107   25.5038 C.ar    1  UNL1        0.0354
     11 S          -8.5843  -15.9710   25.2638 S.2     1  UNL1       -0.0864
@<TRIPOS>BOND
     1     1     2   ar
     2     2     3   ar
     3     3     4   ar
     4     4     5   ar
     5     5     7    1
     6     7     8   ar
     7     8     9   ar
     8     9    10   ar
     9    10    11   ar
    10     5     6   ar
    11     6     1   ar
    12    11     7   ar
@<TRIPOS>MOLECULE
*****
 11 12 0 0 0
SMALL
GASTEIGER

@<TRIPOS>ATOM
      1 C         -10.1793  -19.3747   20.5979 C.ar    1  UNL1        0.0207
      2 C         -11.1643  -18.6682   19.7145 C.ar    1  UNL1        0.0989
      3 N         -11.4470  -17.2099   19.9224 N.ar    1  UNL1       -0.2423
      4 C         -10.7446  -16.4579   21.0138 C.ar    1  UNL1        0.0993
      5 C          -9.7595  -17.1644   21.8973 C.ar    1  UNL1        0.0252
      6 C          -9.4769  -18.6228   21.6894 C.ar    1  UNL1        0.0036
      7 C          -9.0571  -16.4125   22.9888 C.ar    1  UNL1        0.0310
      8 C          -9.4699  -16.3599   24.4299 C.ar    1  UNL1        0.0071
      9 C          -8.4865  -15.4961   25.1626 C.ar    1  UNL1        0.0075
     10 C          -7.4659  -15.0148   24.1742 C.ar    1  UNL1        0.0354
     11 S          -7.8186  -15.5812   22.8307 S.2     1  UNL1       -0.0864
@<TRIPOS>BOND
     1     1     2   ar
     2     2     3   ar
     3     3     4   ar
     4     4     5   ar
     5     5     7    1
     6     7     8   ar
     7     8     9   ar
     8     9    10   ar
     9    10    11   ar
    10     5     6   ar
    11     6     1   ar
    12    11     7   ar
