@<TRIPOS>MOLECULE
*****
 20 21 0 0 0
SMALL
GASTEIGER

@<TRIPOS>ATOM
      1 C         -10.8497  -18.9017   21.9459 C.ar    1  UNL1        0.1724
      2 C         -11.1283  -19.3704   20.5485 C.ar    1  UNL1        0.0400
      3 C          -9.9914  -19.6586   19.6135 C.ar    1  UNL1        0.0033
      4 C          -8.5759  -19.4781   20.0757 C.ar    1  UNL1        0.0032
      5 C          -8.2973  -19.0094   21.4731 C.ar    1  UNL1        0.0371
      6 C          -9.4342  -18.7212   22.4082 C.ar    1  UNL1        0.1723
      7 C         -12.7402  -17.3213   22.7696 C.3     1  UNL1        0.2526
      8 O         -11.9866  -18.6135   22.8810 O.3     1  UNL1       -0.4684
      9 C          -6.8818  -18.8289   21.9354 C.2     1  UNL1        0.0064
     10 C          -5.7482  -19.3439   21.0990 C.2     1  UNL1        0.0436
     11 C          -4.3326  -19.1634   21.5614 C.2     1  UNL1        0.2111
     12 O          -3.9556  -19.5031   22.9729 O.2     1  UNL1       -0.2850
     13 C          -3.2942  -18.6432   20.6122 C.ar    1  UNL1        0.0961
     14 C          -1.8082  -18.7250   20.7998 C.ar    1  UNL1        0.0218
     15 C          -1.1550  -18.0822   19.6123 C.ar    1  UNL1        0.0200
     16 C          -2.2373  -17.6032   18.6907 C.ar    1  UNL1        0.0725
     17 N          -3.5593  -17.9499   19.3087 N.ar    1  UNL1       -0.3495
     18 H          -4.4455  -17.7565   18.9260 H       1  UNL1        0.1661
     19 O          -9.1556  -18.2524   23.8056 O.3     1  UNL1       -0.4684
     20 C          -9.2238  -16.7904   24.1338 C.3     1  UNL1        0.2526
@<TRIPOS>BOND
     1     7     8    1
     2     8     1    1
     3     1     2   ar
     4     2     3   ar
     5     3     4   ar
     6     4     5   ar
     7     5     9    1
     8     9    10    2
     9    10    11    1
    10    11    12    2
    11    11    13    1
    12    13    14   ar
    13    14    15   ar
    14    15    16   ar
    15    16    17   ar
    16     5     6   ar
    17     6    19    1
    18    19    20    1
    19     6     1   ar
    20    17    13   ar
    21    17    18    1
@<TRIPOS>MOLECULE
*****
 20 21 0 0 0
SMALL
GASTEIGER

@<TRIPOS>ATOM
      1 C          -3.9511  -19.0530   20.9563 C.ar    1  UNL1        0.1724
      2 C          -4.0212  -20.2725   20.0857 C.ar    1  UNL1        0.0400
      3 C          -5.2766  -21.0924   20.0432 C.ar    1  UNL1        0.0033
      4 C          -6.4618  -20.6929   20.8712 C.ar    1  UNL1        0.0032
      5 C          -6.3916  -19.4734   21.7417 C.ar    1  UNL1        0.0371
      6 C          -5.1363  -18.6534   21.7843 C.ar    1  UNL1        0.1723
      7 C          -1.5761  -18.5256   20.0444 C.3     1  UNL1        0.2526
      8 O          -2.6957  -18.2330   20.9988 O.3     1  UNL1       -0.4684
      9 C          -7.5768  -19.0738   22.5698 C.2     1  UNL1        0.0064
     10 C          -8.5813  -20.1060   22.9889 C.2     1  UNL1        0.0436
     11 C          -9.7665  -19.7064   23.8169 C.2     1  UNL1        0.2111
     12 O          -9.8128  -20.0517   25.2759 O.2     1  UNL1       -0.2850
     13 C         -10.9054  -18.9615   23.1860 C.ar    1  UNL1        0.0961
     14 C         -12.0585  -18.3344   23.9119 C.ar    1  UNL1        0.0218
     15 C         -12.9569  -17.6982   22.8930 C.ar    1  UNL1        0.0200
     16 C         -12.3589  -17.9321   21.5373 C.ar    1  UNL1        0.0725
     17 N         -11.0910  -18.7129   21.7185 N.ar    1  UNL1       -0.3495
     18 H         -10.4868  -19.0099   21.0002 H       1  UNL1        0.1661
     19 O          -5.0662  -17.4339   22.6549 O.3     1  UNL1       -0.4684
     20 C          -4.1566  -17.4151   23.8475 C.3     1  UNL1        0.2526
@<TRIPOS>BOND
     1     7     8    1
     2     8     1    1
     3     1     2   ar
     4     2     3   ar
     5     3     4   ar
     6     4     5   ar
     7     5     9    1
     8     9    10    2
     9    10    11    1
    10    11    12    2
    11    11    13    1
    12    13    14   ar
    13    14    15   ar
    14    15    16   ar
    15    16    17   ar
    16     5     6   ar
    17     6    19    1
    18    19    20    1
    19     6     1   ar
    20    17    13   ar
    21    17    18    1
@<TRIPOS>MOLECULE
*****
 20 21 0 0 0
SMALL
GASTEIGER

@<TRIPOS>ATOM
      1 C          -8.8862  -16.8694   24.1712 C.ar    1  UNL1        0.1724
      2 C          -9.9723  -17.8729   24.4223 C.ar    1  UNL1        0.0400
      3 C          -9.9930  -19.1630   23.6572 C.ar    1  UNL1        0.0033
      4 C          -8.9275  -19.4495   22.6411 C.ar    1  UNL1        0.0032
      5 C          -7.8414  -18.4460   22.3900 C.ar    1  UNL1        0.0371
      6 C          -7.8207  -17.1559   23.1550 C.ar    1  UNL1        0.1723
      7 C          -8.3270  -15.5459   26.3358 C.3     1  UNL1        0.2526
      8 O          -8.8655  -15.5793   24.9362 O.3     1  UNL1       -0.4684
      9 C          -6.7758  -18.7324   21.3737 C.2     1  UNL1        0.0064
     10 C          -5.4592  -19.3047   21.8085 C.2     1  UNL1        0.0436
     11 C          -4.3936  -19.5911   20.7923 C.2     1  UNL1        0.2111
     12 O          -4.4526  -20.8497   19.9783 O.2     1  UNL1       -0.2850
     13 C          -3.2693  -18.6191   20.5901 C.ar    1  UNL1        0.0961
     14 C          -2.2969  -18.6209   19.4480 C.ar    1  UNL1        0.0218
     15 C          -1.3465  -17.4775   19.6466 C.ar    1  UNL1        0.0200
     16 C          -1.7315  -16.7691   20.9115 C.ar    1  UNL1        0.0725
     17 N          -2.9198  -17.4746   21.4946 N.ar    1  UNL1       -0.3495
     18 H          -3.3882  -17.2296   22.3252 H       1  UNL1        0.1661
     19 O          -6.7345  -16.1523   22.9038 O.3     1  UNL1       -0.4684
     20 C          -5.5738  -16.0511   23.8485 C.3     1  UNL1        0.2526
@<TRIPOS>BOND
     1     7     8    1
     2     8     1    1
     3     1     2   ar
     4     2     3   ar
     5     3     4   ar
     6     4     5   ar
     7     5     9    1
     8     9    10    2
     9    10    11    1
    10    11    12    2
    11    11    13    1
    12    13    14   ar
    13    14    15   ar
    14    15    16   ar
    15    16    17   ar
    16     5     6   ar
    17     6    19    1
    18    19    20    1
    19     6     1   ar
    20    17    13   ar
    21    17    18    1
@<TRIPOS>MOLECULE
*****
 20 21 0 0 0
SMALL
GASTEIGER

@<TRIPOS>ATOM
      1 C         -10.3597  -17.6288   22.4149 C.ar    1  UNL1        0.1724
      2 C         -11.1564  -18.7686   22.9771 C.ar    1  UNL1        0.0400
      3 C         -10.4804  -20.0673   23.3032 C.ar    1  UNL1        0.0033
      4 C          -9.0077  -20.2262   23.0671 C.ar    1  UNL1        0.0032
      5 C          -8.2110  -19.0865   22.5049 C.ar    1  UNL1        0.0371
      6 C          -8.8870  -17.7877   22.1788 C.ar    1  UNL1        0.1723
      7 C         -12.2485  -16.3167   21.2063 C.3     1  UNL1        0.2526
      8 O         -11.0357  -16.3301   22.0889 O.3     1  UNL1       -0.4684
      9 C          -6.7382  -19.2454   22.2688 C.2     1  UNL1        0.0064
     10 C          -6.2297  -19.5730   20.8962 C.2     1  UNL1        0.0436
     11 C          -4.7569  -19.7319   20.6600 C.2     1  UNL1        0.2111
     12 O          -4.2402  -20.9352   19.9285 O.2     1  UNL1       -0.2850
     13 C          -3.8010  -18.6876   21.1554 C.ar    1  UNL1        0.0961
     14 C          -3.4601  -18.4139   22.5902 C.ar    1  UNL1        0.0218
     15 C          -2.4665  -17.2907   22.6245 C.ar    1  UNL1        0.0200
     16 C          -2.1932  -16.8702   21.2108 C.ar    1  UNL1        0.0725
     17 N          -3.0180  -17.7335   20.3028 N.ar    1  UNL1       -0.3495
     18 H          -3.0414  -17.6828   19.3199 H       1  UNL1        0.1661
     19 O          -8.0902  -16.6479   21.6166 O.3     1  UNL1       -0.4684
     20 C          -7.7680  -15.4619   22.4766 C.3     1  UNL1        0.2526
@<TRIPOS>BOND
     1     7     8    1
     2     8     1    1
     3     1     2   ar
     4     2     3   ar
     5     3     4   ar
     6     4     5   ar
     7     5     9    1
     8     9    10    2
     9    10    11    1
    10    11    12    2
    11    11    13    1
    12    13    14   ar
    13    14    15   ar
    14    15    16   ar
    15    16    17   ar
    16     5     6   ar
    17     6    19    1
    18    19    20    1
    19     6     1   ar
    20    17    13   ar
    21    17    18    1
@<TRIPOS>MOLECULE
*****
 20 21 0 0 0
SMALL
GASTEIGER

@<TRIPOS>ATOM
      1 C         -10.3855  -17.7843   23.5568 C.ar    1  UNL1        0.1724
      2 C          -9.8566  -16.5974   24.3060 C.ar    1  UNL1        0.0400
      3 C          -8.4576  -16.1165   24.0581 C.ar    1  UNL1        0.0033
      4 C          -7.5874  -16.8226   23.0610 C.ar    1  UNL1        0.0032
      5 C          -8.1163  -18.0096   22.3118 C.ar    1  UNL1        0.0371
      6 C          -9.5154  -18.4905   22.5597 C.ar    1  UNL1        0.1723
      7 C         -12.9294  -17.6667   23.0424 C.3     1  UNL1        0.2526
      8 O         -11.7846  -18.2652   23.8047 O.3     1  UNL1       -0.4684
      9 C          -7.2462  -18.7158   21.3147 C.2     1  UNL1        0.0064
     10 C          -5.8004  -18.9665   21.6257 C.2     1  UNL1        0.0436
     11 C          -4.9302  -19.6727   20.6285 C.2     1  UNL1        0.2111
     12 O          -5.2866  -21.0552   20.1685 O.2     1  UNL1       -0.2850
     13 C          -3.7038  -18.9964   20.0915 C.ar    1  UNL1        0.0961
     14 C          -2.2866  -19.3117   20.4684 C.ar    1  UNL1        0.0218
     15 C          -1.3861  -18.3962   19.6932 C.ar    1  UNL1        0.0200
     16 C          -2.2469  -17.5150   18.8371 C.ar    1  UNL1        0.0725
     17 N          -3.6792  -17.8860   19.0833 N.ar    1  UNL1       -0.3495
     18 H          -4.4653  -17.4732   18.6578 H       1  UNL1        0.1661
     19 O         -10.0443  -19.6775   21.8105 O.3     1  UNL1       -0.4684
     20 C         -10.7838  -19.4814   20.5202 C.3     1  UNL1        0.2526
@<TRIPOS>BOND
     1     7     8    1
     2     8     1    1
     3     1     2   ar
     4     2     3   ar
     5     3     4   ar
     6     4     5   ar
     7     5     9    1
     8     9    10    2
     9    10    11    1
    10    11    12    2
    11    11    13    1
    12    13    14   ar
    13    14    15   ar
    14    15    16   ar
    15    16    17   ar
    16     5     6   ar
    17     6    19    1
    18    19    20    1
    19     6     1   ar
    20    17    13   ar
    21    17    18    1
@<TRIPOS>MOLECULE
*****
 20 21 0 0 0
SMALL
GASTEIGER

@<TRIPOS>ATOM
      1 C          -2.8811  -18.8675   21.0659 C.ar    1  UNL1        0.1724
      2 C          -2.7396  -20.0590   20.1657 C.ar    1  UNL1        0.0400
      3 C          -3.9392  -20.8975   19.8371 C.ar    1  UNL1        0.0033
      4 C          -5.2803  -20.5445   20.4087 C.ar    1  UNL1        0.0032
      5 C          -5.4218  -19.3530   21.3089 C.ar    1  UNL1        0.0371
      6 C          -4.2222  -18.5146   21.6375 C.ar    1  UNL1        0.1723
      7 C          -0.6494  -17.7516   20.3421 C.3     1  UNL1        0.2526
      8 O          -1.6815  -18.0291   21.3945 O.3     1  UNL1       -0.4684
      9 C          -6.7630  -19.0000   21.8805 C.2     1  UNL1        0.0064
     10 C          -7.8921  -18.6243   20.9674 C.2     1  UNL1        0.0436
     11 C          -9.2333  -18.2712   21.5390 C.2     1  UNL1        0.2111
     12 O         -10.2087  -17.4731   20.7256 O.2     1  UNL1       -0.2850
     13 C          -9.5990  -18.7163   22.9239 C.ar    1  UNL1        0.0961
     14 C         -10.0941  -20.0785   23.3103 C.ar    1  UNL1        0.0218
     15 C         -10.3349  -20.0815   24.7908 C.ar    1  UNL1        0.0200
     16 C          -9.9887  -18.7210   25.3195 C.ar    1  UNL1        0.0725
     17 N          -9.5339  -17.8774   24.1657 N.ar    1  UNL1       -0.3495
     18 H          -9.2436  -16.9379   24.2148 H       1  UNL1        0.1661
     19 O          -4.3638  -17.3231   22.5377 O.3     1  UNL1       -0.4684
     20 C          -3.9175  -17.4060   23.9674 C.3     1  UNL1        0.2526
@<TRIPOS>BOND
     1     7     8    1
     2     8     1    1
     3     1     2   ar
     4     2     3   ar
     5     3     4   ar
     6     4     5   ar
     7     5     9    1
     8     9    10    2
     9    10    11    1
    10    11    12    2
    11    11    13    1
    12    13    14   ar
    13    14    15   ar
    14    15    16   ar
    15    16    17   ar
    16     5     6   ar
    17     6    19    1
    18    19    20    1
    19     6     1   ar
    20    17    13   ar
    21    17    18    1
@<TRIPOS>MOLECULE
*****
 20 21 0 0 0
SMALL
GASTEIGER

@<TRIPOS>ATOM
      1 C          -5.9993  -15.4474   24.9630 C.ar    1  UNL1        0.1724
      2 C          -6.0683  -15.1481   26.4312 C.ar    1  UNL1        0.0400
      3 C          -7.3092  -15.4785   27.2065 C.ar    1  UNL1        0.0033
      4 C          -8.4810  -16.1083   26.5136 C.ar    1  UNL1        0.0032
      5 C          -8.4120  -16.4076   25.0454 C.ar    1  UNL1        0.0371
      6 C          -7.1712  -16.0772   24.2701 C.ar    1  UNL1        0.1723
      7 C          -3.9859  -16.2083   23.5079 C.3     1  UNL1        0.2526
      8 O          -4.7585  -15.1169   24.1877 O.3     1  UNL1       -0.4684
      9 C          -9.5839  -17.0374   24.3524 C.2     1  UNL1        0.0064
     10 C         -10.3715  -16.2515   23.3465 C.2     1  UNL1        0.0436
     11 C         -11.5434  -16.8813   22.6536 C.2     1  UNL1        0.2111
     12 O         -12.9391  -16.4644   23.0115 O.2     1  UNL1       -0.2850
     13 C         -11.3195  -17.9279   21.6027 C.ar    1  UNL1        0.0961
     14 C         -11.0778  -19.3876   21.8496 C.ar    1  UNL1        0.0218
     15 C         -10.9069  -20.0605   20.5199 C.ar    1  UNL1        0.0200
     16 C         -11.0430  -19.0167   19.4512 C.ar    1  UNL1        0.0725
     17 N         -11.2980  -17.6987   20.1205 N.ar    1  UNL1       -0.3495
     18 H         -11.4284  -16.8349   19.6666 H       1  UNL1        0.1661
     19 O          -7.1022  -16.3765   22.8018 O.3     1  UNL1       -0.4684
     20 C          -7.0324  -17.7983   22.3288 C.3     1  UNL1        0.2526
@<TRIPOS>BOND
     1     7     8    1
     2     8     1    1
     3     1     2   ar
     4     2     3   ar
     5     3     4   ar
     6     4     5   ar
     7     5     9    1
     8     9    10    2
     9    10    11    1
    10    11    12    2
    11    11    13    1
    12    13    14   ar
    13    14    15   ar
    14    15    16   ar
    15    16    17   ar
    16     5     6   ar
    17     6    19    1
    18    19    20    1
    19     6     1   ar
    20    17    13   ar
    21    17    18    1
@<TRIPOS>MOLECULE
*****
 20 21 0 0 0
SMALL
GASTEIGER

@<TRIPOS>ATOM
      1 C          -5.3027  -16.2625   23.7920 C.ar    1  UNL1        0.1724
      2 C          -4.1311  -17.0796   23.3343 C.ar    1  UNL1        0.0400
      3 C          -4.3553  -18.3417   22.5554 C.ar    1  UNL1        0.0033
      4 C          -5.7512  -18.7869   22.2343 C.ar    1  UNL1        0.0032
      5 C          -6.9229  -17.9698   22.6920 C.ar    1  UNL1        0.0371
      6 C          -6.6987  -16.7077   23.4708 C.ar    1  UNL1        0.1723
      7 C          -5.2686  -14.9933   26.0587 C.3     1  UNL1        0.2526
      8 O          -5.0785  -15.0003   24.5708 O.3     1  UNL1       -0.4684
      9 C          -8.3190  -18.4150   22.3708 C.2     1  UNL1        0.0064
     10 C          -9.2478  -17.4970   21.6329 C.2     1  UNL1        0.0436
     11 C         -10.6438  -17.9421   21.3118 C.2     1  UNL1        0.2111
     12 O         -11.0263  -18.2467   19.8937 O.2     1  UNL1       -0.2850
     13 C         -11.6572  -18.0826   22.4087 C.ar    1  UNL1        0.0961
     14 C         -13.0730  -17.5888   22.3695 C.ar    1  UNL1        0.0218
     15 C         -13.7236  -17.9426   23.6740 C.ar    1  UNL1        0.0200
     16 C         -12.7098  -18.6551   24.5194 C.ar    1  UNL1        0.0725
     17 N         -11.4327  -18.7416   23.7374 N.ar    1  UNL1       -0.3495
     18 H         -10.5944  -19.1578   24.0426 H       1  UNL1        0.1661
     19 O          -7.8705  -15.8906   23.9285 O.3     1  UNL1       -0.4684
     20 C          -8.5729  -16.2376   25.2077 C.3     1  UNL1        0.2526
@<TRIPOS>BOND
     1     7     8    1
     2     8     1    1
     3     1     2   ar
     4     2     3   ar
     5     3     4   ar
     6     4     5   ar
     7     5     9    1
     8     9    10    2
     9    10    11    1
    10    11    12    2
    11    11    13    1
    12    13    14   ar
    13    14    15   ar
    14    15    16   ar
    15    16    17   ar
    16     5     6   ar
    17     6    19    1
    18    19    20    1
    19     6     1   ar
    20    17    13   ar
    21    17    18    1
@<TRIPOS>MOLECULE
*****
 20 21 0 0 0
SMALL
GASTEIGER

@<TRIPOS>ATOM
      1 C         -10.9952   -3.6605   18.7485 C.ar    1  UNL1        0.1724
      2 C          -9.6791   -4.3126   18.4444 C.ar    1  UNL1        0.0400
      3 C          -9.5793   -5.8080   18.3834 C.ar    1  UNL1        0.0033
      4 C         -10.7956   -6.6514   18.6267 C.ar    1  UNL1        0.0032
      5 C         -12.1118   -5.9993   18.9308 C.ar    1  UNL1        0.0371
      6 C         -12.2115   -4.5038   18.9918 C.ar    1  UNL1        0.1723
      7 C         -11.0862   -1.3606   17.5435 C.3     1  UNL1        0.2526
      8 O         -11.0950   -2.1650   18.8095 O.3     1  UNL1       -0.4684
      9 C         -13.3282   -6.8426   19.1741 C.2     1  UNL1        0.0064
     10 C         -13.6424   -7.9877   18.2577 C.2     1  UNL1        0.0436
     11 C         -14.8589   -8.8311   18.5009 C.2     1  UNL1        0.2111
     12 O         -14.7952  -10.3158   18.2968 O.2     1  UNL1       -0.2850
     13 C         -16.1389   -8.1898   18.9483 C.ar    1  UNL1        0.0961
     14 C         -17.0066   -8.6503   20.0818 C.ar    1  UNL1        0.0218
     15 C         -18.1800   -7.7205   20.1748 C.ar    1  UNL1        0.0200
     16 C         -18.0374   -6.6852   19.0987 C.ar    1  UNL1        0.0725
     17 N         -16.7760   -6.9753   18.3407 N.ar    1  UNL1       -0.3495
     18 H         -16.4273   -6.4591   17.5783 H       1  UNL1        0.1661
     19 O         -13.5278   -3.8518   19.2960 O.3     1  UNL1       -0.4684
     20 C         -13.8195   -3.3628   20.6837 C.3     1  UNL1        0.2526
@<TRIPOS>BOND
     1     7     8    1
     2     8     1    1
     3     1     2   ar
     4     2     3   ar
     5     3     4   ar
     6     4     5   ar
     7     5     9    1
     8     9    10    2
     9    10    11    1
    10    11    12    2
    11    11    13    1
    12    13    14   ar
    13    14    15   ar
    14    15    16   ar
    15    16    17   ar
    16     5     6   ar
    17     6    19    1
    18    19    20    1
    19     6     1   ar
    20    17    13   ar
    21    17    18    1
