@<TRIPOS>MOLECULE
*****
 37 40 0 0 0
SMALL
GASTEIGER

@<TRIPOS>ATOM
      1 C          -5.2605  -15.3069   25.5843 C.3     1  UNL1        0.0214
      2 C          -5.2471  -15.8114   24.1717 C.3     1  UNL1        0.0744
      3 N          -6.1427  -15.1862   23.1435 N.am    1  UNL1       -0.2903
      4 C          -7.5001  -15.7668   22.8787 C.2     1  UNL1        0.3044
      5 O          -7.9621  -16.9726   23.6420 O.2     1  UNL1       -0.2525
      6 N          -8.3956  -15.1416   21.8505 N.am    1  UNL1       -0.2683
      7 H          -5.8395  -14.3948   22.6426 H       1  UNL1        0.1509
      8 H          -8.0924  -14.3502   21.3495 H       1  UNL1        0.1564
      9 C          -9.7531  -15.7222   21.5856 C.ar    1  UNL1        0.0517
     10 C         -10.3656  -15.6054   20.2214 C.ar    1  UNL1        0.0147
     11 C         -11.7231  -16.1860   19.9565 C.ar    1  UNL1        0.0014
     12 C         -12.4680  -16.8834   21.0559 C.ar    1  UNL1        0.0032
     13 C         -11.8555  -17.0003   22.4201 C.ar    1  UNL1        0.0386
     14 C         -10.4981  -16.4197   22.6849 C.ar    1  UNL1        0.0178
     15 C         -12.6005  -17.6977   23.5194 C.ar    1  UNL1        0.1839
     16 N         -14.0734  -17.6003   23.7862 N.ar    1  UNL1       -0.1081
     17 N         -14.3866  -18.4574   24.9767 N.ar    1  UNL1       -0.0227
     18 N         -13.1072  -19.0845   25.4458 N.ar    1  UNL1       -0.0429
     19 N         -12.0034  -18.6150   24.5451 N.ar    1  UNL1       -0.2113
     20 C         -10.5565  -18.9959   24.6516 C.3     1  UNL1        0.1573
     21 C          -4.3382  -16.9411   23.7874 C.3     1  UNL1        0.0356
     22 C          -3.4940  -16.8374   22.5518 C.3     1  UNL1        0.0592
     23 C          -2.6078  -15.6447   22.3469 C.3     1  UNL1        0.0174
     24 N          -3.5361  -17.9264   21.5211 N.3     1  UNL1       -0.2739
     25 C          -2.4409  -18.0375   20.5023 C.3     1  UNL1        0.0720
     26 C          -2.4830  -19.1265   19.4717 C.3     1  UNL1        0.0174
     27 C          -3.6204  -20.1045   19.4599 C.3     1  UNL1        0.0031
     28 C          -4.7156  -19.9934   20.4788 C.3     1  UNL1        0.0204
     29 C          -4.6735  -18.9043   21.5094 C.3     1  UNL1        0.0723
     30 C          -5.8529  -20.9713   20.4670 C.3     1  UNL1        0.0277
     31 C          -7.2313  -20.5141   20.0914 C.ar    1  UNL1       -0.0220
     32 C          -8.0176  -19.6505   21.0327 C.ar    1  UNL1       -0.0020
     33 C          -9.3959  -19.1934   20.6571 C.ar    1  UNL1        0.0293
     34 C          -9.9880  -19.5998   19.3402 C.ar    1  UNL1        0.1401
     35 F         -11.3665  -19.1426   18.9646 F       1  UNL1       -0.2042
     36 C          -9.2018  -20.4634   18.3989 C.ar    1  UNL1        0.0293
     37 C          -7.8234  -20.9206   18.7745 C.ar    1  UNL1       -0.0020
@<TRIPOS>BOND
     1     2     1    1
     2     2    21    1
     3    21    22    1
     4    22    23    1
     5    22    24    1
     6    24    25    1
     7    25    26    1
     8    26    27    1
     9    27    28    1
    10    28    30    1
    11    30    31    1
    12    31    32   ar
    13    32    33   ar
    14    33    34   ar
    15    34    35    1
    16    34    36   ar
    17    36    37   ar
    18    28    29    1
    19     2     3    1
    20     3     4   am
    21     4     5    2
    22     4     6   am
    23     6     9    1
    24     9    10   ar
    25    10    11   ar
    26    11    12   ar
    27    12    13   ar
    28    13    15    1
    29    15    16   ar
    30    16    17   ar
    31    17    18   ar
    32    18    19   ar
    33    19    20    1
    34    13    14   ar
    35    29    24    1
    36    14     9   ar
    37    37    31   ar
    38    19    15   ar
    39     3     7    1
    40     6     8    1
@<TRIPOS>MOLECULE
*****
 37 40 0 0 0
SMALL
GASTEIGER

@<TRIPOS>ATOM
      1 C          -6.9474  -14.7728   27.7336 C.3     1  UNL1        0.0214
      2 C          -6.6515  -15.8322   26.7138 C.3     1  UNL1        0.0744
      3 N          -7.5881  -16.9914   26.5431 N.am    1  UNL1       -0.2903
      4 C          -8.7665  -16.8742   25.6225 C.2     1  UNL1        0.3044
      5 O          -9.0084  -15.5979   24.8725 O.2     1  UNL1       -0.2525
      6 N          -9.7031  -18.0334   25.4519 N.am    1  UNL1       -0.2683
      7 H          -7.4294  -17.8291   27.0354 H       1  UNL1        0.1509
      8 H          -9.5443  -18.8711   25.9441 H       1  UNL1        0.1564
      9 C         -10.8816  -17.9163   24.5312 C.ar    1  UNL1        0.0517
     10 C         -12.1953  -18.5317   24.9125 C.ar    1  UNL1        0.0147
     11 C         -13.3737  -18.4145   23.9919 C.ar    1  UNL1        0.0014
     12 C         -13.2384  -17.6820   22.6899 C.ar    1  UNL1        0.0032
     13 C         -11.9246  -17.0666   22.3086 C.ar    1  UNL1        0.0386
     14 C         -10.7463  -17.1838   23.2292 C.ar    1  UNL1        0.0178
     15 C         -11.7893  -16.3341   21.0066 C.ar    1  UNL1        0.1839
     16 N         -12.8692  -16.1507   19.9818 N.ar    1  UNL1       -0.1081
     17 N         -12.2976  -15.3596   18.8427 N.ar    1  UNL1       -0.0227
     18 N         -10.8646  -15.0541   19.1635 N.ar    1  UNL1       -0.0429
     19 N         -10.5504  -15.6564   20.5009 N.ar    1  UNL1       -0.2113
     20 C          -9.2293  -15.5922   21.2083 C.3     1  UNL1        0.1573
     21 C          -5.4191  -15.7325   25.8647 C.3     1  UNL1        0.0356
     22 C          -5.5316  -15.7885   24.3700 C.3     1  UNL1        0.0592
     23 C          -6.3813  -14.7883   23.6437 C.3     1  UNL1        0.0174
     24 N          -4.7943  -16.8449   23.6015 N.3     1  UNL1       -0.2739
     25 C          -3.2989  -16.7907   23.4976 C.3     1  UNL1        0.0720
     26 C          -2.5617  -17.8471   22.7292 C.3     1  UNL1        0.0174
     27 C          -3.3198  -18.9577   22.0646 C.3     1  UNL1        0.0031
     28 C          -4.8152  -19.0119   22.1684 C.3     1  UNL1        0.0204
     29 C          -5.5524  -17.9556   22.9368 C.3     1  UNL1        0.0723
     30 C          -5.5734  -20.1225   21.5038 C.3     1  UNL1        0.0277
     31 C          -7.0191  -19.9368   21.1499 C.ar    1  UNL1       -0.0220
     32 C          -8.0693  -20.0196   22.2178 C.ar    1  UNL1       -0.0020
     33 C          -9.5151  -19.8338   21.8639 C.ar    1  UNL1        0.0293
     34 C          -9.9107  -19.5652   20.4421 C.ar    1  UNL1        0.1401
     35 F         -11.3565  -19.3794   20.0883 F       1  UNL1       -0.2042
     36 C          -8.8606  -19.4824   19.3743 C.ar    1  UNL1        0.0293
     37 C          -7.4147  -19.6681   19.7281 C.ar    1  UNL1       -0.0020
@<TRIPOS>BOND
     1     2     1    1
     2     2    21    1
     3    21    22    1
     4    22    23    1
     5    22    24    1
     6    24    25    1
     7    25    26    1
     8    26    27    1
     9    27    28    1
    10    28    30    1
    11    30    31    1
    12    31    32   ar
    13    32    33   ar
    14    33    34   ar
    15    34    35    1
    16    34    36   ar
    17    36    37   ar
    18    28    29    1
    19     2     3    1
    20     3     4   am
    21     4     5    2
    22     4     6   am
    23     6     9    1
    24     9    10   ar
    25    10    11   ar
    26    11    12   ar
    27    12    13   ar
    28    13    15    1
    29    15    16   ar
    30    16    17   ar
    31    17    18   ar
    32    18    19   ar
    33    19    20    1
    34    13    14   ar
    35    29    24    1
    36    14     9   ar
    37    37    31   ar
    38    19    15   ar
    39     3     7    1
    40     6     8    1
@<TRIPOS>MOLECULE
*****
 37 40 0 0 0
SMALL
GASTEIGER

@<TRIPOS>ATOM
      1 C          -3.1688  -20.4685   19.0512 C.3     1  UNL1        0.0214
      2 C          -3.3070  -18.9780   19.1472 C.3     1  UNL1        0.0744
      3 N          -4.6623  -18.3603   19.3249 N.am    1  UNL1       -0.2903
      4 C          -5.5995  -18.8950   20.3669 C.2     1  UNL1        0.3044
      5 O          -5.1813  -20.0474   21.2313 O.2     1  UNL1       -0.2525
      6 N          -6.9548  -18.2773   20.5445 N.am    1  UNL1       -0.2683
      7 H          -4.9368  -17.6039   18.7576 H       1  UNL1        0.1509
      8 H          -7.2292  -17.5210   19.9772 H       1  UNL1        0.1564
      9 C          -7.8920  -18.8121   21.5866 C.ar    1  UNL1        0.0517
     10 C          -7.4951  -19.9982   22.4146 C.ar    1  UNL1        0.0147
     11 C          -8.4323  -20.5328   23.4565 C.ar    1  UNL1        0.0014
     12 C          -9.7664  -19.8814   23.6705 C.ar    1  UNL1        0.0032
     13 C         -10.1633  -18.6953   22.8425 C.ar    1  UNL1        0.0386
     14 C          -9.2261  -18.1607   21.8006 C.ar    1  UNL1        0.0178
     15 C         -11.4974  -18.0439   23.0565 C.ar    1  UNL1        0.1839
     16 N         -12.5700  -18.5175   23.9921 N.ar    1  UNL1       -0.1081
     17 N         -13.7287  -17.5708   23.8863 N.ar    1  UNL1       -0.0227
     18 N         -13.3723  -16.5121   22.8852 N.ar    1  UNL1       -0.0429
     19 N         -11.9933  -16.8045   22.3724 N.ar    1  UNL1       -0.2113
     20 C         -11.2421  -15.9989   21.3542 C.3     1  UNL1        0.1573
     21 C          -2.0898  -18.1051   19.0656 C.3     1  UNL1        0.0356
     22 C          -1.5885  -17.4006   20.2913 C.3     1  UNL1        0.0592
     23 C          -0.2987  -16.6364   20.2424 C.3     1  UNL1        0.0174
     24 N          -2.3771  -17.4603   21.5660 N.3     1  UNL1       -0.2739
     25 C          -2.2573  -18.6537   22.4668 C.3     1  UNL1        0.0720
     26 C          -3.0458  -18.7134   23.7414 C.3     1  UNL1        0.0174
     27 C          -3.9541  -17.5797   24.1152 C.3     1  UNL1        0.0031
     28 C          -4.0739  -16.3863   23.2144 C.3     1  UNL1        0.0204
     29 C          -3.2854  -16.3266   21.9398 C.3     1  UNL1        0.0723
     30 C          -4.9822  -15.2526   23.5881 C.3     1  UNL1        0.0277
     31 C          -5.9642  -15.4169   24.7101 C.ar    1  UNL1       -0.0220
     32 C          -5.5354  -15.1640   26.1251 C.ar    1  UNL1       -0.0020
     33 C          -6.5173  -15.3283   27.2471 C.ar    1  UNL1        0.0293
     34 C          -7.9280  -15.7455   26.9540 C.ar    1  UNL1        0.1401
     35 F          -8.9100  -15.9098   28.0760 F       1  UNL1       -0.2042
     36 C          -8.3568  -15.9983   25.5391 C.ar    1  UNL1        0.0293
     37 C          -7.3749  -15.8341   24.4170 C.ar    1  UNL1       -0.0020
@<TRIPOS>BOND
     1     2     1    1
     2     2    21    1
     3    21    22    1
     4    22    23    1
     5    22    24    1
     6    24    25    1
     7    25    26    1
     8    26    27    1
     9    27    28    1
    10    28    30    1
    11    30    31    1
    12    31    32   ar
    13    32    33   ar
    14    33    34   ar
    15    34    35    1
    16    34    36   ar
    17    36    37   ar
    18    28    29    1
    19     2     3    1
    20     3     4   am
    21     4     5    2
    22     4     6   am
    23     6     9    1
    24     9    10   ar
    25    10    11   ar
    26    11    12   ar
    27    12    13   ar
    28    13    15    1
    29    15    16   ar
    30    16    17   ar
    31    17    18   ar
    32    18    19   ar
    33    19    20    1
    34    13    14   ar
    35    29    24    1
    36    14     9   ar
    37    37    31   ar
    38    19    15   ar
    39     3     7    1
    40     6     8    1
@<TRIPOS>MOLECULE
*****
 37 40 0 0 0
SMALL
GASTEIGER

@<TRIPOS>ATOM
      1 C         -11.0720  -20.3567   20.4401 C.3     1  UNL1        0.0214
      2 C         -10.4878  -19.2224   19.6515 C.3     1  UNL1        0.0744
      3 N          -9.0957  -19.3290   19.1029 N.am    1  UNL1       -0.2903
      4 C          -7.9195  -19.3129   20.0336 C.2     1  UNL1        0.3044
      5 O          -8.1353  -19.1903   21.5129 O.2     1  UNL1       -0.2525
      6 N          -6.5276  -19.4195   19.4849 N.am    1  UNL1       -0.2683
      7 H          -8.9541  -19.4094   18.1320 H       1  UNL1        0.1509
      8 H          -6.3860  -19.5000   18.5140 H       1  UNL1        0.1564
      9 C          -5.3513  -19.4034   20.4156 C.ar    1  UNL1        0.0517
     10 C          -5.4844  -19.9599   21.8022 C.ar    1  UNL1        0.0147
     11 C          -4.3081  -19.9438   22.7328 C.ar    1  UNL1        0.0014
     12 C          -2.9988  -19.3713   22.2769 C.ar    1  UNL1        0.0032
     13 C          -2.8657  -18.8149   20.8903 C.ar    1  UNL1        0.0386
     14 C          -4.0419  -18.8309   19.9597 C.ar    1  UNL1        0.0178
     15 C          -1.5564  -18.2424   20.4343 C.ar    1  UNL1        0.1839
     16 N          -0.5412  -18.9374   19.5761 N.ar    1  UNL1       -0.1081
     17 N           0.6103  -17.9989   19.3679 N.ar    1  UNL1       -0.0227
     18 N           0.3068  -16.7239   20.0974 N.ar    1  UNL1       -0.0429
     19 N          -1.0322  -16.8744   20.7565 N.ar    1  UNL1       -0.2113
     20 C          -1.7254  -15.8386   21.5912 C.3     1  UNL1        0.1573
     21 C         -11.2956  -17.9815   19.4115 C.3     1  UNL1        0.0356
     22 C         -11.4670  -16.9741   20.5096 C.3     1  UNL1        0.0592
     23 C         -11.2802  -15.5136   20.2233 C.3     1  UNL1        0.0174
     24 N         -11.8251  -17.4272   21.8940 N.3     1  UNL1       -0.2739
     25 C         -13.2655  -17.5753   22.2855 C.3     1  UNL1        0.0720
     26 C         -13.6236  -18.0284   23.6698 C.3     1  UNL1        0.0174
     27 C         -12.5413  -18.3335   24.6626 C.3     1  UNL1        0.0031
     28 C         -11.1009  -18.1855   24.2710 C.3     1  UNL1        0.0204
     29 C         -10.7428  -17.7324   22.8867 C.3     1  UNL1        0.0723
     30 C         -10.0187  -18.4906   25.2638 C.3     1  UNL1        0.0277
     31 C          -8.9811  -17.4558   25.5839 C.ar    1  UNL1       -0.0220
     32 C          -8.2107  -16.7988   24.4771 C.ar    1  UNL1       -0.0020
     33 C          -7.1731  -15.7639   24.7972 C.ar    1  UNL1        0.0293
     34 C          -6.9058  -15.3861   26.2240 C.ar    1  UNL1        0.1401
     35 F          -5.8681  -14.3512   26.5441 F       1  UNL1       -0.2042
     36 C          -7.6761  -16.0431   27.3308 C.ar    1  UNL1        0.0293
     37 C          -8.7138  -17.0780   27.0107 C.ar    1  UNL1       -0.0020
@<TRIPOS>BOND
     1     2     1    1
     2     2    21    1
     3    21    22    1
     4    22    23    1
     5    22    24    1
     6    24    25    1
     7    25    26    1
     8    26    27    1
     9    27    28    1
    10    28    30    1
    11    30    31    1
    12    31    32   ar
    13    32    33   ar
    14    33    34   ar
    15    34    35    1
    16    34    36   ar
    17    36    37   ar
    18    28    29    1
    19     2     3    1
    20     3     4   am
    21     4     5    2
    22     4     6   am
    23     6     9    1
    24     9    10   ar
    25    10    11   ar
    26    11    12   ar
    27    12    13   ar
    28    13    15    1
    29    15    16   ar
    30    16    17   ar
    31    17    18   ar
    32    18    19   ar
    33    19    20    1
    34    13    14   ar
    35    29    24    1
    36    14     9   ar
    37    37    31   ar
    38    19    15   ar
    39     3     7    1
    40     6     8    1
@<TRIPOS>MOLECULE
*****
 37 40 0 0 0
SMALL
GASTEIGER

@<TRIPOS>ATOM
      1 C           7.1004   -2.5308   28.9632 C.3     1  UNL1        0.0214
      2 C           6.0543   -2.1425   27.9608 C.3     1  UNL1        0.0744
      3 N           5.6461   -3.1101   26.8897 N.am    1  UNL1       -0.2903
      4 C           6.4685   -3.2385   25.6419 C.2     1  UNL1        0.3044
      5 O           7.6991   -2.3993   25.4650 O.2     1  UNL1       -0.2525
      6 N           6.0602   -4.2062   24.5709 N.am    1  UNL1       -0.2683
      7 H           4.8384   -3.6610   27.0058 H       1  UNL1        0.1509
      8 H           5.2525   -4.7570   24.6870 H       1  UNL1        0.1564
      9 C           6.8826   -4.3346   23.3230 C.ar    1  UNL1        0.0517
     10 C           8.1448   -5.1450   23.3366 C.ar    1  UNL1        0.0147
     11 C           8.9671   -5.2734   22.0888 C.ar    1  UNL1        0.0014
     12 C           8.5273   -4.5914   20.8272 C.ar    1  UNL1        0.0032
     13 C           7.2651   -3.7811   20.8136 C.ar    1  UNL1        0.0386
     14 C           6.4428   -3.6526   22.0615 C.ar    1  UNL1        0.0178
     15 C           6.8253   -3.0991   19.5520 C.ar    1  UNL1        0.1839
     16 N           7.5777   -2.0271   18.8209 N.ar    1  UNL1       -0.1081
     17 N           6.7732   -1.6348   17.6171 N.ar    1  UNL1       -0.0227
     18 N           5.5236   -2.4645   17.6043 N.ar    1  UNL1       -0.0429
     19 N           5.5558   -3.3694   18.8001 N.ar    1  UNL1       -0.2113
     20 C           4.5032   -4.3692   19.1778 C.3     1  UNL1        0.1573
     21 C           5.4164   -0.7866   28.0293 C.3     1  UNL1        0.0356
     22 C           4.3450   -0.4114   27.0489 C.3     1  UNL1        0.0592
     23 C           2.9408   -0.1818   27.5238 C.3     1  UNL1        0.0174
     24 N           4.6778   -0.2658   25.5935 N.3     1  UNL1       -0.2739
     25 C           5.8399    0.5834   25.1712 C.3     1  UNL1        0.0720
     26 C           6.1726    0.7290   23.7158 C.3     1  UNL1        0.0174
     27 C           5.3432    0.0254   22.6828 C.3     1  UNL1        0.0031
     28 C           4.1811   -0.8237   23.1052 C.3     1  UNL1        0.0204
     29 C           3.8484   -0.9693   24.5605 C.3     1  UNL1        0.0723
     30 C           3.3517   -1.5273   22.0721 C.3     1  UNL1        0.0277
     31 C           2.6193   -0.7340   21.0309 C.ar    1  UNL1       -0.0220
     32 C           3.1357   -0.6866   19.6233 C.ar    1  UNL1       -0.0020
     33 C           2.4033    0.1067   18.5821 C.ar    1  UNL1        0.0293
     34 C           1.1545    0.8525   18.9482 C.ar    1  UNL1        0.1401
     35 F           0.4220    1.6458   17.9069 F       1  UNL1       -0.2042
     36 C           0.6380    0.8051   20.3557 C.ar    1  UNL1        0.0293
     37 C           1.3704    0.0118   21.3971 C.ar    1  UNL1       -0.0020
@<TRIPOS>BOND
     1     2     1    1
     2     2    21    1
     3    21    22    1
     4    22    23    1
     5    22    24    1
     6    24    25    1
     7    25    26    1
     8    26    27    1
     9    27    28    1
    10    28    30    1
    11    30    31    1
    12    31    32   ar
    13    32    33   ar
    14    33    34   ar
    15    34    35    1
    16    34    36   ar
    17    36    37   ar
    18    28    29    1
    19     2     3    1
    20     3     4   am
    21     4     5    2
    22     4     6   am
    23     6     9    1
    24     9    10   ar
    25    10    11   ar
    26    11    12   ar
    27    12    13   ar
    28    13    15    1
    29    15    16   ar
    30    16    17   ar
    31    17    18   ar
    32    18    19   ar
    33    19    20    1
    34    13    14   ar
    35    29    24    1
    36    14     9   ar
    37    37    31   ar
    38    19    15   ar
    39     3     7    1
    40     6     8    1
@<TRIPOS>MOLECULE
*****
 37 40 0 0 0
SMALL
GASTEIGER

@<TRIPOS>ATOM
      1 C           8.2317   -3.2498   25.8355 C.3     1  UNL1        0.0214
      2 C           6.9993   -4.1004   25.7481 C.3     1  UNL1        0.0744
      3 N           5.8037   -3.6124   24.9849 N.am    1  UNL1       -0.2903
      4 C           5.7666   -3.7352   23.4904 C.2     1  UNL1        0.3044
      5 O           6.9251   -4.3460   22.7591 O.2     1  UNL1       -0.2525
      6 N           4.5711   -3.2471   22.7273 N.am    1  UNL1       -0.2683
      7 H           5.0434   -3.2115   25.4649 H       1  UNL1        0.1509
      8 H           3.8107   -2.8462   23.2073 H       1  UNL1        0.1564
      9 C           4.5339   -3.3699   21.2327 C.ar    1  UNL1        0.0517
     10 C           4.0014   -4.6192   20.5959 C.ar    1  UNL1        0.0147
     11 C           3.9643   -4.7419   19.1014 C.ar    1  UNL1        0.0014
     12 C           4.4597   -3.6154   18.2438 C.ar    1  UNL1        0.0032
     13 C           4.9922   -2.3661   18.8807 C.ar    1  UNL1        0.0386
     14 C           5.0293   -2.2434   20.3751 C.ar    1  UNL1        0.0178
     15 C           5.4876   -1.2396   18.0231 C.ar    1  UNL1        0.1839
     16 N           6.8782   -1.0898   17.4810 N.ar    1  UNL1       -0.1081
     17 N           6.9294    0.1774   16.6798 N.ar    1  UNL1       -0.0227
     18 N           5.5705    0.8107   16.7269 N.ar    1  UNL1       -0.0429
     19 N           4.6794   -0.0650   17.5570 N.ar    1  UNL1       -0.2113
     20 C           3.2339    0.1893   17.8667 C.3     1  UNL1        0.1573
     21 C           6.9625   -5.4390   26.4239 C.3     1  UNL1        0.0356
     22 C           7.9036   -5.7349   27.5539 C.3     1  UNL1        0.0592
     23 C           9.1910   -6.4572   27.2881 C.3     1  UNL1        0.0174
     24 N           7.5572   -5.3083   28.9497 N.3     1  UNL1       -0.2739
     25 C           7.8236   -6.2293   30.1033 C.3     1  UNL1        0.0720
     26 C           7.4773   -5.8028   31.4990 C.3     1  UNL1        0.0174
     27 C           6.8644   -4.4553   31.7411 C.3     1  UNL1        0.0031
     28 C           6.5979   -3.5343   30.5875 C.3     1  UNL1        0.0204
     29 C           6.9443   -3.9608   29.1918 C.3     1  UNL1        0.0723
     30 C           5.9851   -2.1868   30.8297 C.3     1  UNL1        0.0277
     31 C           5.7660   -1.7037   32.2327 C.ar    1  UNL1       -0.0220
     32 C           4.4652   -1.9803   32.9267 C.ar    1  UNL1       -0.0020
     33 C           4.2461   -1.4972   34.3297 C.ar    1  UNL1        0.0293
     34 C           5.3277   -0.7374   35.0388 C.ar    1  UNL1        0.1401
     35 F           5.1086   -0.2543   36.4419 F       1  UNL1       -0.2042
     36 C           6.6284   -0.4608   34.3449 C.ar    1  UNL1        0.0293
     37 C           6.8476   -0.9439   32.9418 C.ar    1  UNL1       -0.0020
@<TRIPOS>BOND
     1     2     1    1
     2     2    21    1
     3    21    22    1
     4    22    23    1
     5    22    24    1
     6    24    25    1
     7    25    26    1
     8    26    27    1
     9    27    28    1
    10    28    30    1
    11    30    31    1
    12    31    32   ar
    13    32    33   ar
    14    33    34   ar
    15    34    35    1
    16    34    36   ar
    17    36    37   ar
    18    28    29    1
    19     2     3    1
    20     3     4   am
    21     4     5    2
    22     4     6   am
    23     6     9    1
    24     9    10   ar
    25    10    11   ar
    26    11    12   ar
    27    12    13   ar
    28    13    15    1
    29    15    16   ar
    30    16    17   ar
    31    17    18   ar
    32    18    19   ar
    33    19    20    1
    34    13    14   ar
    35    29    24    1
    36    14     9   ar
    37    37    31   ar
    38    19    15   ar
    39     3     7    1
    40     6     8    1
@<TRIPOS>MOLECULE
*****
 37 40 0 0 0
SMALL
GASTEIGER

@<TRIPOS>ATOM
      1 C          -1.1282    4.2912   23.5367 C.3     1  UNL1        0.0214
      2 C          -1.3157    4.0959   22.0614 C.3     1  UNL1        0.0744
      3 N          -1.3300    2.7115   21.4840 N.am    1  UNL1       -0.2903
      4 C          -0.0757    2.1276   20.9045 C.2     1  UNL1        0.3044
      5 O           1.1928    2.9280   20.9023 O.2     1  UNL1       -0.2525
      6 N          -0.0900    0.7432   20.3271 N.am    1  UNL1       -0.2683
      7 H          -2.1626    2.1861   21.4854 H       1  UNL1        0.1509
      8 H          -0.9227    0.2179   20.3285 H       1  UNL1        0.1564
      9 C           1.1643    0.1593   19.7476 C.ar    1  UNL1        0.0517
     10 C           1.6099    0.5558   18.3713 C.ar    1  UNL1        0.0147
     11 C           2.8641   -0.0282   17.7918 C.ar    1  UNL1        0.0014
     12 C           3.6727   -1.0086   18.5886 C.ar    1  UNL1        0.0032
     13 C           3.2271   -1.4051   19.9649 C.ar    1  UNL1        0.0386
     14 C           1.9729   -0.8212   20.5444 C.ar    1  UNL1        0.0178
     15 C           4.0357   -2.3855   20.7617 C.ar    1  UNL1        0.1839
     16 N           4.8363   -2.0747   21.9915 N.ar    1  UNL1       -0.1081
     17 N           5.4811   -3.3460   22.4584 N.ar    1  UNL1       -0.0227
     18 N           5.0790   -4.4426   21.5172 N.ar    1  UNL1       -0.0429
     19 N           4.1857   -3.8490   20.4686 N.ar    1  UNL1       -0.2113
     20 C           3.5534   -4.5889   19.3272 C.3     1  UNL1        0.1573
     21 C          -1.4890    5.2848   21.1634 C.3     1  UNL1        0.0356
     22 C          -2.0677    5.1099   19.7907 C.3     1  UNL1        0.0592
     23 C          -1.2257    5.3879   18.5808 C.3     1  UNL1        0.0174
     24 N          -3.4884    4.6570   19.6278 N.3     1  UNL1       -0.2739
     25 C          -3.9452    4.0752   18.3229 C.3     1  UNL1        0.0720
     26 C          -5.3658    3.6223   18.1600 C.3     1  UNL1        0.0174
     27 C          -6.3297    3.7512   19.3021 C.3     1  UNL1        0.0031
     28 C          -5.8729    4.3329   20.6070 C.3     1  UNL1        0.0204
     29 C          -4.4523    4.7858   20.7698 C.3     1  UNL1        0.0723
     30 C          -6.8368    4.4618   21.7491 C.3     1  UNL1        0.0277
     31 C          -6.3287    4.4868   23.1601 C.ar    1  UNL1       -0.0220
     32 C          -6.8127    5.5393   24.1131 C.ar    1  UNL1       -0.0020
     33 C          -6.3046    5.5642   25.5242 C.ar    1  UNL1        0.0293
     34 C          -5.3125    4.5367   25.9824 C.ar    1  UNL1        0.1401
     35 F          -4.8044    4.5617   27.3935 F       1  UNL1       -0.2042
     36 C          -4.8285    3.4843   25.0295 C.ar    1  UNL1        0.0293
     37 C          -5.3366    3.4593   23.6183 C.ar    1  UNL1       -0.0020
@<TRIPOS>BOND
     1     2     1    1
     2     2    21    1
     3    21    22    1
     4    22    23    1
     5    22    24    1
     6    24    25    1
     7    25    26    1
     8    26    27    1
     9    27    28    1
    10    28    30    1
    11    30    31    1
    12    31    32   ar
    13    32    33   ar
    14    33    34   ar
    15    34    35    1
    16    34    36   ar
    17    36    37   ar
    18    28    29    1
    19     2     3    1
    20     3     4   am
    21     4     5    2
    22     4     6   am
    23     6     9    1
    24     9    10   ar
    25    10    11   ar
    26    11    12   ar
    27    12    13   ar
    28    13    15    1
    29    15    16   ar
    30    16    17   ar
    31    17    18   ar
    32    18    19   ar
    33    19    20    1
    34    13    14   ar
    35    29    24    1
    36    14     9   ar
    37    37    31   ar
    38    19    15   ar
    39     3     7    1
    40     6     8    1
@<TRIPOS>MOLECULE
*****
 37 40 0 0 0
SMALL
GASTEIGER

@<TRIPOS>ATOM
      1 C         -10.7516  -20.3626   20.8701 C.3     1  UNL1        0.0214
      2 C         -10.0507  -19.5386   19.8311 C.3     1  UNL1        0.0744
      3 N          -8.6644  -19.9064   19.3917 N.am    1  UNL1       -0.2903
      4 C          -7.4752  -19.3485   20.1160 C.2     1  UNL1        0.3044
      5 O          -7.6723  -18.4227   21.2796 O.2     1  UNL1       -0.2525
      6 N          -6.0890  -19.7164   19.6766 N.am    1  UNL1       -0.2683
      7 H          -8.5350  -20.5141   18.6280 H       1  UNL1        0.1509
      8 H          -5.9597  -20.3241   18.9129 H       1  UNL1        0.1564
      9 C          -4.8998  -19.1585   20.4009 C.ar    1  UNL1        0.0517
     10 C          -3.5607  -19.1205   19.7262 C.ar    1  UNL1        0.0147
     11 C          -2.3716  -18.5626   20.4505 C.ar    1  UNL1        0.0014
     12 C          -2.5215  -18.0427   21.8495 C.ar    1  UNL1        0.0032
     13 C          -3.8606  -18.0808   22.5243 C.ar    1  UNL1        0.0386
     14 C          -5.0497  -18.6387   21.8000 C.ar    1  UNL1        0.0178
     15 C          -4.0106  -17.5609   23.9233 C.ar    1  UNL1        0.1839
     16 N          -3.4861  -18.2142   25.1676 N.ar    1  UNL1       -0.1081
     17 N          -3.8627  -17.3535   26.3370 N.ar    1  UNL1       -0.0227
     18 N          -4.6199  -16.1684   25.8154 N.ar    1  UNL1       -0.0429
     19 N          -4.7113  -16.2966   24.3237 N.ar    1  UNL1       -0.2113
     20 C          -5.3851  -15.3300   23.3954 C.3     1  UNL1        0.1573
     21 C         -10.7359  -18.3467   19.2314 C.3     1  UNL1        0.0356
     22 C         -11.3143  -17.2872   20.1219 C.3     1  UNL1        0.0592
     23 C         -11.5041  -15.8927   19.6030 C.3     1  UNL1        0.0174
     24 N         -11.7028  -17.6223   21.5315 N.3     1  UNL1       -0.2739
     25 C         -13.1498  -17.6412   21.9263 C.3     1  UNL1        0.0720
     26 C         -13.5383  -17.9763   23.3358 C.3     1  UNL1        0.0174
     27 C         -12.4798  -18.2925   24.3505 C.3     1  UNL1        0.0031
     28 C         -11.0329  -18.2736   23.9557 C.3     1  UNL1        0.0204
     29 C         -10.6444  -17.9385   22.5462 C.3     1  UNL1        0.0723
     30 C          -9.9744  -18.5898   24.9704 C.3     1  UNL1        0.0277
     31 C          -9.2515  -17.4781   25.6715 C.ar    1  UNL1       -0.0220
     32 C          -8.7022  -16.3262   24.8832 C.ar    1  UNL1       -0.0020
     33 C          -7.9794  -15.2145   25.5843 C.ar    1  UNL1        0.0293
     34 C          -7.8058  -15.2546   27.0736 C.ar    1  UNL1        0.1401
     35 F          -7.0829  -14.1428   27.7747 F       1  UNL1       -0.2042
     36 C          -8.3550  -16.4065   27.8620 C.ar    1  UNL1        0.0293
     37 C          -9.0779  -17.5183   27.1609 C.ar    1  UNL1       -0.0020
@<TRIPOS>BOND
     1     2     1    1
     2     2    21    1
     3    21    22    1
     4    22    23    1
     5    22    24    1
     6    24    25    1
     7    25    26    1
     8    26    27    1
     9    27    28    1
    10    28    30    1
    11    30    31    1
    12    31    32   ar
    13    32    33   ar
    14    33    34   ar
    15    34    35    1
    16    34    36   ar
    17    36    37   ar
    18    28    29    1
    19     2     3    1
    20     3     4   am
    21     4     5    2
    22     4     6   am
    23     6     9    1
    24     9    10   ar
    25    10    11   ar
    26    11    12   ar
    27    12    13   ar
    28    13    15    1
    29    15    16   ar
    30    16    17   ar
    31    17    18   ar
    32    18    19   ar
    33    19    20    1
    34    13    14   ar
    35    29    24    1
    36    14     9   ar
    37    37    31   ar
    38    19    15   ar
    39     3     7    1
    40     6     8    1
@<TRIPOS>MOLECULE
*****
 37 40 0 0 0
SMALL
GASTEIGER

@<TRIPOS>ATOM
      1 C          -2.6105    4.9372   20.2823 C.3     1  UNL1        0.0214
      2 C          -1.9745    4.0029   21.2685 C.3     1  UNL1        0.0744
      3 N          -1.7957    2.5545   20.9217 N.am    1  UNL1       -0.2903
      4 C          -0.4565    2.0509   20.4711 C.2     1  UNL1        0.3044
      5 O           0.7039    2.9957   20.3673 O.2     1  UNL1       -0.2525
      6 N          -0.2778    0.6026   20.1244 N.am    1  UNL1       -0.2683
      7 H          -2.5573    1.9343   20.9898 H       1  UNL1        0.1509
      8 H          -1.0394   -0.0175   20.1925 H       1  UNL1        0.1564
      9 C           1.0614    0.0989   19.6738 C.ar    1  UNL1        0.0517
     10 C           1.6647    0.6099   18.3991 C.ar    1  UNL1        0.0147
     11 C           3.0039    0.1063   17.9486 C.ar    1  UNL1        0.0014
     12 C           3.7397   -0.9083   18.7727 C.ar    1  UNL1        0.0032
     13 C           3.1363   -1.4193   20.0474 C.ar    1  UNL1        0.0386
     14 C           1.7972   -0.9157   20.4979 C.ar    1  UNL1        0.0178
     15 C           3.8721   -2.4339   20.8715 C.ar    1  UNL1        0.1839
     16 N           4.2486   -2.2907   22.3164 N.ar    1  UNL1       -0.1081
     17 N           4.9698   -3.5382   22.7333 N.ar    1  UNL1       -0.0227
     18 N           5.0390   -4.4523   21.5461 N.ar    1  UNL1       -0.0429
     19 N           4.3606   -3.7698   20.3954 N.ar    1  UNL1       -0.2113
     20 C           4.1991   -4.3257   19.0116 C.3     1  UNL1        0.1573
     21 C          -1.5173    4.5169   22.6014 C.3     1  UNL1        0.0356
     22 C          -1.9178    3.8027   23.8582 C.3     1  UNL1        0.0592
     23 C          -3.3310    3.8911   24.3532 C.3     1  UNL1        0.0174
     24 N          -0.9050    3.0001   24.6200 N.3     1  UNL1       -0.2739
     25 C           0.4738    2.8081   24.0615 C.3     1  UNL1        0.0720
     26 C           1.4865    2.0056   24.8233 C.3     1  UNL1        0.0174
     27 C           1.1203    1.3950   26.1435 C.3     1  UNL1        0.0031
     28 C          -0.2585    1.5870   26.7020 C.3     1  UNL1        0.0204
     29 C          -1.2712    2.3895   25.9403 C.3     1  UNL1        0.0723
     30 C          -0.6246    0.9764   28.0223 C.3     1  UNL1        0.0277
     31 C           0.4026    0.8703   29.1102 C.ar    1  UNL1       -0.0220
     32 C           1.2983   -0.3308   29.1814 C.ar    1  UNL1       -0.0020
     33 C           2.3256   -0.4370   30.2692 C.ar    1  UNL1        0.0293
     34 C           2.4571    0.6580   31.2860 C.ar    1  UNL1        0.1401
     35 F           3.4844    0.5518   32.3739 F       1  UNL1       -0.2042
     36 C           1.5614    1.8591   31.2149 C.ar    1  UNL1        0.0293
     37 C           0.5341    1.9652   30.1269 C.ar    1  UNL1       -0.0020
@<TRIPOS>BOND
     1     2     1    1
     2     2    21    1
     3    21    22    1
     4    22    23    1
     5    22    24    1
     6    24    25    1
     7    25    26    1
     8    26    27    1
     9    27    28    1
    10    28    30    1
    11    30    31    1
    12    31    32   ar
    13    32    33   ar
    14    33    34   ar
    15    34    35    1
    16    34    36   ar
    17    36    37   ar
    18    28    29    1
    19     2     3    1
    20     3     4   am
    21     4     5    2
    22     4     6   am
    23     6     9    1
    24     9    10   ar
    25    10    11   ar
    26    11    12   ar
    27    12    13   ar
    28    13    15    1
    29    15    16   ar
    30    16    17   ar
    31    17    18   ar
    32    18    19   ar
    33    19    20    1
    34    13    14   ar
    35    29    24    1
    36    14     9   ar
    37    37    31   ar
    38    19    15   ar
    39     3     7    1
    40     6     8    1
