@<TRIPOS>MOLECULE
*****
 38 42 0 0 0
SMALL
GASTEIGER

@<TRIPOS>ATOM
      1 C           7.8492   -3.0102   21.2064 C.3     1  UNL1        0.0972
      2 C           7.5361   -2.0192   22.2879 C.3     1  UNL1        0.0431
      3 C           7.3838   -2.7719   23.5765 C.3     1  UNL1        0.0968
      4 N           7.6027   -4.2281   23.2913 N.am    1  UNL1       -0.2623
      5 C           7.5443   -5.3416   24.2947 C.2     1  UNL1        0.3073
      6 O           7.7863   -6.7566   23.8597 O.2     1  UNL1       -0.2523
      7 N           7.2440   -5.0400   25.7330 N.am    1  UNL1       -0.2626
      8 C           6.9817   -3.6817   26.3129 C.3     1  UNL1        0.0964
      9 C           6.7288   -3.8460   27.7823 C.3     1  UNL1        0.0390
     10 C           6.8347   -5.3058   28.1105 C.3     1  UNL1        0.0759
     11 C           7.1531   -6.0438   26.8440 C.3     1  UNL1        0.1106
     12 C           7.8904   -4.3755   21.8265 C.3     1  UNL1        0.1147
     13 C           6.9300   -2.2825   18.8879 C.2     1  UNL1        0.2551
     14 O           7.1613   -1.9642   17.4404 O.2     1  UNL1       -0.2694
     15 N           8.0805   -2.6920   19.7589 N.am    1  UNL1       -0.2738
     16 C           9.4622   -2.7832   19.1824 C.3     1  UNL1        0.1152
     17 C           3.6016   -1.4007   20.6795 C.ar    1  UNL1        0.0296
     18 C           3.2420   -2.7008   20.0233 C.ar    1  UNL1        0.0071
     19 C           4.4451   -3.1894   19.2723 C.ar    1  UNL1        0.0115
     20 C           5.5482   -2.1912   19.4643 C.ar    1  UNL1        0.0830
     21 S           5.0269   -1.0858   20.3340 S.2     1  UNL1       -0.0824
     22 C           0.8820    1.1133   23.2355 C.ar    1  UNL1       -0.0222
     23 C           2.0390    0.3896   23.8580 C.ar    1  UNL1       -0.0043
     24 C           2.9455   -0.4484   23.0060 C.ar    1  UNL1        0.0002
     25 C           2.6950   -0.5627   21.5315 C.ar    1  UNL1        0.0060
     26 C           1.5380    0.1610   20.9090 C.ar    1  UNL1        0.0002
     27 C           0.6315    0.9990   21.7610 C.ar    1  UNL1       -0.0043
     28 C          -0.2286    1.6040   25.5324 C.3     1  UNL1        0.0050
     29 C          -0.0246    1.9513   24.0875 C.3     1  UNL1        0.0264
     30 N           6.6540   -5.9199   29.4670 N.3     1  UNL1       -0.2971
     31 H           6.5288   -6.9218   29.3224 H       1  UNL1        0.1233
     32 C           7.7210   -5.7628   30.5095 C.3     1  UNL1        0.0687
     33 C           7.8155   -4.4918   31.3004 C.3     1  UNL1        0.0207
     34 C           6.5662   -3.7858   31.7375 C.3     1  UNL1        0.0335
     35 C           6.6607   -2.5148   32.5284 C.3     1  UNL1        0.1422
     36 O           8.0044   -1.9497   32.8823 O.3     1  UNL1       -0.3538
     37 C           9.2536   -2.6556   32.4452 C.3     1  UNL1        0.1422
     38 C           9.1591   -3.9267   31.6542 C.3     1  UNL1        0.0335
@<TRIPOS>BOND
     1    28    29    1
     2    29    22    1
     3    22    23   ar
     4    23    24   ar
     5    24    25   ar
     6    25    17    1
     7    17    18   ar
     8    18    19   ar
     9    19    20   ar
    10    20    13    1
    11    13    14    2
    12    13    15   am
    13    15    16    1
    14     1    15    1
    15     1     2    1
    16     2     3    1
    17     3     4    1
    18     4     5   am
    19     5     6    2
    20     5     7   am
    21     7     8    1
    22     8     9    1
    23     9    10    1
    24    10    30    1
    25    30    32    1
    26    32    33    1
    27    33    34    1
    28    34    35    1
    29    35    36    1
    30    36    37    1
    31    37    38    1
    32    10    11    1
    33     4    12    1
    34    20    21   ar
    35    25    26   ar
    36    26    27   ar
    37    27    22   ar
    38    21    17   ar
    39    12     1    1
    40    11     7    1
    41    38    33    1
    42    30    31    1
@<TRIPOS>MOLECULE
*****
 38 42 0 0 0
SMALL
GASTEIGER

@<TRIPOS>ATOM
      1 C           7.7325   -3.0103   21.0215 C.3     1  UNL1        0.0972
      2 C           7.3557   -4.4004   21.4403 C.3     1  UNL1        0.0431
      3 C           7.2430   -4.4195   22.9360 C.3     1  UNL1        0.0968
      4 N           7.5501   -3.0410   23.4415 N.am    1  UNL1       -0.2623
      5 C           7.5540   -2.6093   24.8780 C.2     1  UNL1        0.3073
      6 O           7.8822   -1.1895   25.2335 O.2     1  UNL1       -0.2523
      7 N           7.2297   -3.5974   25.9590 N.am    1  UNL1       -0.2626
      8 C           6.8840   -5.0430   25.7572 C.3     1  UNL1        0.0964
      9 C           6.6348   -5.6524   27.1051 C.3     1  UNL1        0.0390
     10 C           6.8265   -4.5834   28.1397 C.3     1  UNL1        0.0759
     11 C           7.1942   -3.3134   27.4314 C.3     1  UNL1        0.1106
     12 C           7.8526   -2.1701   22.2583 C.3     1  UNL1        0.1147
     13 C           6.7993   -2.0097   18.8128 C.2     1  UNL1        0.2551
     14 O           7.0176   -1.5418   17.4045 O.2     1  UNL1       -0.2694
     15 N           7.9507   -2.5424   19.6131 N.am    1  UNL1       -0.2738
     16 C           9.3204   -2.6071   19.0051 C.3     1  UNL1        0.1152
     17 C           3.5102   -1.2129   20.7134 C.ar    1  UNL1        0.0296
     18 C           3.1335   -2.4773   19.9996 C.ar    1  UNL1        0.0071
     19 C           4.3197   -2.9297   19.2008 C.ar    1  UNL1        0.0115
     20 C           5.4296   -1.9449   19.4208 C.ar    1  UNL1        0.0830
     21 S           4.9292   -0.8839   20.3557 S.2     1  UNL1       -0.0824
     22 C           0.8501    1.1740   23.4478 C.ar    1  UNL1       -0.0222
     23 C           0.6016    1.1777   21.9685 C.ar    1  UNL1       -0.0043
     24 C           1.4883    0.3821   21.0571 C.ar    1  UNL1        0.0002
     25 C           2.6235   -0.4173   21.6248 C.ar    1  UNL1        0.0060
     26 C           2.8719   -0.4210   23.1041 C.ar    1  UNL1        0.0002
     27 C           1.9852    0.3746   24.0155 C.ar    1  UNL1       -0.0043
     28 C          -0.2662    1.5124   25.7692 C.3     1  UNL1        0.0050
     29 C          -0.0366    1.9696   24.3592 C.3     1  UNL1        0.0264
     30 N           6.6768   -4.7545   29.6224 N.3     1  UNL1       -0.2971
     31 H           7.1956   -5.5954   29.8756 H       1  UNL1        0.1233
     32 C           7.1314   -3.6689   30.5523 C.3     1  UNL1        0.0687
     33 C           6.1249   -2.7579   31.1905 C.3     1  UNL1        0.0207
     34 C           5.5788   -1.5896   30.4243 C.3     1  UNL1        0.0335
     35 C           4.5724   -0.6787   31.0625 C.3     1  UNL1        0.1422
     36 O           4.1120   -0.9359   32.4668 O.3     1  UNL1       -0.3538
     37 C           4.6582   -2.1042   33.2328 C.3     1  UNL1        0.1422
     38 C           5.6647   -3.0152   32.5946 C.3     1  UNL1        0.0335
@<TRIPOS>BOND
     1    28    29    1
     2    29    22    1
     3    22    23   ar
     4    23    24   ar
     5    24    25   ar
     6    25    17    1
     7    17    18   ar
     8    18    19   ar
     9    19    20   ar
    10    20    13    1
    11    13    14    2
    12    13    15   am
    13    15    16    1
    14     1    15    1
    15     1     2    1
    16     2     3    1
    17     3     4    1
    18     4     5   am
    19     5     6    2
    20     5     7   am
    21     7     8    1
    22     8     9    1
    23     9    10    1
    24    10    30    1
    25    30    32    1
    26    32    33    1
    27    33    34    1
    28    34    35    1
    29    35    36    1
    30    36    37    1
    31    37    38    1
    32    10    11    1
    33     4    12    1
    34    20    21   ar
    35    25    26   ar
    36    26    27   ar
    37    27    22   ar
    38    21    17   ar
    39    12     1    1
    40    11     7    1
    41    38    33    1
    42    30    31    1
@<TRIPOS>MOLECULE
*****
 38 42 0 0 0
SMALL
GASTEIGER

@<TRIPOS>ATOM
      1 C          -0.7926    2.7093   25.8892 C.3     1  UNL1        0.0972
      2 C          -0.3533    1.2774   25.9710 C.3     1  UNL1        0.0431
      3 C           0.3710    1.0882   27.2709 C.3     1  UNL1        0.0968
      4 N           0.3794    2.4032   27.9925 N.am    1  UNL1       -0.2623
      5 C           0.9982    2.6696   29.3326 C.2     1  UNL1        0.3073
      6 O           0.9273    4.0429   29.9319 O.2     1  UNL1       -0.2523
      7 N           1.6880    1.5627   30.0736 N.am    1  UNL1       -0.2626
      8 C           1.8375    0.1463   29.6031 C.3     1  UNL1        0.0964
      9 C           2.5913   -0.6139   30.6539 C.3     1  UNL1        0.0390
     10 C           2.9077    0.3327   31.7736 C.3     1  UNL1        0.0759
     11 C           2.3494    1.6779   31.4150 C.3     1  UNL1        0.1106
     12 C          -0.3397    3.4051   27.1386 C.3     1  UNL1        0.1147
     13 C          -0.9954    3.2881   23.3646 C.2     1  UNL1        0.2551
     14 O          -1.7542    3.9143   22.2323 O.2     1  UNL1       -0.2694
     15 N          -1.5514    3.3355   24.7570 N.am    1  UNL1       -0.2738
     16 C          -2.8661    4.0091   25.0170 C.3     1  UNL1        0.1152
     17 C           1.9828    0.9889   22.4108 C.ar    1  UNL1        0.0296
     18 C           2.7024    2.1670   22.9976 C.ar    1  UNL1        0.0071
     19 C           1.6744    3.1717   23.4263 C.ar    1  UNL1        0.0115
     20 C           0.3194    2.6146   23.1045 C.ar    1  UNL1        0.0830
     21 S           0.5100    1.2655   22.4769 S.2     1  UNL1       -0.0824
     22 C           3.9048   -2.7233   20.7449 C.ar    1  UNL1       -0.0222
     23 C           4.1431   -2.3316   22.1730 C.ar    1  UNL1       -0.0043
     24 C           3.5025   -1.0942   22.7284 C.ar    1  UNL1        0.0002
     25 C           2.6234   -0.2485   21.8555 C.ar    1  UNL1        0.0060
     26 C           2.3851   -0.6401   20.4273 C.ar    1  UNL1        0.0002
     27 C           3.0258   -1.8775   19.8720 C.ar    1  UNL1       -0.0043
     28 C           3.7506   -4.8930   19.3242 C.3     1  UNL1        0.0050
     29 C           4.5454   -3.9607   20.1895 C.3     1  UNL1        0.0264
     30 N           3.6517   -0.0064   33.0311 N.3     1  UNL1       -0.2971
     31 H           3.0384    0.2339   33.8100 H       1  UNL1        0.1233
     32 C           4.1228   -1.4106   33.2683 C.3     1  UNL1        0.0687
     33 C           5.5648   -1.7640   33.0545 C.3     1  UNL1        0.0207
     34 C           5.9282   -3.0243   32.3267 C.3     1  UNL1        0.0335
     35 C           7.3702   -3.3777   32.1129 C.3     1  UNL1        0.1422
     36 O           8.4489   -2.4709   32.6270 O.3     1  UNL1       -0.3538
     37 C           8.0855   -1.2107   33.3547 C.3     1  UNL1        0.1422
     38 C           6.6434   -0.8572   33.5685 C.3     1  UNL1        0.0335
@<TRIPOS>BOND
     1    28    29    1
     2    29    22    1
     3    22    23   ar
     4    23    24   ar
     5    24    25   ar
     6    25    17    1
     7    17    18   ar
     8    18    19   ar
     9    19    20   ar
    10    20    13    1
    11    13    14    2
    12    13    15   am
    13    15    16    1
    14     1    15    1
    15     1     2    1
    16     2     3    1
    17     3     4    1
    18     4     5   am
    19     5     6    2
    20     5     7   am
    21     7     8    1
    22     8     9    1
    23     9    10    1
    24    10    30    1
    25    30    32    1
    26    32    33    1
    27    33    34    1
    28    34    35    1
    29    35    36    1
    30    36    37    1
    31    37    38    1
    32    10    11    1
    33     4    12    1
    34    20    21   ar
    35    25    26   ar
    36    26    27   ar
    37    27    22   ar
    38    21    17   ar
    39    12     1    1
    40    11     7    1
    41    38    33    1
    42    30    31    1
@<TRIPOS>MOLECULE
*****
 38 42 0 0 0
SMALL
GASTEIGER

@<TRIPOS>ATOM
      1 C          -0.2910    2.8476   25.6047 C.3     1  UNL1        0.0972
      2 C           1.1150    3.3236   25.8200 C.3     1  UNL1        0.0431
      3 C           1.7333    2.4739   26.8904 C.3     1  UNL1        0.0968
      4 N           0.7094    1.4728   27.3367 N.am    1  UNL1       -0.2623
      5 C           0.9025    0.4247   28.3922 C.2     1  UNL1        0.3073
      6 O          -0.2186   -0.5116   28.7335 O.2     1  UNL1       -0.2523
      7 N           2.2168    0.3129   29.1064 N.am    1  UNL1       -0.2626
      8 C           3.4227    1.1741   28.8738 C.3     1  UNL1        0.0964
      9 C           4.5072    0.7137   29.8023 C.3     1  UNL1        0.0390
     10 C           3.9715   -0.4320   30.6088 C.3     1  UNL1        0.0759
     11 C           2.5560   -0.6797   30.1787 C.3     1  UNL1        0.1106
     12 C          -0.5417    1.7037   26.5421 C.3     1  UNL1        0.1147
     13 C          -0.9804    3.3662   23.1540 C.2     1  UNL1        0.2551
     14 O          -1.9632    3.9343   22.1735 O.2     1  UNL1       -0.2694
     15 N          -1.2738    3.4157   24.6242 N.am    1  UNL1       -0.2738
     16 C          -2.5499    4.0334   25.1138 C.3     1  UNL1        0.1152
     17 C           1.9349    1.1219   21.9172 C.ar    1  UNL1        0.0296
     18 C           2.5843    2.4740   21.9041 C.ar    1  UNL1        0.0071
     19 C           1.5713    3.4793   22.3658 C.ar    1  UNL1        0.0115
     20 C           0.2958    2.7485   22.6643 C.ar    1  UNL1        0.0830
     21 S           0.5206    1.2916   22.3870 S.2     1  UNL1       -0.0824
     22 C           3.8871   -2.7615   20.7518 C.ar    1  UNL1       -0.0222
     23 C           3.0574   -2.0100   19.7535 C.ar    1  UNL1       -0.0043
     24 C           2.4066   -0.7155   20.1420 C.ar    1  UNL1        0.0002
     25 C           2.5857   -0.1726   21.5288 C.ar    1  UNL1        0.0060
     26 C           3.4154   -0.9241   22.5270 C.ar    1  UNL1        0.0002
     27 C           4.0662   -2.2186   22.1386 C.ar    1  UNL1       -0.0043
     28 C           3.9028   -4.9328   19.3252 C.3     1  UNL1        0.0050
     29 C           4.5379   -4.0560   20.3633 C.3     1  UNL1        0.0264
     30 N           4.7199   -1.1958   31.6606 N.3     1  UNL1       -0.2971
     31 H           4.1798   -2.0397   31.8520 H       1  UNL1        0.1233
     32 C           6.1321   -1.6336   31.4074 C.3     1  UNL1        0.0687
     33 C           6.4103   -3.0256   30.9227 C.3     1  UNL1        0.0207
     34 C           6.7189   -4.1147   31.9069 C.3     1  UNL1        0.0335
     35 C           6.9971   -5.5067   31.4222 C.3     1  UNL1        0.1422
     36 O           6.9667   -5.8096   29.9534 O.3     1  UNL1       -0.3538
     37 C           6.6581   -4.7205   28.9693 C.3     1  UNL1        0.1422
     38 C           6.3799   -3.3284   29.4540 C.3     1  UNL1        0.0335
@<TRIPOS>BOND
     1    28    29    1
     2    29    22    1
     3    22    23   ar
     4    23    24   ar
     5    24    25   ar
     6    25    17    1
     7    17    18   ar
     8    18    19   ar
     9    19    20   ar
    10    20    13    1
    11    13    14    2
    12    13    15   am
    13    15    16    1
    14     1    15    1
    15     1     2    1
    16     2     3    1
    17     3     4    1
    18     4     5   am
    19     5     6    2
    20     5     7   am
    21     7     8    1
    22     8     9    1
    23     9    10    1
    24    10    30    1
    25    30    32    1
    26    32    33    1
    27    33    34    1
    28    34    35    1
    29    35    36    1
    30    36    37    1
    31    37    38    1
    32    10    11    1
    33     4    12    1
    34    20    21   ar
    35    25    26   ar
    36    26    27   ar
    37    27    22   ar
    38    21    17   ar
    39    12     1    1
    40    11     7    1
    41    38    33    1
    42    30    31    1
@<TRIPOS>MOLECULE
*****
 38 42 0 0 0
SMALL
GASTEIGER

@<TRIPOS>ATOM
      1 C           8.0149   -3.9424   24.9203 C.3     1  UNL1        0.0972
      2 C           8.8191   -3.1642   23.9214 C.3     1  UNL1        0.0431
      3 C           7.9812   -2.9851   22.6902 C.3     1  UNL1        0.0968
      4 N           6.6592   -3.6525   22.9281 N.am    1  UNL1       -0.2623
      5 C           5.5169   -3.7170   21.9581 C.2     1  UNL1        0.3073
      6 O           4.2492   -4.4232   22.3381 O.2     1  UNL1       -0.2523
      7 N           5.6422   -3.0754   20.6081 N.am    1  UNL1       -0.2626
      8 C           6.8415   -2.3383   20.0902 C.3     1  UNL1        0.0964
      9 C           6.5308   -1.8655   18.7009 C.3     1  UNL1        0.0390
     10 C           5.1394   -2.3104   18.3603 C.3     1  UNL1        0.0759
     11 C           4.5902   -3.0582   19.5389 C.3     1  UNL1        0.1106
     12 C           6.6799   -4.2442   24.3063 C.3     1  UNL1        0.1147
     13 C           8.0225   -3.5618   27.4903 C.2     1  UNL1        0.2551
     14 O           8.4739   -3.9670   28.8622 O.2     1  UNL1       -0.2694
     15 N           8.4663   -4.3476   26.2921 N.am    1  UNL1       -0.2738
     16 C           9.3614   -5.5386   26.4659 C.3     1  UNL1        0.1152
     17 C           5.1739   -0.9305   27.3266 C.ar    1  UNL1        0.0296
     18 C           6.3257   -0.1456   26.7723 C.ar    1  UNL1        0.0071
     19 C           7.5330   -1.0357   26.7661 C.ar    1  UNL1        0.0115
     20 C           7.1274   -2.3708   27.3167 C.ar    1  UNL1        0.0830
     21 S           5.6694   -2.3057   27.6630 S.2     1  UNL1       -0.0824
     22 C           0.9702    0.5761   27.8826 C.ar    1  UNL1       -0.0222
     23 C           1.6086   -0.2734   28.9412 C.ar    1  UNL1       -0.0043
     24 C           3.0099   -0.7756   28.7559 C.ar    1  UNL1        0.0002
     25 C           3.7727   -0.4283   27.5120 C.ar    1  UNL1        0.0060
     26 C           3.1342    0.4213   26.4534 C.ar    1  UNL1        0.0002
     27 C           1.7330    0.9234   26.6387 C.ar    1  UNL1       -0.0043
     28 C          -1.4261    0.2590   28.8351 C.3     1  UNL1        0.0050
     29 C          -0.4310    1.0783   28.0680 C.3     1  UNL1        0.0264
     30 N           4.4230   -2.0528   17.0678 N.3     1  UNL1       -0.2971
     31 H           3.6373   -2.7022   17.0322 H       1  UNL1        0.1233
     32 C           3.8712   -0.6890   16.7751 C.3     1  UNL1        0.0687
     33 C           3.5314    0.2403   17.9024 C.3     1  UNL1        0.0207
     34 C           2.2531    0.0574   18.6657 C.3     1  UNL1        0.0335
     35 C           1.9133    0.9868   19.7930 C.3     1  UNL1        0.1422
     36 O           2.8516    2.0991   20.1570 O.3     1  UNL1       -0.3538
     37 C           4.1298    2.2819   19.3936 C.3     1  UNL1        0.1422
     38 C           4.4697    1.3525   18.2663 C.3     1  UNL1        0.0335
@<TRIPOS>BOND
     1    28    29    1
     2    29    22    1
     3    22    23   ar
     4    23    24   ar
     5    24    25   ar
     6    25    17    1
     7    17    18   ar
     8    18    19   ar
     9    19    20   ar
    10    20    13    1
    11    13    14    2
    12    13    15   am
    13    15    16    1
    14     1    15    1
    15     1     2    1
    16     2     3    1
    17     3     4    1
    18     4     5   am
    19     5     6    2
    20     5     7   am
    21     7     8    1
    22     8     9    1
    23     9    10    1
    24    10    30    1
    25    30    32    1
    26    32    33    1
    27    33    34    1
    28    34    35    1
    29    35    36    1
    30    36    37    1
    31    37    38    1
    32    10    11    1
    33     4    12    1
    34    20    21   ar
    35    25    26   ar
    36    26    27   ar
    37    27    22   ar
    38    21    17   ar
    39    12     1    1
    40    11     7    1
    41    38    33    1
    42    30    31    1
@<TRIPOS>MOLECULE
*****
 38 42 0 0 0
SMALL
GASTEIGER

@<TRIPOS>ATOM
      1 C           0.3800    4.4362   23.1335 C.3     1  UNL1        0.0972
      2 C          -0.8144    3.8309   23.8095 C.3     1  UNL1        0.0431
      3 C          -0.3258    3.0083   24.9648 C.3     1  UNL1        0.0968
      4 N           1.1705    3.1052   25.0028 N.am    1  UNL1       -0.2623
      5 C           2.0724    2.4370   25.9978 C.2     1  UNL1        0.3073
      6 O           3.5577    2.6271   25.9099 O.2     1  UNL1       -0.2523
      7 N           1.4889    1.5787   27.0808 N.am    1  UNL1       -0.2626
      8 C           0.0310    1.2975   27.2936 C.3     1  UNL1        0.0964
      9 C          -0.0981    0.3959   28.4854 C.3     1  UNL1        0.0390
     10 C           1.2801    0.1198   29.0092 C.3     1  UNL1        0.0759
     11 C           2.2610    0.8508   28.1411 C.3     1  UNL1        0.1106
     12 C           1.6068    3.9877   23.8710 C.3     1  UNL1        0.1147
     13 C           0.4228    4.7425   20.5539 C.2     1  UNL1        0.2551
     14 O           0.3953    5.6389   19.3515 O.2     1  UNL1       -0.2694
     15 N           0.3525    5.3326   21.9311 N.am    1  UNL1       -0.2738
     16 C           0.2546    6.8191   22.1059 C.3     1  UNL1        0.1152
     17 C           1.3947    1.0379   19.9238 C.ar    1  UNL1        0.0296
     18 C          -0.0518    0.8988   20.2958 C.ar    1  UNL1        0.0071
     19 C          -0.5919    2.2697   20.5771 C.ar    1  UNL1        0.0115
     20 C           0.5207    3.2559   20.3790 C.ar    1  UNL1        0.0830
     21 S           1.7485    2.4946   19.9752 S.2     1  UNL1       -0.0824
     22 C           4.1830   -2.3249   18.8433 C.ar    1  UNL1       -0.0222
     23 C           3.9111   -1.2293   17.8556 C.ar    1  UNL1       -0.0043
     24 C           2.9817   -0.1084   18.2157 C.ar    1  UNL1        0.0002
     25 C           2.3241   -0.0830   19.5637 C.ar    1  UNL1        0.0060
     26 C           2.5960   -1.1786   20.5514 C.ar    1  UNL1        0.0002
     27 C           3.5254   -2.2996   20.1913 C.ar    1  UNL1       -0.0043
     28 C           4.6895   -4.8689   18.6972 C.3     1  UNL1        0.0050
     29 C           5.1124   -3.4458   18.4832 C.3     1  UNL1        0.0264
     30 N           1.6181   -0.7368   30.1932 N.3     1  UNL1       -0.2971
     31 H           1.3289   -1.6871   29.9613 H       1  UNL1        0.1233
     32 C           3.0353   -0.8216   30.6775 C.3     1  UNL1        0.0687
     33 C           3.3848   -0.3547   32.0594 C.3     1  UNL1        0.0207
     34 C           4.1583   -1.2509   32.9806 C.3     1  UNL1        0.0335
     35 C           4.5078   -0.7840   34.3626 C.3     1  UNL1        0.1422
     36 O           4.0839    0.5790   34.8234 O.3     1  UNL1       -0.3538
     37 C           3.3104    1.4752   33.9022 C.3     1  UNL1        0.1422
     38 C           2.9609    1.0083   32.5202 C.3     1  UNL1        0.0335
@<TRIPOS>BOND
     1    28    29    1
     2    29    22    1
     3    22    23   ar
     4    23    24   ar
     5    24    25   ar
     6    25    17    1
     7    17    18   ar
     8    18    19   ar
     9    19    20   ar
    10    20    13    1
    11    13    14    2
    12    13    15   am
    13    15    16    1
    14     1    15    1
    15     1     2    1
    16     2     3    1
    17     3     4    1
    18     4     5   am
    19     5     6    2
    20     5     7   am
    21     7     8    1
    22     8     9    1
    23     9    10    1
    24    10    30    1
    25    30    32    1
    26    32    33    1
    27    33    34    1
    28    34    35    1
    29    35    36    1
    30    36    37    1
    31    37    38    1
    32    10    11    1
    33     4    12    1
    34    20    21   ar
    35    25    26   ar
    36    26    27   ar
    37    27    22   ar
    38    21    17   ar
    39    12     1    1
    40    11     7    1
    41    38    33    1
    42    30    31    1
@<TRIPOS>MOLECULE
*****
 38 42 0 0 0
SMALL
GASTEIGER

@<TRIPOS>ATOM
      1 C           4.5444    0.1976   19.6080 C.3     1  UNL1        0.0972
      2 C           5.1423    0.9829   20.7375 C.3     1  UNL1        0.0431
      3 C           4.0295    1.3978   21.6537 C.3     1  UNL1        0.0968
      4 N           2.7438    0.8689   21.0905 N.am    1  UNL1       -0.2623
      5 C           1.3794    1.0500   21.6869 C.2     1  UNL1        0.3073
      6 O           0.1794    0.4604   21.0069 O.2     1  UNL1       -0.2523
      7 N           1.2151    1.8206   22.9633 N.am    1  UNL1       -0.2626
      8 C           2.3163    2.4644   23.7525 C.3     1  UNL1        0.0964
      9 C           1.7024    3.1244   24.9515 C.3     1  UNL1        0.0390
     10 C           0.2219    2.8886   24.9032 C.3     1  UNL1        0.0759
     11 C          -0.0794    2.0828   23.6745 C.3     1  UNL1        0.1106
     12 C           3.0620    0.1272   19.8262 C.3     1  UNL1        0.1147
     13 C           5.8246   -1.8104   18.5693 C.2     1  UNL1        0.2551
     14 O           6.5769   -2.4185   17.4229 O.2     1  UNL1       -0.2694
     15 N           5.2967   -0.4105   18.4616 N.am    1  UNL1       -0.2738
     16 C           5.5211    0.3813   17.2076 C.3     1  UNL1        0.1152
     17 C           5.9344   -3.6215   22.0005 C.ar    1  UNL1        0.0296
     18 C           4.5755   -4.0199   21.5058 C.ar    1  UNL1        0.0071
     19 C           4.3690   -3.3900   20.1602 C.ar    1  UNL1        0.0115
     20 C           5.6002   -2.6022   19.8233 C.ar    1  UNL1        0.0830
     21 S           6.5677   -2.7454   20.9607 S.2     1  UNL1       -0.0824
     22 C           7.7860   -4.8408   25.9165 C.ar    1  UNL1       -0.0222
     23 C           6.7580   -3.7491   25.8806 C.ar    1  UNL1       -0.0043
     24 C           6.1408   -3.3426   24.5753 C.ar    1  UNL1        0.0002
     25 C           6.5516   -4.0280   23.3058 C.ar    1  UNL1        0.0060
     26 C           7.5795   -5.1197   23.3417 C.ar    1  UNL1        0.0002
     27 C           8.1967   -5.5261   24.6470 C.ar    1  UNL1       -0.0043
     28 C           7.5280   -5.6310   28.3780 C.3     1  UNL1        0.0050
     29 C           8.4032   -5.2472   27.2218 C.3     1  UNL1        0.0264
     30 N          -0.7813    3.3734   25.9075 N.3     1  UNL1       -0.2971
     31 H          -1.5822    2.7444   25.8510 H       1  UNL1        0.1233
     32 C          -0.4062    3.4678   27.3568 C.3     1  UNL1        0.0687
     33 C          -0.1024    2.2223   28.1355 C.3     1  UNL1        0.0207
     34 C          -0.9681    1.0078   27.9754 C.3     1  UNL1        0.0335
     35 C          -0.6643   -0.2377   28.7540 C.3     1  UNL1        0.1422
     36 O           0.5053   -0.2688   29.6928 O.3     1  UNL1       -0.3538
     37 C           1.3709    0.9457   29.8529 C.3     1  UNL1        0.1422
     38 C           1.0671    2.1913   29.0742 C.3     1  UNL1        0.0335
@<TRIPOS>BOND
     1    28    29    1
     2    29    22    1
     3    22    23   ar
     4    23    24   ar
     5    24    25   ar
     6    25    17    1
     7    17    18   ar
     8    18    19   ar
     9    19    20   ar
    10    20    13    1
    11    13    14    2
    12    13    15   am
    13    15    16    1
    14     1    15    1
    15     1     2    1
    16     2     3    1
    17     3     4    1
    18     4     5   am
    19     5     6    2
    20     5     7   am
    21     7     8    1
    22     8     9    1
    23     9    10    1
    24    10    30    1
    25    30    32    1
    26    32    33    1
    27    33    34    1
    28    34    35    1
    29    35    36    1
    30    36    37    1
    31    37    38    1
    32    10    11    1
    33     4    12    1
    34    20    21   ar
    35    25    26   ar
    36    26    27   ar
    37    27    22   ar
    38    21    17   ar
    39    12     1    1
    40    11     7    1
    41    38    33    1
    42    30    31    1
@<TRIPOS>MOLECULE
*****
 38 42 0 0 0
SMALL
GASTEIGER

@<TRIPOS>ATOM
      1 C           4.1572    1.8083   33.0620 C.3     1  UNL1        0.0972
      2 C           2.6797    1.5593   33.1318 C.3     1  UNL1        0.0431
      3 C           2.1347    1.6092   31.7352 C.3     1  UNL1        0.0968
      4 N           3.2754    1.8890   30.8022 N.am    1  UNL1       -0.2623
      5 C           3.1825    2.0224   29.3111 C.2     1  UNL1        0.3073
      6 O           4.4156    2.3048   28.5050 O.2     1  UNL1       -0.2523
      7 N           1.8564    1.8735   28.6260 N.am    1  UNL1       -0.2626
      8 C           0.5445    1.5917   29.2963 C.3     1  UNL1        0.0964
      9 C          -0.5133    1.5242   28.2348 C.3     1  UNL1        0.0390
     10 C           0.1450    1.7642   26.9085 C.3     1  UNL1        0.0759
     11 C           1.6095    1.9801   27.1502 C.3     1  UNL1        0.1106
     12 C           4.5254    2.0121   31.6222 C.3     1  UNL1        0.1147
     13 C           5.7962    0.5939   34.6710 C.2     1  UNL1        0.2551
     14 O           6.7399    0.6323   35.8363 O.2     1  UNL1       -0.2694
     15 N           5.1009    1.8467   34.2273 N.am    1  UNL1       -0.2738
     16 C           5.3492    3.1380   34.9490 C.3     1  UNL1        0.1152
     17 C           5.8008   -2.5900   32.4509 C.ar    1  UNL1        0.0296
     18 C           4.5309   -2.7793   33.2266 C.ar    1  UNL1        0.0071
     19 C           4.3747   -1.6097   34.1527 C.ar    1  UNL1        0.0115
     20 C           5.5479   -0.6975   33.9494 C.ar    1  UNL1        0.0830
     21 S           6.4293   -1.3033   32.8976 S.2     1  UNL1       -0.0824
     22 C           7.4373   -5.3902   29.3316 C.ar    1  UNL1       -0.0222
     23 C           6.9551   -4.0261   28.9360 C.ar    1  UNL1       -0.0043
     24 C           6.4096   -3.0927   29.9758 C.ar    1  UNL1        0.0002
     25 C           6.3463   -3.5234   31.4112 C.ar    1  UNL1        0.0060
     26 C           6.8285   -4.8875   31.8068 C.ar    1  UNL1        0.0002
     27 C           7.3741   -5.8209   30.7670 C.ar    1  UNL1       -0.0043
     28 C           7.2909   -6.4584   26.9678 C.3     1  UNL1        0.0050
     29 C           7.9828   -6.3236   28.2918 C.3     1  UNL1        0.0264
     30 N          -0.5409    1.7848   25.5747 N.3     1  UNL1       -0.2971
     31 H          -1.3170    1.1255   25.6325 H       1  UNL1        0.1233
     32 C          -1.1025    3.0688   25.0398 C.3     1  UNL1        0.0687
     33 C          -2.5436    3.4123   25.2744 C.3     1  UNL1        0.0207
     34 C          -2.9900    3.8932   26.6234 C.3     1  UNL1        0.0335
     35 C          -4.4312    4.2368   26.8579 C.3     1  UNL1        0.1422
     36 O          -5.4260    4.0995   25.7436 O.3     1  UNL1       -0.3538
     37 C          -4.9795    3.6187   24.3948 C.3     1  UNL1        0.1422
     38 C          -3.5383    3.2751   24.1602 C.3     1  UNL1        0.0335
@<TRIPOS>BOND
     1    28    29    1
     2    29    22    1
     3    22    23   ar
     4    23    24   ar
     5    24    25   ar
     6    25    17    1
     7    17    18   ar
     8    18    19   ar
     9    19    20   ar
    10    20    13    1
    11    13    14    2
    12    13    15   am
    13    15    16    1
    14     1    15    1
    15     1     2    1
    16     2     3    1
    17     3     4    1
    18     4     5   am
    19     5     6    2
    20     5     7   am
    21     7     8    1
    22     8     9    1
    23     9    10    1
    24    10    30    1
    25    30    32    1
    26    32    33    1
    27    33    34    1
    28    34    35    1
    29    35    36    1
    30    36    37    1
    31    37    38    1
    32    10    11    1
    33     4    12    1
    34    20    21   ar
    35    25    26   ar
    36    26    27   ar
    37    27    22   ar
    38    21    17   ar
    39    12     1    1
    40    11     7    1
    41    38    33    1
    42    30    31    1
@<TRIPOS>MOLECULE
*****
 38 42 0 0 0
SMALL
GASTEIGER

@<TRIPOS>ATOM
      1 C           5.2550   -0.9117   34.1729 C.3     1  UNL1        0.0972
      2 C           4.4853   -2.0541   33.5792 C.3     1  UNL1        0.0431
      3 C           5.4161   -2.8307   32.6957 C.3     1  UNL1        0.0968
      4 N           6.7610   -2.1683   32.7433 N.am    1  UNL1       -0.2623
      5 C           7.9897   -2.6136   32.0073 C.2     1  UNL1        0.3073
      6 O           9.2707   -1.8469   32.1534 O.2     1  UNL1       -0.2523
      7 N           7.9376   -3.8257   31.1251 N.am    1  UNL1       -0.2626
      8 C           6.7346   -4.6882   30.8822 C.3     1  UNL1        0.0964
      9 C           7.1328   -5.7836   29.9379 C.3     1  UNL1        0.0390
     10 C           8.5817   -5.5981   29.5973 C.3     1  UNL1        0.0759
     11 C           9.0791   -4.3880   30.3310 C.3     1  UNL1        0.1106
     12 C           6.6615   -0.9823   33.6562 C.3     1  UNL1        0.1147
     13 C           4.1044    1.3817   34.5810 C.2     1  UNL1        0.2551
     14 O           3.5628    2.4135   35.5254 O.2     1  UNL1       -0.2694
     15 N           4.7133    0.1201   35.1173 N.am    1  UNL1       -0.2738
     16 C           4.7805   -0.1097   36.5980 C.3     1  UNL1        0.1152
     17 C           3.2238    1.7235   30.8163 C.ar    1  UNL1        0.0296
     18 C           4.6437    2.2069   30.8269 C.ar    1  UNL1        0.0071
     19 C           5.1465    2.1377   32.2384 C.ar    1  UNL1        0.0115
     20 C           4.0372    1.6115   33.1002 C.ar    1  UNL1        0.0830
     21 S           2.8490    1.3556   32.2213 S.2     1  UNL1       -0.0824
     22 C           0.5567    1.4289   27.2038 C.ar    1  UNL1       -0.0222
     23 C           0.4218    0.4346   28.3187 C.ar    1  UNL1       -0.0043
     24 C           1.3108    0.5328   29.5229 C.ar    1  UNL1        0.0002
     25 C           2.3348    1.6253   29.6121 C.ar    1  UNL1        0.0060
     26 C           2.4696    2.6196   28.4972 C.ar    1  UNL1        0.0002
     27 C           1.5806    2.5214   27.2930 C.ar    1  UNL1       -0.0043
     28 C           0.2616    1.3774   24.6231 C.3     1  UNL1        0.0050
     29 C          -0.3323    1.3307   25.9996 C.3     1  UNL1        0.0264
     30 N           9.3912   -6.4696   28.6834 N.3     1  UNL1       -0.2971
     31 H           9.9920   -7.0411   29.2773 H       1  UNL1        0.1233
     32 C           8.7024   -7.4060   27.7354 C.3     1  UNL1        0.0687
     33 C           8.3983   -6.9652   26.3343 C.3     1  UNL1        0.0207
     34 C           8.8839   -7.7776   25.1705 C.3     1  UNL1        0.0335
     35 C           8.5798   -7.3369   23.7693 C.3     1  UNL1        0.1422
     36 O           7.7902   -6.0838   23.5319 O.3     1  UNL1       -0.3538
     37 C           7.3046   -5.2715   24.6956 C.3     1  UNL1        0.1422
     38 C           7.6087   -5.7123   26.0969 C.3     1  UNL1        0.0335
@<TRIPOS>BOND
     1    28    29    1
     2    29    22    1
     3    22    23   ar
     4    23    24   ar
     5    24    25   ar
     6    25    17    1
     7    17    18   ar
     8    18    19   ar
     9    19    20   ar
    10    20    13    1
    11    13    14    2
    12    13    15   am
    13    15    16    1
    14     1    15    1
    15     1     2    1
    16     2     3    1
    17     3     4    1
    18     4     5   am
    19     5     6    2
    20     5     7   am
    21     7     8    1
    22     8     9    1
    23     9    10    1
    24    10    30    1
    25    30    32    1
    26    32    33    1
    27    33    34    1
    28    34    35    1
    29    35    36    1
    30    36    37    1
    31    37    38    1
    32    10    11    1
    33     4    12    1
    34    20    21   ar
    35    25    26   ar
    36    26    27   ar
    37    27    22   ar
    38    21    17   ar
    39    12     1    1
    40    11     7    1
    41    38    33    1
    42    30    31    1
