@<TRIPOS>MOLECULE
*****
 58 63 0 0 0
SMALL
GASTEIGER

@<TRIPOS>ATOM
      1 N           3.7020   -1.3113   23.2618 N.3     1  UNL1       -0.2650
      2 C           3.1774   -0.9178   21.9128 C.3     1  UNL1        0.0900
      3 C           2.1404    0.1597   21.7964 C.3     1  UNL1        0.0901
      4 N           1.6279    0.8436   23.0291 N.3     1  UNL1       -0.2621
      5 C           2.1525    0.4501   24.3782 C.3     1  UNL1        0.1510
      6 C           3.1895   -0.6274   24.4946 C.3     1  UNL1        0.0980
      7 C           1.6400    1.1341   25.6109 C.2     1  UNL1        0.2386
      8 O           2.3258    2.3647   26.1259 O.2     1  UNL1       -0.2736
      9 N           0.4415    0.5874   26.3286 N.am    1  UNL1       -0.2961
     10 H          -0.0086   -0.2202   25.9906 H       1  UNL1        0.1497
     11 C          -0.0710    1.2714   27.5613 C.3     1  UNL1        0.1939
     12 C          -1.1258    0.6134   28.4004 C.3     1  UNL1        0.4154
     13 F          -2.1808   -0.0447   29.2396 F       1  UNL1       -0.1682
     14 F          -2.0880    1.7096   28.0505 F       1  UNL1       -0.1682
     15 F          -0.1636   -0.4828   28.7503 F       1  UNL1       -0.1682
     16 C           5.1554   -1.8440   24.7123 C.3     1  UNL1        0.0255
     17 C           4.7391   -2.3888   23.3782 C.3     1  UNL1        0.1147
     18 C           4.3227   -2.9336   22.0441 C.3     1  UNL1        0.0255
     19 C           5.7761   -3.4663   23.4945 C.ar    1  UNL1        0.2185
     20 N           6.5118   -4.1086   22.3560 N.ar    1  UNL1       -0.2094
     21 C           7.4500   -5.1299   22.9277 C.ar    1  UNL1        0.1392
     22 C           7.2940   -5.1189   24.4195 C.ar    1  UNL1        0.1674
     23 O           6.2595   -4.0907   24.7699 O.2     1  UNL1       -0.4370
     24 C           8.0414   -5.9841   25.3905 C.ar    1  UNL1        0.0553
     25 C           8.6319   -7.2856   24.9350 C.ar    1  UNL1        0.0062
     26 C           9.3792   -8.1508   25.9061 C.ar    1  UNL1        0.0208
     27 C           9.5360   -7.7145   27.3326 C.ar    1  UNL1        0.0989
     28 N           8.9455   -6.4130   27.7881 N.ar    1  UNL1       -0.2422
     29 C           8.1982   -5.5478   26.8171 C.ar    1  UNL1        0.1019
     30 C           0.5908    1.9211   22.9127 C.3     1  UNL1        0.1021
     31 C           1.0105    3.3490   22.7255 C.3     1  UNL1        0.1269
     32 O           1.2910    4.2110   23.9206 O.3     1  UNL1       -0.3830
     33 H           1.1547    3.6951   24.7306 H       1  UNL1        0.2104
     34 C           1.1498    3.9147   21.3433 C.3     1  UNL1        0.0401
     35 C           0.0101    3.8140   20.3734 C.3     1  UNL1        0.0833
     36 C          -1.3823    4.1559   20.8142 C.2     1  UNL1        0.2226
     37 O          -1.8449    5.5828   20.7986 O.2     1  UNL1       -0.2751
     38 N          -2.3122    3.0710   21.2705 N.am    1  UNL1       -0.2999
     39 H          -2.0086    2.1345   21.2807 H       1  UNL1        0.1498
     40 C          -3.7046    3.4128   21.7113 C.3     1  UNL1        0.1278
     41 C          -3.9967    3.6397   23.1649 C.ar    1  UNL1        0.0320
     42 C          -2.8963    3.5247   24.1779 C.ar    1  UNL1        0.0004
     43 C          -3.1884    3.7516   25.6315 C.ar    1  UNL1       -0.0001
     44 C          -4.5808    4.0934   26.0723 C.ar    1  UNL1        0.0031
     45 C          -5.6811    4.2084   25.0595 C.ar    1  UNL1        0.0366
     46 C          -5.3891    3.9815   23.6057 C.ar    1  UNL1        0.1362
     47 O          -6.4895    4.0965   22.5928 O.3     1  UNL1       -0.4730
     48 C          -6.1974    3.8696   21.1392 C.3     1  UNL1        0.2364
     49 C          -4.8050    3.5278   20.6984 C.3     1  UNL1        0.1762
     50 O          -4.5129    3.3009   19.2446 O.3     1  UNL1       -0.3788
     51 H          -5.3274    3.4128   18.7299 H       1  UNL1        0.2106
     52 C           0.2628    3.3715   18.9625 C.3     1  UNL1        0.0355
     53 C           1.4141    2.4598   18.6573 C.ar    1  UNL1       -0.0217
     54 C           2.8072    3.0105   18.5814 C.ar    1  UNL1       -0.0043
     55 C           3.9586    2.0987   18.2762 C.ar    1  UNL1       -0.0003
     56 C           3.7167    0.6362   18.0468 C.ar    1  UNL1       -0.0000
     57 C           2.3235    0.0855   18.1227 C.ar    1  UNL1       -0.0003
     58 C           1.1722    0.9972   18.4279 C.ar    1  UNL1       -0.0043
@<TRIPOS>BOND
     1    16    17    1
     2    17    18    1
     3    17    19    1
     4    19    20   ar
     5    20    21   ar
     6    21    22   ar
     7    22    24    1
     8    24    25   ar
     9    25    26   ar
    10    26    27   ar
    11    27    28   ar
    12    28    29   ar
    13    22    23   ar
    14    17     1    1
    15     1     2    1
    16     2     3    1
    17     3     4    1
    18     4    30    1
    19    30    31    1
    20    31    32    1
    21    31    34    1
    22    35    34    1
    23    35    52    1
    24    52    53    1
    25    53    54   ar
    26    54    55   ar
    27    55    56   ar
    28    56    57   ar
    29    57    58   ar
    30    35    36    1
    31    36    37    2
    32    36    38   am
    33    40    38    1
    34    40    41    1
    35    41    42   ar
    36    42    43   ar
    37    43    44   ar
    38    44    45   ar
    39    45    46   ar
    40    46    47    1
    41    47    48    1
    42    48    49    1
    43    49    50    1
    44     4     5    1
    45     5     7    1
    46     7     8    2
    47     7     9   am
    48     9    11    1
    49    11    12    1
    50    12    13    1
    51    12    14    1
    52    12    15    1
    53     5     6    1
    54    23    19   ar
    55     6     1    1
    56    29    24   ar
    57    58    53   ar
    58    49    40    1
    59    46    41   ar
    60    32    33    1
    61    38    39    1
    62    50    51    1
    63     9    10    1
@<TRIPOS>MOLECULE
*****
 58 63 0 0 0
SMALL
GASTEIGER

@<TRIPOS>ATOM
      1 N           4.1607   -1.7960   23.1677 N.3     1  UNL1       -0.2650
      2 C           3.7179   -1.5839   21.7503 C.3     1  UNL1        0.0900
      3 C           2.7327   -0.5001   21.4265 C.3     1  UNL1        0.0901
      4 N           2.1904    0.3717   22.5200 N.3     1  UNL1       -0.2621
      5 C           2.6332    0.1597   23.9375 C.3     1  UNL1        0.1510
      6 C           3.6183   -0.9242   24.2613 C.3     1  UNL1        0.0980
      7 C           2.0909    1.0314   25.0310 C.2     1  UNL1        0.2386
      8 O           2.8599    2.2392   25.4783 O.2     1  UNL1       -0.2736
      9 N           0.7796    0.6955   25.6773 N.am    1  UNL1       -0.2961
     10 H           0.2749   -0.0972   25.3838 H       1  UNL1        0.1497
     11 C           0.2373    1.5673   26.7709 C.3     1  UNL1        0.1939
     12 C          -0.7989    1.0307   27.7134 C.3     1  UNL1        0.4154
     13 F          -1.8351    0.4941   28.6560 F       1  UNL1       -0.1682
     14 F           0.1325   -0.0774   28.1065 F       1  UNL1       -0.1682
     15 F          -1.7303    2.1388   27.3203 F       1  UNL1       -0.1682
     16 C           5.6858   -2.0519   24.6197 C.3     1  UNL1        0.0255
     17 C           5.1458   -2.8798   23.4915 C.3     1  UNL1        0.1147
     18 C           4.6058   -3.7077   22.3632 C.3     1  UNL1        0.0255
     19 C           6.1309   -3.9636   23.8153 C.ar    1  UNL1        0.2185
     20 N           7.0442   -4.6452   22.8399 N.ar    1  UNL1       -0.2094
     21 C           7.8534   -5.6590   23.5932 C.ar    1  UNL1        0.1392
     22 C           7.4402   -5.6040   25.0341 C.ar    1  UNL1        0.1674
     23 O           6.3756   -4.5563   25.1714 O.2     1  UNL1       -0.4370
     24 C           7.9943   -6.4486   26.1430 C.ar    1  UNL1        0.0553
     25 C           8.6758   -7.7472   25.8280 C.ar    1  UNL1        0.0062
     26 C           9.2299   -8.5917   26.9370 C.ar    1  UNL1        0.0208
     27 C           9.1025   -8.1376   28.3609 C.ar    1  UNL1        0.0989
     28 N           8.4210   -6.8390   28.6759 N.ar    1  UNL1       -0.2422
     29 C           7.8669   -5.9945   27.5669 C.ar    1  UNL1        0.1019
     30 C           1.2053    1.4555   22.1962 C.3     1  UNL1        0.1021
     31 C           0.2247    1.2678   21.0768 C.3     1  UNL1        0.1269
     32 O          -0.2048   -0.1135   20.6799 O.3     1  UNL1       -0.3830
     33 H           0.2418   -0.7652   21.2426 H       1  UNL1        0.2104
     34 C          -0.3264    2.4613   20.3544 C.3     1  UNL1        0.0401
     35 C          -1.4730    3.2297   20.9415 C.3     1  UNL1        0.0833
     36 C          -1.2602    4.0828   22.1568 C.2     1  UNL1        0.2226
     37 O          -0.8586    5.5199   22.0034 O.2     1  UNL1       -0.2751
     38 N          -1.4490    3.4988   23.5255 N.am    1  UNL1       -0.2999
     39 H          -1.7126    2.5556   23.6261 H       1  UNL1        0.1498
     40 C          -1.2362    4.3519   24.7408 C.3     1  UNL1        0.1278
     41 C          -2.4081    4.7686   25.5792 C.ar    1  UNL1        0.0320
     42 C          -3.7929    4.3323   25.2022 C.ar    1  UNL1        0.0004
     43 C          -4.9648    4.7490   26.0406 C.ar    1  UNL1       -0.0001
     44 C          -4.7520    5.6021   27.2559 C.ar    1  UNL1        0.0031
     45 C          -3.3673    6.0384   27.6329 C.ar    1  UNL1        0.0366
     46 C          -2.1953    5.6217   26.7945 C.ar    1  UNL1        0.1362
     47 O          -0.8105    6.0580   27.1714 O.3     1  UNL1       -0.4730
     48 C           0.3614    5.6413   26.3330 C.3     1  UNL1        0.2364
     49 C           0.1485    4.7882   25.1177 C.3     1  UNL1        0.1762
     50 O           1.3205    4.3715   24.2793 O.3     1  UNL1       -0.3788
     51 H           2.1355    4.7355   24.6591 H       1  UNL1        0.2106
     52 C          -2.8325    3.1452   20.3132 C.3     1  UNL1        0.0355
     53 C          -4.0049    3.8120   20.9696 C.ar    1  UNL1       -0.0217
     54 C          -4.8630    3.0441   21.9309 C.ar    1  UNL1       -0.0043
     55 C          -6.0354    3.7110   22.5873 C.ar    1  UNL1       -0.0003
     56 C          -6.3496    5.1457   22.2825 C.ar    1  UNL1       -0.0000
     57 C          -5.4915    5.9135   21.3212 C.ar    1  UNL1       -0.0003
     58 C          -4.3192    5.2467   20.6648 C.ar    1  UNL1       -0.0043
@<TRIPOS>BOND
     1    16    17    1
     2    17    18    1
     3    17    19    1
     4    19    20   ar
     5    20    21   ar
     6    21    22   ar
     7    22    24    1
     8    24    25   ar
     9    25    26   ar
    10    26    27   ar
    11    27    28   ar
    12    28    29   ar
    13    22    23   ar
    14    17     1    1
    15     1     2    1
    16     2     3    1
    17     3     4    1
    18     4    30    1
    19    30    31    1
    20    31    32    1
    21    31    34    1
    22    35    34    1
    23    35    52    1
    24    52    53    1
    25    53    54   ar
    26    54    55   ar
    27    55    56   ar
    28    56    57   ar
    29    57    58   ar
    30    35    36    1
    31    36    37    2
    32    36    38   am
    33    40    38    1
    34    40    41    1
    35    41    42   ar
    36    42    43   ar
    37    43    44   ar
    38    44    45   ar
    39    45    46   ar
    40    46    47    1
    41    47    48    1
    42    48    49    1
    43    49    50    1
    44     4     5    1
    45     5     7    1
    46     7     8    2
    47     7     9   am
    48     9    11    1
    49    11    12    1
    50    12    13    1
    51    12    14    1
    52    12    15    1
    53     5     6    1
    54    23    19   ar
    55     6     1    1
    56    29    24   ar
    57    58    53   ar
    58    49    40    1
    59    46    41   ar
    60    32    33    1
    61    38    39    1
    62    50    51    1
    63     9    10    1
@<TRIPOS>MOLECULE
*****
 58 63 0 0 0
SMALL
GASTEIGER

@<TRIPOS>ATOM
      1 N           1.7993    2.3326   19.1535 N.3     1  UNL1       -0.2650
      2 C           2.9006    3.3500   19.1982 C.3     1  UNL1        0.0900
      3 C           4.2863    2.9750   18.7630 C.3     1  UNL1        0.0901
      4 N           4.5706    1.5827   18.2830 N.3     1  UNL1       -0.2621
      5 C           3.4693    0.5652   18.2382 C.3     1  UNL1        0.1510
      6 C           2.0836    0.9402   18.6734 C.3     1  UNL1        0.0980
      7 C           3.7536   -0.8272   17.7582 C.2     1  UNL1        0.2386
      8 O           3.7998   -1.1187   16.2875 O.2     1  UNL1       -0.2736
      9 N           3.9918   -1.9281   18.7489 N.am    1  UNL1       -0.2961
     10 H           3.9616   -1.7367   19.7141 H       1  UNL1        0.1497
     11 C           4.2762   -3.3204   18.2689 C.3     1  UNL1        0.1939
     12 C           3.9445   -4.4961   19.1392 C.3     1  UNL1        0.4154
     13 F           3.6128   -5.6719   20.0097 F       1  UNL1       -0.1682
     14 F           5.3785   -4.5811   19.5709 F       1  UNL1       -0.1682
     15 F           2.5105   -4.4111   18.7075 F       1  UNL1       -0.1682
     16 C           0.6026    4.0781   19.0091 C.3     1  UNL1        0.0255
     17 C           0.4137    2.7076   19.5887 C.3     1  UNL1        0.1147
     18 C           0.2249    1.3370   20.1683 C.3     1  UNL1        0.0255
     19 C          -0.9719    3.0826   20.0239 C.ar    1  UNL1        0.2185
     20 N          -2.0929    3.5115   19.1242 N.ar    1  UNL1       -0.2094
     21 C          -3.2937    3.7885   19.9795 C.ar    1  UNL1        0.1392
     22 C          -2.9148    3.5307   21.4078 C.ar    1  UNL1        0.1674
     23 O          -1.4799    3.0944   21.4353 O.2     1  UNL1       -0.4370
     24 C          -3.8131    3.6825   22.5994 C.ar    1  UNL1        0.0553
     25 C          -3.2363    3.6420   23.9835 C.ar    1  UNL1        0.0062
     26 C          -4.1346    3.7938   25.1752 C.ar    1  UNL1        0.0208
     27 C          -5.6097    3.9862   24.9827 C.ar    1  UNL1        0.0989
     28 N          -6.1865    4.0267   23.5986 N.ar    1  UNL1       -0.2422
     29 C          -5.2882    3.8749   22.4070 C.ar    1  UNL1        0.1019
     30 C           5.9562    1.2077   17.8478 C.3     1  UNL1        0.1021
     31 C           6.9174    0.6140   18.8345 C.3     1  UNL1        0.1269
     32 O           7.7977   -0.5306   18.4284 O.3     1  UNL1       -0.3830
     33 H           7.6206   -0.7622   17.5033 H       1  UNL1        0.2104
     34 C           6.9983    1.1650   20.2273 C.3     1  UNL1        0.0401
     35 C           6.3374    0.4383   21.3609 C.3     1  UNL1        0.0833
     36 C           6.5211   -1.0428   21.5110 C.2     1  UNL1        0.2226
     37 O           5.3772   -1.9725   21.2329 O.2     1  UNL1       -0.2751
     38 N           7.8487   -1.5943   21.9391 N.am    1  UNL1       -0.2999
     39 H           8.5995   -0.9841   22.1216 H       1  UNL1        0.1498
     40 C           8.0325   -3.0754   22.0892 C.3     1  UNL1        0.1278
     41 C           7.6671   -3.7497   23.3783 C.ar    1  UNL1        0.0320
     42 C           7.1178   -2.9428   24.5173 C.ar    1  UNL1        0.0004
     43 C           6.7523   -3.6171   25.8064 C.ar    1  UNL1       -0.0001
     44 C           6.9361   -5.0982   25.9565 C.ar    1  UNL1        0.0031
     45 C           7.4853   -5.9051   24.8175 C.ar    1  UNL1        0.0366
     46 C           7.8508   -5.2308   23.5283 C.ar    1  UNL1        0.1362
     47 O           8.4001   -6.0376   22.3894 O.3     1  UNL1       -0.4730
     48 C           8.7655   -5.3633   21.1003 C.3     1  UNL1        0.2364
     49 C           8.5817   -3.8822   20.9502 C.3     1  UNL1        0.1762
     50 O           8.9472   -3.2080   19.6611 O.3     1  UNL1       -0.3788
     51 H           9.2840   -3.8680   19.0351 H       1  UNL1        0.2106
     52 C           5.4926    1.1927   22.3444 C.3     1  UNL1        0.0355
     53 C           5.1535    0.5768   23.6694 C.ar    1  UNL1       -0.0217
     54 C           6.0968    0.7208   24.8268 C.ar    1  UNL1       -0.0043
     55 C           5.7576    0.1048   26.1519 C.ar    1  UNL1       -0.0003
     56 C           4.4752   -0.6550   26.3195 C.ar    1  UNL1       -0.0000
     57 C           3.5320   -0.7990   25.1621 C.ar    1  UNL1       -0.0003
     58 C           3.8711   -0.1831   23.8371 C.ar    1  UNL1       -0.0043
@<TRIPOS>BOND
     1    16    17    1
     2    17    18    1
     3    17    19    1
     4    19    20   ar
     5    20    21   ar
     6    21    22   ar
     7    22    24    1
     8    24    25   ar
     9    25    26   ar
    10    26    27   ar
    11    27    28   ar
    12    28    29   ar
    13    22    23   ar
    14    17     1    1
    15     1     2    1
    16     2     3    1
    17     3     4    1
    18     4    30    1
    19    30    31    1
    20    31    32    1
    21    31    34    1
    22    35    34    1
    23    35    52    1
    24    52    53    1
    25    53    54   ar
    26    54    55   ar
    27    55    56   ar
    28    56    57   ar
    29    57    58   ar
    30    35    36    1
    31    36    37    2
    32    36    38   am
    33    40    38    1
    34    40    41    1
    35    41    42   ar
    36    42    43   ar
    37    43    44   ar
    38    44    45   ar
    39    45    46   ar
    40    46    47    1
    41    47    48    1
    42    48    49    1
    43    49    50    1
    44     4     5    1
    45     5     7    1
    46     7     8    2
    47     7     9   am
    48     9    11    1
    49    11    12    1
    50    12    13    1
    51    12    14    1
    52    12    15    1
    53     5     6    1
    54    23    19   ar
    55     6     1    1
    56    29    24   ar
    57    58    53   ar
    58    49    40    1
    59    46    41   ar
    60    32    33    1
    61    38    39    1
    62    50    51    1
    63     9    10    1
@<TRIPOS>MOLECULE
*****
 58 63 0 0 0
SMALL
GASTEIGER

@<TRIPOS>ATOM
      1 N           5.2346   -1.1456   31.0080 N.3     1  UNL1       -0.2650
      2 C           4.3381   -0.5031   29.9915 C.3     1  UNL1        0.0900
      3 C           4.4260   -0.9096   28.5503 C.3     1  UNL1        0.0901
      4 N           5.4105   -1.9586   28.1257 N.3     1  UNL1       -0.2621
      5 C           6.3071   -2.6012   29.1422 C.3     1  UNL1        0.1510
      6 C           6.2191   -2.1947   30.5834 C.3     1  UNL1        0.0980
      7 C           7.2916   -3.6501   28.7176 C.2     1  UNL1        0.2386
      8 O           8.7360   -3.2913   28.5305 O.2     1  UNL1       -0.2736
      9 N           6.8317   -5.0581   28.4800 N.am    1  UNL1       -0.2961
     10 H           5.8837   -5.2936   28.6028 H       1  UNL1        0.1497
     11 C           7.8162   -6.1070   28.0553 C.3     1  UNL1        0.1939
     12 C           7.4879   -7.0266   26.9167 C.3     1  UNL1        0.4154
     13 F           7.1596   -7.9463   25.7780 F       1  UNL1       -0.1682
     14 F           8.6752   -7.8763   27.2606 F       1  UNL1       -0.1682
     15 F           6.3006   -6.1770   26.5729 F       1  UNL1       -0.1682
     16 C           5.7418    0.5951   32.1092 C.3     1  UNL1        0.0255
     17 C           5.1466   -0.7391   32.4492 C.3     1  UNL1        0.1147
     18 C           4.5514   -2.0733   32.7892 C.3     1  UNL1        0.0255
     19 C           5.0587   -0.3326   33.8904 C.ar    1  UNL1        0.2185
     20 N           6.0363   -0.6931   34.9694 N.ar    1  UNL1       -0.2094
     21 C           5.5595   -0.0775   36.2515 C.ar    1  UNL1        0.1392
     22 C           4.2871    0.6634   35.9649 C.ar    1  UNL1        0.1674
     23 O           3.9776    0.5058   34.5056 O.2     1  UNL1       -0.4370
     24 C           3.4681    1.4278   36.9623 C.ar    1  UNL1        0.0553
     25 C           2.7997    2.7088   36.5596 C.ar    1  UNL1        0.0062
     26 C           1.9806    3.4732   37.5571 C.ar    1  UNL1        0.0208
     27 C           1.8300    2.9565   38.9572 C.ar    1  UNL1        0.0989
     28 N           2.4985    1.6755   39.3599 N.ar    1  UNL1       -0.2422
     29 C           3.3175    0.9111   38.3624 C.ar    1  UNL1        0.1019
     30 C           5.4985   -2.3651   26.6845 C.3     1  UNL1        0.1021
     31 C           6.4263   -1.6395   25.7558 C.3     1  UNL1        0.1269
     32 O           6.7822   -0.2064   26.0198 O.3     1  UNL1       -0.3830
     33 H           6.3309    0.0960   26.8233 H       1  UNL1        0.2104
     34 C           6.9984   -2.3469   24.5632 C.3     1  UNL1        0.0401
     35 C           6.4119   -2.1167   23.2020 C.3     1  UNL1        0.0833
     36 C           5.3075   -1.1181   23.0203 C.2     1  UNL1        0.2226
     37 O           5.6293    0.2915   22.6206 O.2     1  UNL1       -0.2751
     38 N           3.8815   -1.5289   23.2382 N.am    1  UNL1       -0.2999
     39 H           3.6703   -2.4540   23.5005 H       1  UNL1        0.1498
     40 C           2.7771   -0.5302   23.0564 C.3     1  UNL1        0.1278
     41 C           2.2724   -0.2122   21.6802 C.ar    1  UNL1        0.0320
     42 C           2.8721   -0.8930   20.4855 C.ar    1  UNL1        0.0004
     43 C           2.3674   -0.5750   19.1093 C.ar    1  UNL1       -0.0001
     44 C           1.2631    0.4237   18.9275 C.ar    1  UNL1        0.0031
     45 C           0.6634    1.1044   20.1221 C.ar    1  UNL1        0.0366
     46 C           1.1681    0.7864   21.4984 C.ar    1  UNL1        0.1362
     47 O           0.5684    1.4672   22.6930 O.3     1  UNL1       -0.4730
     48 C           1.0731    1.1492   24.0692 C.3     1  UNL1        0.2364
     49 C           2.1774    0.1505   24.2510 C.3     1  UNL1        0.1762
     50 O           2.6821   -0.1674   25.6273 O.3     1  UNL1       -0.3788
     51 H           2.1910    0.3552   26.2805 H       1  UNL1        0.2106
     52 C           6.9297   -2.8853   22.0224 C.3     1  UNL1        0.0355
     53 C           6.0118   -3.2215   20.8848 C.ar    1  UNL1       -0.0217
     54 C           4.8477   -4.1410   21.1069 C.ar    1  UNL1       -0.0043
     55 C           3.9297   -4.4772   19.9691 C.ar    1  UNL1       -0.0003
     56 C           4.1759   -3.8939   18.6094 C.ar    1  UNL1       -0.0000
     57 C           5.3400   -2.9744   18.3872 C.ar    1  UNL1       -0.0003
     58 C           6.2579   -2.6382   19.5249 C.ar    1  UNL1       -0.0043
@<TRIPOS>BOND
     1    16    17    1
     2    17    18    1
     3    17    19    1
     4    19    20   ar
     5    20    21   ar
     6    21    22   ar
     7    22    24    1
     8    24    25   ar
     9    25    26   ar
    10    26    27   ar
    11    27    28   ar
    12    28    29   ar
    13    22    23   ar
    14    17     1    1
    15     1     2    1
    16     2     3    1
    17     3     4    1
    18     4    30    1
    19    30    31    1
    20    31    32    1
    21    31    34    1
    22    35    34    1
    23    35    52    1
    24    52    53    1
    25    53    54   ar
    26    54    55   ar
    27    55    56   ar
    28    56    57   ar
    29    57    58   ar
    30    35    36    1
    31    36    37    2
    32    36    38   am
    33    40    38    1
    34    40    41    1
    35    41    42   ar
    36    42    43   ar
    37    43    44   ar
    38    44    45   ar
    39    45    46   ar
    40    46    47    1
    41    47    48    1
    42    48    49    1
    43    49    50    1
    44     4     5    1
    45     5     7    1
    46     7     8    2
    47     7     9   am
    48     9    11    1
    49    11    12    1
    50    12    13    1
    51    12    14    1
    52    12    15    1
    53     5     6    1
    54    23    19   ar
    55     6     1    1
    56    29    24   ar
    57    58    53   ar
    58    49    40    1
    59    46    41   ar
    60    32    33    1
    61    38    39    1
    62    50    51    1
    63     9    10    1
@<TRIPOS>MOLECULE
*****
 58 63 0 0 0
SMALL
GASTEIGER

@<TRIPOS>ATOM
      1 N           1.9112    2.2896   19.1286 N.3     1  UNL1       -0.2650
      2 C           2.9969    3.3202   19.0341 C.3     1  UNL1        0.0900
      3 C           4.3556    2.9342   18.5295 C.3     1  UNL1        0.0901
      4 N           4.6287    1.5175   18.1193 N.3     1  UNL1       -0.2621
      5 C           3.5430    0.4867   18.2137 C.3     1  UNL1        0.1510
      6 C           2.1842    0.8728   18.7184 C.3     1  UNL1        0.0980
      7 C           3.8160   -0.9300   17.8035 C.2     1  UNL1        0.2386
      8 O           3.9120   -1.2845   16.3492 O.2     1  UNL1       -0.2736
      9 N           3.9932   -1.9923   18.8477 N.am    1  UNL1       -0.2961
     10 H           3.9302   -1.7596   19.8022 H       1  UNL1        0.1497
     11 C           4.2662   -3.4090   18.4375 C.3     1  UNL1        0.1939
     12 C           3.8469   -4.5415   19.3271 C.3     1  UNL1        0.4154
     13 F           3.4274   -5.6740   20.2169 F       1  UNL1       -0.1682
     14 F           2.4116   -4.2892   18.9717 F       1  UNL1       -0.1682
     15 F           5.2821   -4.7937   19.6826 F       1  UNL1       -0.1682
     16 C           0.1251    3.0024   18.2330 C.3     1  UNL1        0.0255
     17 C           0.5524    2.6757   19.6333 C.3     1  UNL1        0.1147
     18 C           0.9796    2.3489   21.0335 C.3     1  UNL1        0.0255
     19 C          -0.8064    3.0617   20.1380 C.ar    1  UNL1        0.2185
     20 N          -1.9632    3.5148   19.2974 N.ar    1  UNL1       -0.2094
     21 C          -3.1187    3.7956   20.2118 C.ar    1  UNL1        0.1392
     22 C          -2.6760    3.5160   21.6174 C.ar    1  UNL1        0.1674
     23 O          -1.2469    3.0624   21.5719 O.2     1  UNL1       -0.4370
     24 C          -3.5151    3.6640   22.8520 C.ar    1  UNL1        0.0553
     25 C          -2.8715    3.6182   24.2061 C.ar    1  UNL1        0.0062
     26 C          -3.7106    3.7662   25.4407 C.ar    1  UNL1        0.0208
     27 C          -5.1932    3.9600   25.3210 C.ar    1  UNL1        0.0989
     28 N          -5.8367    4.0058   23.9668 N.ar    1  UNL1       -0.2422
     29 C          -4.9977    3.8578   22.7323 C.ar    1  UNL1        0.1019
     30 C           5.9875    1.1314   17.6146 C.3     1  UNL1        0.1021
     31 C           6.7239   -0.0136   18.2442 C.3     1  UNL1        0.1269
     32 O           6.9077   -1.2947   17.4860 O.3     1  UNL1       -0.3830
     33 H           6.4936   -1.2157   16.6124 H       1  UNL1        0.2104
     34 C           7.2766    0.1225   19.6320 C.3     1  UNL1        0.0401
     35 C           6.8555   -0.8379   20.7045 C.3     1  UNL1        0.0833
     36 C           5.7600   -0.4637   21.6584 C.2     1  UNL1        0.2226
     37 O           4.3576   -0.9358   21.4122 O.2     1  UNL1       -0.2751
     38 N           6.0668    0.3824   22.8583 N.am    1  UNL1       -0.2999
     39 H           6.9872    0.6922   23.0198 H       1  UNL1        0.1498
     40 C           4.9713    0.7565   23.8121 C.3     1  UNL1        0.1278
     41 C           4.7531   -0.0504   25.0576 C.ar    1  UNL1        0.0320
     42 C           5.6306   -1.2316   25.3492 C.ar    1  UNL1        0.0004
     43 C           5.4124   -2.0386   26.5947 C.ar    1  UNL1       -0.0001
     44 C           4.3169   -1.6644   27.5485 C.ar    1  UNL1        0.0031
     45 C           3.4395   -0.4833   27.2569 C.ar    1  UNL1        0.0366
     46 C           3.6576    0.3237   26.0114 C.ar    1  UNL1        0.1362
     47 O           2.7802    1.5049   25.7198 O.3     1  UNL1       -0.4730
     48 C           2.9983    2.3118   24.4744 C.3     1  UNL1        0.2364
     49 C           4.0939    1.9377   23.5205 C.3     1  UNL1        0.1762
     50 O           4.3120    2.7447   22.2750 O.3     1  UNL1       -0.3788
     51 H           3.6645    3.4661   22.2397 H       1  UNL1        0.2106
     52 C           7.5300   -2.1725   20.8232 C.3     1  UNL1        0.0355
     53 C           7.6761   -2.8221   22.1673 C.ar    1  UNL1       -0.0217
     54 C           6.7429   -3.9241   22.5732 C.ar    1  UNL1       -0.0043
     55 C           6.8891   -4.5737   23.9174 C.ar    1  UNL1       -0.0003
     56 C           7.9684   -4.1212   24.8556 C.ar    1  UNL1       -0.0000
     57 C           8.9016   -3.0192   24.4497 C.ar    1  UNL1       -0.0003
     58 C           8.7555   -2.3696   23.1056 C.ar    1  UNL1       -0.0043
@<TRIPOS>BOND
     1    16    17    1
     2    17    18    1
     3    17    19    1
     4    19    20   ar
     5    20    21   ar
     6    21    22   ar
     7    22    24    1
     8    24    25   ar
     9    25    26   ar
    10    26    27   ar
    11    27    28   ar
    12    28    29   ar
    13    22    23   ar
    14    17     1    1
    15     1     2    1
    16     2     3    1
    17     3     4    1
    18     4    30    1
    19    30    31    1
    20    31    32    1
    21    31    34    1
    22    35    34    1
    23    35    52    1
    24    52    53    1
    25    53    54   ar
    26    54    55   ar
    27    55    56   ar
    28    56    57   ar
    29    57    58   ar
    30    35    36    1
    31    36    37    2
    32    36    38   am
    33    40    38    1
    34    40    41    1
    35    41    42   ar
    36    42    43   ar
    37    43    44   ar
    38    44    45   ar
    39    45    46   ar
    40    46    47    1
    41    47    48    1
    42    48    49    1
    43    49    50    1
    44     4     5    1
    45     5     7    1
    46     7     8    2
    47     7     9   am
    48     9    11    1
    49    11    12    1
    50    12    13    1
    51    12    14    1
    52    12    15    1
    53     5     6    1
    54    23    19   ar
    55     6     1    1
    56    29    24   ar
    57    58    53   ar
    58    49    40    1
    59    46    41   ar
    60    32    33    1
    61    38    39    1
    62    50    51    1
    63     9    10    1
@<TRIPOS>MOLECULE
*****
 58 63 0 0 0
SMALL
GASTEIGER

@<TRIPOS>ATOM
      1 N           1.5378    2.6049   22.3505 N.3     1  UNL1       -0.2650
      2 C           2.0856    2.4705   23.7404 C.3     1  UNL1        0.0900
      3 C           3.5512    2.2283   23.9487 C.3     1  UNL1        0.0901
      4 N           4.4690    2.1205   22.7672 N.3     1  UNL1       -0.2621
      5 C           3.9212    2.2549   21.3773 C.3     1  UNL1        0.1510
      6 C           2.4556    2.4971   21.1689 C.3     1  UNL1        0.0980
      7 C           4.8389    2.1471   20.1957 C.2     1  UNL1        0.2386
      8 O           5.5334    3.3689   19.6715 O.2     1  UNL1       -0.2736
      9 N           5.0623    0.8173   19.5384 N.am    1  UNL1       -0.2961
     10 H           4.6065    0.0154   19.8825 H       1  UNL1        0.1497
     11 C           5.9801    0.7095   18.3569 C.3     1  UNL1        0.1939
     12 C           6.4848   -0.6335   17.9194 C.3     1  UNL1        0.4154
     13 F           6.9895   -1.9767   17.4819 F       1  UNL1       -0.1682
     14 F           6.1287   -1.2041   19.2601 F       1  UNL1       -0.1682
     15 F           6.8409   -0.0630   16.5787 F       1  UNL1       -0.1682
     16 C          -0.1291    2.9065   23.6274 C.3     1  UNL1        0.0255
     17 C           0.0722    2.8471   22.1422 C.3     1  UNL1        0.1147
     18 C           0.2736    2.7877   20.6569 C.3     1  UNL1        0.0255
     19 C          -1.3933    3.0893   21.9338 C.ar    1  UNL1        0.2185
     20 N          -2.1460    2.8923   20.6514 N.ar    1  UNL1       -0.2094
     21 C          -3.5814    3.2523   20.8963 C.ar    1  UNL1        0.1392
     22 C          -3.7159    3.6719   22.3301 C.ar    1  UNL1        0.1674
     23 O          -2.3636    3.5712   22.9714 O.2     1  UNL1       -0.4370
     24 C          -4.9806    4.1144   23.0044 C.ar    1  UNL1        0.0553
     25 C          -6.2586    4.1946   22.2231 C.ar    1  UNL1        0.0062
     26 C          -7.5233    4.6372   22.8974 C.ar    1  UNL1        0.0208
     27 C          -7.5101    4.9996   24.3529 C.ar    1  UNL1        0.0989
     28 N          -6.2321    4.9194   25.1341 N.ar    1  UNL1       -0.2422
     29 C          -4.9673    4.4768   24.4599 C.ar    1  UNL1        0.1019
     30 C           5.9346    1.8783   22.9756 C.3     1  UNL1        0.1021
     31 C           6.4547    0.4757   23.0861 C.3     1  UNL1        0.1269
     32 O           7.0603   -0.1960   21.8895 O.3     1  UNL1       -0.3830
     33 H           7.0379    0.4102   21.1326 H       1  UNL1        0.2104
     34 C           6.3691   -0.2551   24.3932 C.3     1  UNL1        0.0401
     35 C           5.8527   -1.6628   24.4330 C.3     1  UNL1        0.0833
     36 C           6.7575   -2.7819   24.8563 C.2     1  UNL1        0.2226
     37 O           8.2375   -2.5558   24.9482 O.2     1  UNL1       -0.2751
     38 N           6.1822   -4.1269   25.1877 N.am    1  UNL1       -0.2999
     39 H           5.2108   -4.2753   25.1274 H       1  UNL1        0.1498
     40 C           7.0870   -5.2460   25.6110 C.3     1  UNL1        0.1278
     41 C           7.2814   -5.5428   27.0684 C.ar    1  UNL1        0.0320
     42 C           6.5710   -4.7206   28.1026 C.ar    1  UNL1        0.0004
     43 C           6.7654   -5.0175   29.5600 C.ar    1  UNL1       -0.0001
     44 C           7.6701   -6.1365   29.9833 C.ar    1  UNL1        0.0031
     45 C           8.3805   -6.9587   28.9492 C.ar    1  UNL1        0.0366
     46 C           8.1861   -6.6619   27.4917 C.ar    1  UNL1        0.1362
     47 O           8.8964   -7.4841   26.4576 O.3     1  UNL1       -0.4730
     48 C           8.7020   -7.1872   25.0002 C.3     1  UNL1        0.2364
     49 C           7.7973   -6.0682   24.5769 C.3     1  UNL1        0.1762
     50 O           7.6029   -5.7713   23.1194 O.3     1  UNL1       -0.3788
     51 H           8.1295   -6.3907   22.5903 H       1  UNL1        0.2106
     52 C           4.4316   -1.9516   24.0495 C.3     1  UNL1        0.0355
     53 C           4.0819   -2.2232   22.6163 C.ar    1  UNL1       -0.0217
     54 C           3.2086   -1.2643   21.8627 C.ar    1  UNL1       -0.0043
     55 C           2.8589   -1.5360   20.4295 C.ar    1  UNL1       -0.0003
     56 C           3.3826   -2.7664   19.7500 C.ar    1  UNL1       -0.0000
     57 C           4.2559   -3.7253   20.5036 C.ar    1  UNL1       -0.0003
     58 C           4.6056   -3.4537   21.9367 C.ar    1  UNL1       -0.0043
@<TRIPOS>BOND
     1    16    17    1
     2    17    18    1
     3    17    19    1
     4    19    20   ar
     5    20    21   ar
     6    21    22   ar
     7    22    24    1
     8    24    25   ar
     9    25    26   ar
    10    26    27   ar
    11    27    28   ar
    12    28    29   ar
    13    22    23   ar
    14    17     1    1
    15     1     2    1
    16     2     3    1
    17     3     4    1
    18     4    30    1
    19    30    31    1
    20    31    32    1
    21    31    34    1
    22    35    34    1
    23    35    52    1
    24    52    53    1
    25    53    54   ar
    26    54    55   ar
    27    55    56   ar
    28    56    57   ar
    29    57    58   ar
    30    35    36    1
    31    36    37    2
    32    36    38   am
    33    40    38    1
    34    40    41    1
    35    41    42   ar
    36    42    43   ar
    37    43    44   ar
    38    44    45   ar
    39    45    46   ar
    40    46    47    1
    41    47    48    1
    42    48    49    1
    43    49    50    1
    44     4     5    1
    45     5     7    1
    46     7     8    2
    47     7     9   am
    48     9    11    1
    49    11    12    1
    50    12    13    1
    51    12    14    1
    52    12    15    1
    53     5     6    1
    54    23    19   ar
    55     6     1    1
    56    29    24   ar
    57    58    53   ar
    58    49    40    1
    59    46    41   ar
    60    32    33    1
    61    38    39    1
    62    50    51    1
    63     9    10    1
@<TRIPOS>MOLECULE
*****
 58 63 0 0 0
SMALL
GASTEIGER

@<TRIPOS>ATOM
      1 N           5.1492   -0.4591   24.8591 N.3     1  UNL1       -0.2650
      2 C           5.2657    0.1099   23.4762 C.3     1  UNL1        0.0900
      3 C           4.3100    1.1720   23.0192 C.3     1  UNL1        0.0901
      4 N           3.2379    1.6650   23.9451 N.3     1  UNL1       -0.2621
      5 C           3.1214    1.0960   25.3282 C.3     1  UNL1        0.1510
      6 C           4.0770    0.0339   25.7852 C.3     1  UNL1        0.0980
      7 C           2.0493    1.5890   26.2542 C.2     1  UNL1        0.2386
      8 O           2.3420    2.7034   27.2146 O.2     1  UNL1       -0.2736
      9 N           0.6844    0.9677   26.2197 N.am    1  UNL1       -0.2961
     10 H           0.4923    0.2363   25.5894 H       1  UNL1        0.1497
     11 C          -0.3876    1.4607   27.1457 C.3     1  UNL1        0.1939
     12 C          -1.0928    2.7526   26.8563 C.3     1  UNL1        0.4154
     13 F          -1.7979    4.0445   26.5668 F       1  UNL1       -0.1682
     14 F          -0.5080    3.3507   28.1013 F       1  UNL1       -0.1682
     15 F          -1.6776    2.1544   25.6112 F       1  UNL1       -0.1682
     16 C           6.7246   -0.5501   26.2767 C.3     1  UNL1        0.0255
     17 C           6.1048   -1.5212   25.3161 C.3     1  UNL1        0.1147
     18 C           5.4849   -2.4923   24.3554 C.3     1  UNL1        0.0255
     19 C           7.0604   -2.5833   25.7731 C.ar    1  UNL1        0.2185
     20 N           8.5286   -2.4010   26.0205 N.ar    1  UNL1       -0.2094
     21 C           9.0912   -3.7192   26.4632 C.ar    1  UNL1        0.1392
     22 C           7.9707   -4.7161   26.4894 C.ar    1  UNL1        0.1674
     23 O           6.7155   -4.0141   26.0628 O.2     1  UNL1       -0.4370
     24 C           8.0852   -6.1613   26.8744 C.ar    1  UNL1        0.0553
     25 C           9.0046   -6.5706   27.9867 C.ar    1  UNL1        0.0062
     26 C           9.1191   -8.0158   28.3718 C.ar    1  UNL1        0.0208
     27 C           8.3141   -9.0517   27.6446 C.ar    1  UNL1        0.0989
     28 N           7.3946   -8.6424   26.5323 N.ar    1  UNL1       -0.2422
     29 C           7.2802   -7.1972   26.1472 C.ar    1  UNL1        0.1019
     30 C           2.2823    2.7271   23.4882 C.3     1  UNL1        0.1021
     31 C           1.0379    2.3458   22.7426 C.3     1  UNL1        0.1269
     32 O           0.1055    1.3196   23.3148 O.3     1  UNL1       -0.3830
     33 H           0.4525    1.0055   24.1645 H       1  UNL1        0.2104
     34 C           0.7258    2.9908   21.4248 C.3     1  UNL1        0.0401
     35 C          -0.4893    2.5697   20.6528 C.3     1  UNL1        0.0833
     36 C          -1.7702    3.3376   20.7928 C.2     1  UNL1        0.2226
     37 O          -1.7374    4.8293   20.9471 O.2     1  UNL1       -0.2751
     38 N          -3.0840    2.6139   20.7785 N.am    1  UNL1       -0.2999
     39 H          -3.1055    1.6348   20.6772 H       1  UNL1        0.1498
     40 C          -4.3649    3.3818   20.9184 C.3     1  UNL1        0.1278
     41 C          -4.9073    3.6934   22.2817 C.ar    1  UNL1        0.0320
     42 C          -4.1689    3.2372   23.5051 C.ar    1  UNL1        0.0004
     43 C          -4.7114    3.5488   24.8684 C.ar    1  UNL1       -0.0001
     44 C          -5.9923    4.3167   25.0084 C.ar    1  UNL1        0.0031
     45 C          -6.7307    4.7730   23.7851 C.ar    1  UNL1        0.0366
     46 C          -6.1883    4.4613   22.4217 C.ar    1  UNL1        0.1362
     47 O          -6.9267    4.9176   21.1984 O.3     1  UNL1       -0.4730
     48 C          -6.3842    4.6059   19.8352 C.3     1  UNL1        0.2364
     49 C          -5.1033    3.8380   19.6952 C.3     1  UNL1        0.1762
     50 O          -4.5609    3.5264   18.3318 O.3     1  UNL1       -0.3788
     51 H          -5.1548    3.8901   17.6566 H       1  UNL1        0.2106
     52 C          -0.4236    1.3806   19.7407 C.3     1  UNL1        0.0355
     53 C           0.8743    0.6538   19.5483 C.ar    1  UNL1       -0.0217
     54 C           1.2009   -0.5365   20.4007 C.ar    1  UNL1       -0.0043
     55 C           2.4989   -1.2633   20.2083 C.ar    1  UNL1       -0.0003
     56 C           3.4703   -0.7998   19.1635 C.ar    1  UNL1       -0.0000
     57 C           3.1437    0.3905   18.3111 C.ar    1  UNL1       -0.0003
     58 C           1.8458    1.1173   18.5035 C.ar    1  UNL1       -0.0043
@<TRIPOS>BOND
     1    16    17    1
     2    17    18    1
     3    17    19    1
     4    19    20   ar
     5    20    21   ar
     6    21    22   ar
     7    22    24    1
     8    24    25   ar
     9    25    26   ar
    10    26    27   ar
    11    27    28   ar
    12    28    29   ar
    13    22    23   ar
    14    17     1    1
    15     1     2    1
    16     2     3    1
    17     3     4    1
    18     4    30    1
    19    30    31    1
    20    31    32    1
    21    31    34    1
    22    35    34    1
    23    35    52    1
    24    52    53    1
    25    53    54   ar
    26    54    55   ar
    27    55    56   ar
    28    56    57   ar
    29    57    58   ar
    30    35    36    1
    31    36    37    2
    32    36    38   am
    33    40    38    1
    34    40    41    1
    35    41    42   ar
    36    42    43   ar
    37    43    44   ar
    38    44    45   ar
    39    45    46   ar
    40    46    47    1
    41    47    48    1
    42    48    49    1
    43    49    50    1
    44     4     5    1
    45     5     7    1
    46     7     8    2
    47     7     9   am
    48     9    11    1
    49    11    12    1
    50    12    13    1
    51    12    14    1
    52    12    15    1
    53     5     6    1
    54    23    19   ar
    55     6     1    1
    56    29    24   ar
    57    58    53   ar
    58    49    40    1
    59    46    41   ar
    60    32    33    1
    61    38    39    1
    62    50    51    1
    63     9    10    1
@<TRIPOS>MOLECULE
*****
 58 63 0 0 0
SMALL
GASTEIGER

@<TRIPOS>ATOM
      1 N           7.7141   -2.2704   25.6616 N.3     1  UNL1       -0.2650
      2 C           8.4577   -1.0090   25.3367 C.3     1  UNL1        0.0900
      3 C           8.7926   -0.6817   23.9117 C.3     1  UNL1        0.0901
      4 N           8.3838   -1.6158   22.8116 N.3     1  UNL1       -0.2621
      5 C           7.6401   -2.8773   23.1365 C.3     1  UNL1        0.1510
      6 C           7.3052   -3.2046   24.5615 C.3     1  UNL1        0.0980
      7 C           7.2313   -3.8114   22.0364 C.2     1  UNL1        0.2386
      8 O           8.0217   -5.0603   21.7805 O.2     1  UNL1       -0.2736
      9 N           6.0320   -3.4966   21.1921 N.am    1  UNL1       -0.2961
     10 H           5.5132   -2.6769   21.3601 H       1  UNL1        0.1497
     11 C           5.6232   -4.4308   20.0920 C.3     1  UNL1        0.1939
     12 C           4.2379   -4.3570   19.5216 C.3     1  UNL1        0.4154
     13 F           2.8525   -4.2831   18.9512 F       1  UNL1       -0.1682
     14 F           3.8050   -3.5111   20.6822 F       1  UNL1       -0.1682
     15 F           4.6707   -5.2028   18.3610 F       1  UNL1       -0.1682
     16 C           6.6444   -3.8240   26.6323 C.3     1  UNL1        0.0255
     17 C           7.3792   -2.5978   27.0867 C.3     1  UNL1        0.1147
     18 C           8.1140   -1.3715   27.5410 C.3     1  UNL1        0.0255
     19 C           7.0443   -2.9251   28.5117 C.ar    1  UNL1        0.2185
     20 N           7.1323   -4.2800   29.1493 N.ar    1  UNL1       -0.2094
     21 C           6.7050   -4.1473   30.5810 C.ar    1  UNL1        0.1392
     22 C           6.3529   -2.7103   30.8283 C.ar    1  UNL1        0.1674
     23 O           6.5626   -1.9549   29.5494 O.2     1  UNL1       -0.4370
     24 C           5.8750   -2.1305   32.1265 C.ar    1  UNL1        0.0553
     25 C           6.7531   -1.1883   32.8955 C.ar    1  UNL1        0.0062
     26 C           6.2752   -0.6084   34.1937 C.ar    1  UNL1        0.0208
     27 C           4.9193   -0.9708   34.7230 C.ar    1  UNL1        0.0989
     28 N           4.0412   -1.9130   33.9540 N.ar    1  UNL1       -0.2422
     29 C           4.5191   -2.4929   32.6558 C.ar    1  UNL1        0.1019
     30 C           8.7187   -1.2884   21.3866 C.3     1  UNL1        0.1021
     31 C           8.0168   -0.1597   20.6914 C.3     1  UNL1        0.1269
     32 O           8.4133    1.2587   20.9758 O.3     1  UNL1       -0.3830
     33 H           9.1325    1.2690   21.6266 H       1  UNL1        0.2104
     34 C           6.9183   -0.4493   19.7119 C.3     1  UNL1        0.0401
     35 C           5.4847   -0.3507   20.1419 C.3     1  UNL1        0.0833
     36 C           5.1495    0.0370   21.5516 C.2     1  UNL1        0.2226
     37 O           4.8582   -1.0233   22.5719 O.2     1  UNL1       -0.2751
     38 N           5.1056    1.4848   21.9411 N.am    1  UNL1       -0.2999
     39 H           5.2967    2.1807   21.2714 H       1  UNL1        0.1498
     40 C           4.7703    1.8725   23.3508 C.3     1  UNL1        0.1278
     41 C           3.3510    1.8019   23.8307 C.ar    1  UNL1        0.0320
     42 C           2.2667    1.3437   22.9009 C.ar    1  UNL1        0.0004
     43 C           0.8474    1.2732   23.3808 C.ar    1  UNL1       -0.0001
     44 C           0.5121    1.6608   24.7905 C.ar    1  UNL1        0.0031
     45 C           1.5963    2.1190   25.7204 C.ar    1  UNL1        0.0366
     46 C           3.0158    2.1896   25.2405 C.ar    1  UNL1        0.1362
     47 O           4.0999    2.6478   26.1703 O.3     1  UNL1       -0.4730
     48 C           5.5193    2.7183   25.6904 C.3     1  UNL1        0.2364
     49 C           5.8545    2.3307   24.2806 C.3     1  UNL1        0.1762
     50 O           7.2740    2.4012   23.8007 O.3     1  UNL1       -0.3788
     51 H           7.8435    2.7142   24.5208 H       1  UNL1        0.2106
     52 C           4.3862   -0.6397   19.1621 C.3     1  UNL1        0.0355
     53 C           3.0206   -0.0558   19.3727 C.ar    1  UNL1       -0.0217
     54 C           1.9362   -0.8880   19.9904 C.ar    1  UNL1       -0.0043
     55 C           0.5706   -0.3041   20.2009 C.ar    1  UNL1       -0.0003
     56 C           0.2895    1.1119   19.7938 C.ar    1  UNL1       -0.0000
     57 C           1.3739    1.9441   19.1761 C.ar    1  UNL1       -0.0003
     58 C           2.7394    1.3603   18.9655 C.ar    1  UNL1       -0.0043
@<TRIPOS>BOND
     1    16    17    1
     2    17    18    1
     3    17    19    1
     4    19    20   ar
     5    20    21   ar
     6    21    22   ar
     7    22    24    1
     8    24    25   ar
     9    25    26   ar
    10    26    27   ar
    11    27    28   ar
    12    28    29   ar
    13    22    23   ar
    14    17     1    1
    15     1     2    1
    16     2     3    1
    17     3     4    1
    18     4    30    1
    19    30    31    1
    20    31    32    1
    21    31    34    1
    22    35    34    1
    23    35    52    1
    24    52    53    1
    25    53    54   ar
    26    54    55   ar
    27    55    56   ar
    28    56    57   ar
    29    57    58   ar
    30    35    36    1
    31    36    37    2
    32    36    38   am
    33    40    38    1
    34    40    41    1
    35    41    42   ar
    36    42    43   ar
    37    43    44   ar
    38    44    45   ar
    39    45    46   ar
    40    46    47    1
    41    47    48    1
    42    48    49    1
    43    49    50    1
    44     4     5    1
    45     5     7    1
    46     7     8    2
    47     7     9   am
    48     9    11    1
    49    11    12    1
    50    12    13    1
    51    12    14    1
    52    12    15    1
    53     5     6    1
    54    23    19   ar
    55     6     1    1
    56    29    24   ar
    57    58    53   ar
    58    49    40    1
    59    46    41   ar
    60    32    33    1
    61    38    39    1
    62    50    51    1
    63     9    10    1
@<TRIPOS>MOLECULE
*****
 58 63 0 0 0
SMALL
GASTEIGER

@<TRIPOS>ATOM
      1 N           1.0487    1.0620   22.3065 N.3     1  UNL1       -0.2650
      2 C           0.9265    1.0497   23.8014 C.3     1  UNL1        0.0900
      3 C           1.9067    0.2711   24.6278 C.3     1  UNL1        0.0901
      4 N           3.0093   -0.4952   23.9592 N.3     1  UNL1       -0.2621
      5 C           3.1317   -0.4830   22.4642 C.3     1  UNL1        0.1510
      6 C           2.1514    0.2956   21.6378 C.3     1  UNL1        0.0980
      7 C           4.2342   -1.2493   21.7956 C.2     1  UNL1        0.2386
      8 O           5.6291   -0.6978   21.7811 O.2     1  UNL1       -0.2736
      9 N           3.9420   -2.5672   21.1415 N.am    1  UNL1       -0.2961
     10 H           3.0265   -2.9292   21.1511 H       1  UNL1        0.1497
     11 C           5.0445   -3.3335   20.4730 C.3     1  UNL1        0.1939
     12 C           4.7281   -4.2794   19.3527 C.3     1  UNL1        0.4154
     13 F           4.4115   -5.2254   18.2324 F       1  UNL1       -0.1682
     14 F           3.7930   -5.0320   20.2522 F       1  UNL1       -0.1682
     15 F           5.6632   -3.5269   18.4531 F       1  UNL1       -0.1682
     16 C           0.1615    0.8076   20.3965 C.3     1  UNL1        0.0255
     17 C           0.0685    1.8405   21.4801 C.3     1  UNL1        0.1147
     18 C          -0.0246    2.8735   22.5638 C.3     1  UNL1        0.0255
     19 C          -0.9118    2.6191   20.6538 C.ar    1  UNL1        0.2185
     20 N          -0.6091    3.3406   19.3740 N.ar    1  UNL1       -0.2094
     21 C          -1.8771    3.9803   18.8914 C.ar    1  UNL1        0.1392
     22 C          -2.9636    3.6541   19.8729 C.ar    1  UNL1        0.1674
     23 O          -2.3670    2.8129   20.9621 O.2     1  UNL1       -0.4370
     24 C          -4.3952    4.0923   19.7813 C.ar    1  UNL1        0.0553
     25 C          -5.3182    3.4383   18.7961 C.ar    1  UNL1        0.0062
     26 C          -6.7498    3.8764   18.7045 C.ar    1  UNL1        0.0208
     27 C          -7.2585    4.9686   19.5980 C.ar    1  UNL1        0.0989
     28 N          -6.3355    5.6226   20.5832 N.ar    1  UNL1       -0.2422
     29 C          -4.9039    5.1845   20.6748 C.ar    1  UNL1        0.1019
     30 C           3.9896   -1.2738   24.7855 C.3     1  UNL1        0.1021
     31 C           4.0981   -1.0177   26.2595 C.3     1  UNL1        0.1269
     32 O           3.2177   -1.7645   27.2172 O.3     1  UNL1       -0.3830
     33 H           2.6416   -2.3685   26.7230 H       1  UNL1        0.2104
     34 C           5.0869   -0.0149   26.7758 C.3     1  UNL1        0.0401
     35 C           5.7323   -0.2186   28.1144 C.3     1  UNL1        0.0833
     36 C           5.1556    0.4393   29.3329 C.2     1  UNL1        0.2226
     37 O           5.7360    1.7281   29.8350 O.2     1  UNL1       -0.2751
     38 N           3.9986   -0.1917   30.0493 N.am    1  UNL1       -0.2999
     39 H           3.6177   -1.0376   29.7197 H       1  UNL1        0.1498
     40 C           3.4220    0.4662   31.2678 C.3     1  UNL1        0.1278
     41 C           4.0763    0.2751   32.6039 C.ar    1  UNL1        0.0320
     42 C           5.3074   -0.5739   32.7216 C.ar    1  UNL1        0.0004
     43 C           5.9617   -0.7650   34.0577 C.ar    1  UNL1       -0.0001
     44 C           5.3850   -0.1072   35.2762 C.ar    1  UNL1        0.0031
     45 C           4.1541    0.7418   35.1586 C.ar    1  UNL1        0.0366
     46 C           3.4997    0.9330   33.8224 C.ar    1  UNL1        0.1362
     47 O           2.2687    1.7819   33.7047 O.3     1  UNL1       -0.4730
     48 C           1.6144    1.9731   32.3686 C.3     1  UNL1        0.2364
     49 C           2.1910    1.3152   31.1501 C.3     1  UNL1        0.1762
     50 O           1.5366    1.5063   29.8139 O.3     1  UNL1       -0.3788
     51 H           0.7593    2.0780   29.9134 H       1  UNL1        0.2106
     52 C           6.9543   -1.0802   28.2347 C.3     1  UNL1        0.0355
     53 C           7.2479   -1.7898   29.5231 C.ar    1  UNL1       -0.0217
     54 C           8.3136   -1.2681   30.4407 C.ar    1  UNL1       -0.0043
     55 C           8.6072   -1.9778   31.7293 C.ar    1  UNL1       -0.0003
     56 C           7.8350   -3.2091   32.1002 C.ar    1  UNL1       -0.0000
     57 C           6.7692   -3.7308   31.1826 C.ar    1  UNL1       -0.0003
     58 C           6.4756   -3.0212   29.8941 C.ar    1  UNL1       -0.0043
@<TRIPOS>BOND
     1    16    17    1
     2    17    18    1
     3    17    19    1
     4    19    20   ar
     5    20    21   ar
     6    21    22   ar
     7    22    24    1
     8    24    25   ar
     9    25    26   ar
    10    26    27   ar
    11    27    28   ar
    12    28    29   ar
    13    22    23   ar
    14    17     1    1
    15     1     2    1
    16     2     3    1
    17     3     4    1
    18     4    30    1
    19    30    31    1
    20    31    32    1
    21    31    34    1
    22    35    34    1
    23    35    52    1
    24    52    53    1
    25    53    54   ar
    26    54    55   ar
    27    55    56   ar
    28    56    57   ar
    29    57    58   ar
    30    35    36    1
    31    36    37    2
    32    36    38   am
    33    40    38    1
    34    40    41    1
    35    41    42   ar
    36    42    43   ar
    37    43    44   ar
    38    44    45   ar
    39    45    46   ar
    40    46    47    1
    41    47    48    1
    42    48    49    1
    43    49    50    1
    44     4     5    1
    45     5     7    1
    46     7     8    2
    47     7     9   am
    48     9    11    1
    49    11    12    1
    50    12    13    1
    51    12    14    1
    52    12    15    1
    53     5     6    1
    54    23    19   ar
    55     6     1    1
    56    29    24   ar
    57    58    53   ar
    58    49    40    1
    59    46    41   ar
    60    32    33    1
    61    38    39    1
    62    50    51    1
    63     9    10    1
