@<TRIPOS>MOLECULE
*****
 47 51 0 0 0
SMALL
GASTEIGER

@<TRIPOS>ATOM
      1 C          -0.1481    2.9309   20.3178 C.3     1  UNL1        0.2054
      2 O          -0.4387    1.6159   20.9785 O.3     1  UNL1       -0.4755
      3 C           0.6265    0.9270   21.7789 C.ar    1  UNL1        0.1386
      4 C           1.5080   -0.0980   21.1291 C.ar    1  UNL1        0.0369
      5 C           2.5733   -0.7869   21.9295 C.ar    1  UNL1        0.0031
      6 C           2.7570   -0.4508   23.3798 C.ar    1  UNL1        0.0002
      7 C           1.8755    0.5743   24.0296 C.ar    1  UNL1        0.0031
      8 C           0.8103    1.2632   23.2292 C.ar    1  UNL1        0.0369
      9 C           2.0592    0.9104   25.4799 C.ar    1  UNL1        0.0033
     10 C           3.4283    0.8710   26.0913 C.ar    1  UNL1        0.0033
     11 C           3.6121    1.2072   27.5416 C.ar    1  UNL1        0.0402
     12 C           2.4266    1.5827   28.3804 C.ar    1  UNL1        0.1764
     13 C           1.0574    1.6222   27.7690 C.ar    1  UNL1        0.1764
     14 C           0.8737    1.2860   26.3188 C.ar    1  UNL1        0.0402
     15 O           0.0843    2.0251   28.8370 O.3     1  UNL1       -0.4346
     16 C           0.8520    2.2348   30.1084 C.3     1  UNL1        0.4294
     17 O           2.2997    1.9614   29.8263 O.3     1  UNL1       -0.4346
     18 C           3.4548   -1.8120   21.2798 C.ar    1  UNL1        0.0023
     19 C           3.2059   -2.2227   19.8588 C.ar    1  UNL1        0.0001
     20 C           4.0874   -3.2478   19.2090 C.ar    1  UNL1        0.0023
     21 C           5.2178   -3.8621   19.9802 C.ar    1  UNL1        0.0296
     22 C           5.4668   -3.4513   21.4013 C.ar    1  UNL1        0.1401
     23 F           6.5972   -4.0655   22.1724 F       1  UNL1       -0.2042
     24 C           4.5852   -2.4262   22.0510 C.ar    1  UNL1        0.0296
     25 C           0.2022    2.9765   18.8600 C.3     1  UNL1        0.0473
     26 C           1.6200    2.7570   18.4222 C.3     1  UNL1        0.0038
     27 C           2.1439    1.3622   18.2485 C.3     1  UNL1        0.0005
     28 C           3.6218    1.1071   18.2776 C.3     1  UNL1        0.0047
     29 C           4.5482    2.1306   18.8643 C.3     1  UNL1        0.0261
     30 C           6.4284    1.3815   22.2780 C.ar    1  UNL1        0.1342
     31 C           5.5061    2.0410   23.2602 C.ar    1  UNL1        0.0365
     32 C           4.2646    2.7303   22.7771 C.ar    1  UNL1        0.0028
     33 C           3.9453    2.7601   21.3118 C.ar    1  UNL1       -0.0044
     34 C           4.8675    2.1007   20.3296 C.ar    1  UNL1       -0.0232
     35 C           6.1091    1.4114   20.8127 C.ar    1  UNL1        0.0082
     36 C           7.0312    0.7520   19.8305 C.3     1  UNL1        0.0350
     37 C           6.7133   -0.6167   19.3056 C.3     1  UNL1        0.0465
     38 C           6.8449   -0.9072   17.8399 C.2     1  UNL1        0.0507
     39 O           6.8939   -2.3268   17.3581 O.co2   1  UNL1       -0.5492
     40 O           6.9276    0.2220   16.8560 O.co2   1  UNL1       -0.5492
     41 O           7.6700    0.6922   22.7611 O.3     1  UNL1       -0.4758
     42 C           7.5734   -0.6514   23.4210 C.3     1  UNL1        0.2058
     43 C           7.1891   -0.7507   24.8675 C.3     1  UNL1        0.0532
     44 C           6.0268   -1.6054   25.2778 C.3     1  UNL1        0.0455
     45 O           6.5931   -4.1409   25.2523 O.co2   1  UNL1       -0.5492
     46 C           6.2639   -2.8909   26.0135 C.2     1  UNL1        0.0505
     47 O           6.1718   -2.9265   27.5102 O.co2   1  UNL1       -0.5492
@<TRIPOS>UNITY_ATOM_ATTR
39 1
charge -1
45 1
charge -1
@<TRIPOS>BOND
     1    45    46   ar
     2    46    47   ar
     3    46    44    1
     4    44    43    1
     5    43    42    1
     6    42    41    1
     7    41    30    1
     8    30    31   ar
     9    31    32   ar
    10    32    33   ar
    11    33    34   ar
    12    34    29    1
    13    29    28    1
    14    28    27    1
    15    27    26    1
    16    26    25    1
    17    25     1    1
    18     1     2    1
    19     2     3    1
    20     3     4   ar
    21     4     5   ar
    22     5    18    1
    23    18    19   ar
    24    19    20   ar
    25    20    21   ar
    26    21    22   ar
    27    22    23    1
    28    22    24   ar
    29     5     6   ar
    30     6     7   ar
    31     7     9    1
    32     9    10   ar
    33    10    11   ar
    34    11    12   ar
    35    12    13   ar
    36    13    14   ar
    37    13    15    1
    38    15    16    1
    39    16    17    1
    40     7     8   ar
    41    34    35   ar
    42    35    36    1
    43    36    37    1
    44    37    38    1
    45    38    39   ar
    46    38    40   ar
    47    35    30   ar
    48     8     3   ar
    49    24    18   ar
    50    14     9   ar
    51    17    12    1
@<TRIPOS>MOLECULE
*****
 47 51 0 0 0
SMALL
GASTEIGER

@<TRIPOS>ATOM
      1 C           3.0006    3.3679   19.5418 C.3     1  UNL1        0.2054
      2 O           3.0635    3.5188   21.0328 O.3     1  UNL1       -0.4755
      3 C           1.8530    3.2242   21.8682 C.ar    1  UNL1        0.1386
      4 C           2.0131    2.6448   23.2425 C.ar    1  UNL1        0.0369
      5 C           0.8026    2.3501   24.0779 C.ar    1  UNL1        0.0031
      6 C          -0.5680    2.6349   23.5390 C.ar    1  UNL1        0.0002
      7 C          -0.7280    3.2143   22.1648 C.ar    1  UNL1        0.0031
      8 C           0.4825    3.5090   21.3294 C.ar    1  UNL1        0.0369
      9 C          -2.0987    3.4992   21.6258 C.ar    1  UNL1        0.0033
     10 C          -2.3369    3.5007   20.1450 C.ar    1  UNL1        0.0033
     11 C          -3.7075    3.7855   19.6061 C.ar    1  UNL1        0.0402
     12 C          -4.8398    4.0688   20.5481 C.ar    1  UNL1        0.1764
     13 C          -4.6016    4.0673   22.0291 C.ar    1  UNL1        0.1764
     14 C          -3.2311    3.7825   22.5680 C.ar    1  UNL1        0.0402
     15 O          -5.9023    4.3787   22.7082 O.3     1  UNL1       -0.4346
     16 C          -6.9444    4.5727   21.6469 C.3     1  UNL1        0.4294
     17 O          -6.2878    4.3812   20.3119 O.3     1  UNL1       -0.4346
     18 C           0.9626    1.7707   25.4522 C.ar    1  UNL1        0.0023
     19 C           2.3343    1.5342   26.0113 C.ar    1  UNL1        0.0001
     20 C           2.4944    0.9548   27.3856 C.ar    1  UNL1        0.0023
     21 C           1.2828    0.6118   28.2008 C.ar    1  UNL1        0.0296
     22 C          -0.0890    0.8483   27.6416 C.ar    1  UNL1        0.1401
     23 F          -1.3005    0.5053   28.4566 F       1  UNL1       -0.2042
     24 C          -0.2489    1.4277   26.2673 C.ar    1  UNL1        0.0296
     25 C           3.5359    2.1273   18.8903 C.3     1  UNL1        0.0473
     26 C           2.5946    1.1509   18.2496 C.3     1  UNL1        0.0038
     27 C           1.1553    1.1104   18.6700 C.3     1  UNL1        0.0005
     28 C           0.7520    0.3380   19.8910 C.3     1  UNL1        0.0047
     29 C           1.3221   -1.0274   20.1369 C.3     1  UNL1        0.0261
     30 C           4.8960   -2.1778   21.4229 C.ar    1  UNL1        0.1342
     31 C           4.9402   -1.5148   22.7678 C.ar    1  UNL1        0.0365
     32 C           3.7784   -0.6894   23.2356 C.ar    1  UNL1        0.0028
     33 C           2.5724   -0.5269   22.3587 C.ar    1  UNL1       -0.0044
     34 C           2.5281   -1.1899   21.0139 C.ar    1  UNL1       -0.0232
     35 C           3.6899   -2.0154   20.5459 C.ar    1  UNL1        0.0082
     36 C           3.6456   -2.6783   19.2012 C.3     1  UNL1        0.0350
     37 C           3.0340   -4.0402   19.0563 C.3     1  UNL1        0.0465
     38 C           3.7619   -5.2477   19.5683 C.2     1  UNL1        0.0507
     39 O           3.1257   -6.1220   20.6079 O.co2   1  UNL1       -0.5492
     40 O           5.1260   -5.5807   19.0408 O.co2   1  UNL1       -0.5492
     41 O           6.0578   -3.0032   20.9550 O.3     1  UNL1       -0.4758
     42 C           7.3657   -2.3430   20.6335 C.3     1  UNL1        0.2058
     43 C           7.8815   -2.3467   19.2250 C.3     1  UNL1        0.0532
     44 C           6.9435   -2.0935   18.0821 C.3     1  UNL1        0.0455
     45 O           5.3283   -0.4855   16.8350 O.co2   1  UNL1       -0.5492
     46 C           6.4376   -0.7059   17.8204 C.2     1  UNL1        0.0505
     47 O           7.0410    0.4613   18.5440 O.co2   1  UNL1       -0.5492
@<TRIPOS>UNITY_ATOM_ATTR
39 1
charge -1
45 1
charge -1
@<TRIPOS>BOND
     1    45    46   ar
     2    46    47   ar
     3    46    44    1
     4    44    43    1
     5    43    42    1
     6    42    41    1
     7    41    30    1
     8    30    31   ar
     9    31    32   ar
    10    32    33   ar
    11    33    34   ar
    12    34    29    1
    13    29    28    1
    14    28    27    1
    15    27    26    1
    16    26    25    1
    17    25     1    1
    18     1     2    1
    19     2     3    1
    20     3     4   ar
    21     4     5   ar
    22     5    18    1
    23    18    19   ar
    24    19    20   ar
    25    20    21   ar
    26    21    22   ar
    27    22    23    1
    28    22    24   ar
    29     5     6   ar
    30     6     7   ar
    31     7     9    1
    32     9    10   ar
    33    10    11   ar
    34    11    12   ar
    35    12    13   ar
    36    13    14   ar
    37    13    15    1
    38    15    16    1
    39    16    17    1
    40     7     8   ar
    41    34    35   ar
    42    35    36    1
    43    36    37    1
    44    37    38    1
    45    38    39   ar
    46    38    40   ar
    47    35    30   ar
    48     8     3   ar
    49    24    18   ar
    50    14     9   ar
    51    17    12    1
@<TRIPOS>MOLECULE
*****
 47 51 0 0 0
SMALL
GASTEIGER

@<TRIPOS>ATOM
      1 C           8.2875    0.1651   22.7454 C.3     1  UNL1        0.2054
      2 O           8.0964    0.3291   24.2241 O.3     1  UNL1       -0.4755
      3 C           7.3444   -0.7091   25.0029 C.ar    1  UNL1        0.1386
      4 C           7.6683   -2.1626   24.8225 C.ar    1  UNL1        0.0369
      5 C           6.9164   -3.2009   25.6014 C.ar    1  UNL1        0.0031
      6 C           5.8404   -2.7857   26.5605 C.ar    1  UNL1        0.0002
      7 C           5.5165   -1.3322   26.7409 C.ar    1  UNL1        0.0031
      8 C           6.2685   -0.2940   25.9621 C.ar    1  UNL1        0.0369
      9 C           4.4406   -0.9170   27.7001 C.ar    1  UNL1        0.0033
     10 C           4.6586   -1.0556   29.1776 C.ar    1  UNL1        0.0033
     11 C           3.5827   -0.6404   30.1367 C.ar    1  UNL1        0.0402
     12 C           2.2887   -0.0865   29.6184 C.ar    1  UNL1        0.1764
     13 C           2.0706    0.0521   28.1408 C.ar    1  UNL1        0.1764
     14 C           3.1465   -0.3631   27.1816 C.ar    1  UNL1        0.0402
     15 O           0.7019    0.6271   27.9262 O.3     1  UNL1       -0.4346
     16 C           0.0741    0.8438   29.2711 C.3     1  UNL1        0.4294
     17 O           1.0548    0.4027   30.3170 O.3     1  UNL1       -0.4346
     18 C           7.2402   -4.6544   25.4210 C.ar    1  UNL1        0.0023
     19 C           6.9143   -5.6357   26.5077 C.ar    1  UNL1        0.0001
     20 C           7.2382   -7.0892   26.3274 C.ar    1  UNL1        0.0023
     21 C           7.8879   -7.5614   25.0606 C.ar    1  UNL1        0.0296
     22 C           8.2139   -6.5799   23.9739 C.ar    1  UNL1        0.1401
     23 F           8.8636   -7.0520   22.7071 F       1  UNL1       -0.2042
     24 C           7.8900   -5.1265   24.1543 C.ar    1  UNL1        0.0296
     25 C           7.1136   -0.1566   21.8686 C.3     1  UNL1        0.0473
     26 C           7.1969   -1.2903   20.8899 C.3     1  UNL1        0.0038
     27 C           7.4152   -2.6906   21.3811 C.3     1  UNL1        0.0005
     28 C           6.4767   -3.7853   20.9678 C.3     1  UNL1        0.0047
     29 C           5.1305   -3.9046   21.6188 C.3     1  UNL1        0.0261
     30 C           2.6786   -0.8509   20.9763 C.ar    1  UNL1        0.1342
     31 C           2.6449   -0.2231   22.3382 C.ar    1  UNL1        0.0365
     32 C           3.4397   -0.8225   23.4603 C.ar    1  UNL1        0.0028
     33 C           4.2682   -2.0496   23.2205 C.ar    1  UNL1       -0.0044
     34 C           4.3020   -2.6774   21.8586 C.ar    1  UNL1       -0.0232
     35 C           3.5072   -2.0781   20.7364 C.ar    1  UNL1        0.0082
     36 C           3.5409   -2.7059   19.3746 C.3     1  UNL1        0.0350
     37 C           4.6337   -2.3489   18.4111 C.3     1  UNL1        0.0465
     38 C           4.5560   -1.0714   17.6288 C.2     1  UNL1        0.0507
     39 O           5.1700    0.1825   18.1773 O.co2   1  UNL1       -0.5492
     40 O           3.8642   -1.0477   16.2980 O.co2   1  UNL1       -0.5492
     41 O           1.8838   -0.2515   19.8542 O.3     1  UNL1       -0.4758
     42 C           2.1258    1.1694   19.4392 C.3     1  UNL1        0.2058
     43 C           1.1200    2.2305   19.7746 C.3     1  UNL1        0.0532
     44 C          -0.2084    1.8475   20.3565 C.3     1  UNL1        0.0455
     45 O          -0.6331    4.2150   21.3388 O.co2   1  UNL1       -0.5492
     46 C          -1.1605    2.9115   20.8164 C.2     1  UNL1        0.0505
     47 O          -2.6399    2.6720   20.7540 O.co2   1  UNL1       -0.5492
@<TRIPOS>UNITY_ATOM_ATTR
39 1
charge -1
45 1
charge -1
@<TRIPOS>BOND
     1    45    46   ar
     2    46    47   ar
     3    46    44    1
     4    44    43    1
     5    43    42    1
     6    42    41    1
     7    41    30    1
     8    30    31   ar
     9    31    32   ar
    10    32    33   ar
    11    33    34   ar
    12    34    29    1
    13    29    28    1
    14    28    27    1
    15    27    26    1
    16    26    25    1
    17    25     1    1
    18     1     2    1
    19     2     3    1
    20     3     4   ar
    21     4     5   ar
    22     5    18    1
    23    18    19   ar
    24    19    20   ar
    25    20    21   ar
    26    21    22   ar
    27    22    23    1
    28    22    24   ar
    29     5     6   ar
    30     6     7   ar
    31     7     9    1
    32     9    10   ar
    33    10    11   ar
    34    11    12   ar
    35    12    13   ar
    36    13    14   ar
    37    13    15    1
    38    15    16    1
    39    16    17    1
    40     7     8   ar
    41    34    35   ar
    42    35    36    1
    43    36    37    1
    44    37    38    1
    45    38    39   ar
    46    38    40   ar
    47    35    30   ar
    48     8     3   ar
    49    24    18   ar
    50    14     9   ar
    51    17    12    1
@<TRIPOS>MOLECULE
*****
 47 51 0 0 0
SMALL
GASTEIGER

@<TRIPOS>ATOM
      1 C           6.8670    0.5799   22.7925 C.3     1  UNL1        0.2054
      2 O           7.7617   -0.2132   23.6982 O.3     1  UNL1       -0.4755
      3 C           7.1686   -1.1825   24.6774 C.ar    1  UNL1        0.1386
      4 C           7.5406   -2.6343   24.6146 C.ar    1  UNL1        0.0369
      5 C           6.9475   -3.6035   25.5938 C.ar    1  UNL1        0.0031
      6 C           5.9825   -3.1210   26.6358 C.ar    1  UNL1        0.0002
      7 C           5.6105   -1.6692   26.6986 C.ar    1  UNL1        0.0031
      8 C           6.2036   -0.7000   25.7194 C.ar    1  UNL1        0.0369
      9 C           4.6454   -1.1866   27.7407 C.ar    1  UNL1        0.0033
     10 C           5.0597   -1.1379   29.1814 C.ar    1  UNL1        0.0033
     11 C           4.0946   -0.6553   30.2234 C.ar    1  UNL1        0.0402
     12 C           2.7152   -0.2215   29.8246 C.ar    1  UNL1        0.1764
     13 C           2.3009   -0.2703   28.3838 C.ar    1  UNL1        0.1764
     14 C           3.2659   -0.7528   27.3418 C.ar    1  UNL1        0.0402
     15 O           0.8855    0.2178   28.2917 O.3     1  UNL1       -0.4346
     16 C           0.4251    0.5682   29.6756 C.3     1  UNL1        0.4294
     17 O           1.5559    0.2967   30.6230 O.3     1  UNL1       -0.4346
     18 C           7.3195   -5.0554   25.5310 C.ar    1  UNL1        0.0023
     19 C           7.1225   -5.9325   26.7318 C.ar    1  UNL1        0.0001
     20 C           7.4945   -7.3843   26.6691 C.ar    1  UNL1        0.0023
     21 C           8.0633   -7.9590   25.4056 C.ar    1  UNL1        0.0296
     22 C           8.2602   -7.0817   24.2048 C.ar    1  UNL1        0.1401
     23 F           8.8290   -7.6563   22.9414 F       1  UNL1       -0.2042
     24 C           7.8882   -5.6299   24.2677 C.ar    1  UNL1        0.0296
     25 C           5.7913   -0.1111   22.0080 C.3     1  UNL1        0.0473
     26 C           4.4471   -0.3513   22.6290 C.3     1  UNL1        0.0038
     27 C           3.7761   -1.6838   22.4726 C.3     1  UNL1        0.0005
     28 C           4.5489   -2.9459   22.7171 C.3     1  UNL1        0.0047
     29 C           5.0033   -3.7835   21.5586 C.3     1  UNL1        0.0261
     30 C           7.0781   -2.2001   18.5690 C.ar    1  UNL1        0.1342
     31 C           8.4820   -2.4412   19.0394 C.ar    1  UNL1        0.0365
     32 C           8.7262   -3.1297   20.3495 C.ar    1  UNL1        0.0028
     33 C           7.5666   -3.5771   21.1892 C.ar    1  UNL1       -0.0044
     34 C           6.1628   -3.3360   20.7189 C.ar    1  UNL1       -0.0232
     35 C           5.9185   -2.6475   19.4088 C.ar    1  UNL1        0.0082
     36 C           4.5147   -2.4065   18.9385 C.3     1  UNL1        0.0350
     37 C           3.9720   -1.0092   18.8828 C.3     1  UNL1        0.0465
     38 C           3.2380   -0.5378   17.6625 C.2     1  UNL1        0.0507
     39 O           3.6753   -0.9930   16.3018 O.co2   1  UNL1       -0.5492
     40 O           2.0668    0.3887   17.8030 O.co2   1  UNL1       -0.5492
     41 O           6.8339   -1.5116   17.2589 O.3     1  UNL1       -0.4758
     42 C           6.8545   -0.0136   17.1836 C.3     1  UNL1        0.2058
     43 C           7.3122    0.7905   18.3642 C.3     1  UNL1        0.0532
     44 C           6.5630    2.0264   18.7658 C.3     1  UNL1        0.0455
     45 O           4.2213    2.8720   18.0233 O.co2   1  UNL1       -0.5492
     46 C           5.6931    2.7332   17.7690 C.2     1  UNL1        0.0505
     47 O           6.2950    3.3012   16.5180 O.co2   1  UNL1       -0.5492
@<TRIPOS>UNITY_ATOM_ATTR
39 1
charge -1
45 1
charge -1
@<TRIPOS>BOND
     1    45    46   ar
     2    46    47   ar
     3    46    44    1
     4    44    43    1
     5    43    42    1
     6    42    41    1
     7    41    30    1
     8    30    31   ar
     9    31    32   ar
    10    32    33   ar
    11    33    34   ar
    12    34    29    1
    13    29    28    1
    14    28    27    1
    15    27    26    1
    16    26    25    1
    17    25     1    1
    18     1     2    1
    19     2     3    1
    20     3     4   ar
    21     4     5   ar
    22     5    18    1
    23    18    19   ar
    24    19    20   ar
    25    20    21   ar
    26    21    22   ar
    27    22    23    1
    28    22    24   ar
    29     5     6   ar
    30     6     7   ar
    31     7     9    1
    32     9    10   ar
    33    10    11   ar
    34    11    12   ar
    35    12    13   ar
    36    13    14   ar
    37    13    15    1
    38    15    16    1
    39    16    17    1
    40     7     8   ar
    41    34    35   ar
    42    35    36    1
    43    36    37    1
    44    37    38    1
    45    38    39   ar
    46    38    40   ar
    47    35    30   ar
    48     8     3   ar
    49    24    18   ar
    50    14     9   ar
    51    17    12    1
@<TRIPOS>MOLECULE
*****
 47 51 0 0 0
SMALL
GASTEIGER

@<TRIPOS>ATOM
      1 C          -0.5060    3.3865   20.5536 C.3     1  UNL1        0.2054
      2 O          -0.7555    2.0777   21.2428 O.3     1  UNL1       -0.4755
      3 C           0.3099    1.4694   22.1058 C.ar    1  UNL1        0.1386
      4 C           0.5048    1.9554   23.5114 C.ar    1  UNL1        0.0369
      5 C           1.5703    1.3471   24.3744 C.ar    1  UNL1        0.0031
      6 C           2.4409    0.2528   23.8317 C.ar    1  UNL1        0.0002
      7 C           2.2460   -0.2332   22.4261 C.ar    1  UNL1        0.0031
      8 C           1.1805    0.3751   21.5631 C.ar    1  UNL1        0.0369
      9 C           3.1167   -1.3276   21.8834 C.ar    1  UNL1        0.0033
     10 C           4.2695   -1.8405   22.6943 C.ar    1  UNL1        0.0033
     11 C           5.1401   -2.9349   22.1516 C.ar    1  UNL1        0.0402
     12 C           4.8578   -3.5162   20.7980 C.ar    1  UNL1        0.1764
     13 C           3.7049   -3.0033   19.9870 C.ar    1  UNL1        0.1764
     14 C           2.8343   -1.9089   20.5297 C.ar    1  UNL1        0.0402
     15 O           3.6716   -3.7648   18.6952 O.3     1  UNL1       -0.4346
     16 C           4.8040   -4.7485   18.7077 C.3     1  UNL1        0.4294
     17 O           5.5371   -4.5948   20.0073 O.3     1  UNL1       -0.4346
     18 C           1.7653    1.8331   25.7801 C.ar    1  UNL1        0.0023
     19 C           2.9157    2.7381   26.1079 C.ar    1  UNL1        0.0001
     20 C           3.1107    3.2241   27.5135 C.ar    1  UNL1        0.0023
     21 C           2.1553    2.8051   28.5913 C.ar    1  UNL1        0.0296
     22 C           1.0047    1.9001   28.2634 C.ar    1  UNL1        0.1401
     23 F           0.0493    1.4812   29.3411 F       1  UNL1       -0.2042
     24 C           0.8098    1.4142   26.8578 C.ar    1  UNL1        0.0296
     25 C          -0.4869    3.4533   19.0552 C.3     1  UNL1        0.0473
     26 C           0.7260    2.9971   18.2997 C.3     1  UNL1        0.0038
     27 C           1.0735    1.5387   18.2491 C.3     1  UNL1        0.0005
     28 C           2.5065    1.1055   18.3429 C.3     1  UNL1        0.0047
     29 C           3.5822    2.1208   18.5917 C.3     1  UNL1        0.0261
     30 C           6.0420    1.8910   21.6975 C.ar    1  UNL1        0.1342
     31 C           5.2637    2.6487   22.7322 C.ar    1  UNL1        0.0365
     32 C           3.9250    3.2304   22.3866 C.ar    1  UNL1        0.0028
     33 C           3.3645    3.0544   21.0064 C.ar    1  UNL1       -0.0044
     34 C           4.1427    2.2968   19.9718 C.ar    1  UNL1       -0.0232
     35 C           5.4815    1.7151   20.3174 C.ar    1  UNL1        0.0082
     36 C           6.2597    0.9575   19.2828 C.3     1  UNL1        0.0350
     37 C           6.1508   -0.5367   19.2077 C.3     1  UNL1        0.0465
     38 C           6.0387   -1.2145   17.8743 C.2     1  UNL1        0.0507
     39 O           7.0019   -2.3027   17.5028 O.co2   1  UNL1       -0.5492
     40 O           4.9633   -0.8041   16.9124 O.co2   1  UNL1       -0.5492
     41 O           7.3808    1.3094   22.0431 O.3     1  UNL1       -0.4758
     42 C           7.4648   -0.0082   22.7551 C.3     1  UNL1        0.2058
     43 C           8.4309   -0.1880   23.8884 C.3     1  UNL1        0.0532
     44 C           7.9211   -0.3562   25.2890 C.3     1  UNL1        0.0455
     45 O           6.2493   -2.3226   25.5869 O.co2   1  UNL1       -0.5492
     46 C           6.5241   -0.8492   25.5245 C.2     1  UNL1        0.0505
     47 O           5.4020    0.1310   25.6977 O.co2   1  UNL1       -0.5492
@<TRIPOS>UNITY_ATOM_ATTR
39 1
charge -1
45 1
charge -1
@<TRIPOS>BOND
     1    45    46   ar
     2    46    47   ar
     3    46    44    1
     4    44    43    1
     5    43    42    1
     6    42    41    1
     7    41    30    1
     8    30    31   ar
     9    31    32   ar
    10    32    33   ar
    11    33    34   ar
    12    34    29    1
    13    29    28    1
    14    28    27    1
    15    27    26    1
    16    26    25    1
    17    25     1    1
    18     1     2    1
    19     2     3    1
    20     3     4   ar
    21     4     5   ar
    22     5    18    1
    23    18    19   ar
    24    19    20   ar
    25    20    21   ar
    26    21    22   ar
    27    22    23    1
    28    22    24   ar
    29     5     6   ar
    30     6     7   ar
    31     7     9    1
    32     9    10   ar
    33    10    11   ar
    34    11    12   ar
    35    12    13   ar
    36    13    14   ar
    37    13    15    1
    38    15    16    1
    39    16    17    1
    40     7     8   ar
    41    34    35   ar
    42    35    36    1
    43    36    37    1
    44    37    38    1
    45    38    39   ar
    46    38    40   ar
    47    35    30   ar
    48     8     3   ar
    49    24    18   ar
    50    14     9   ar
    51    17    12    1
@<TRIPOS>MOLECULE
*****
 47 51 0 0 0
SMALL
GASTEIGER

@<TRIPOS>ATOM
      1 C           7.4143   -6.3854   26.0127 C.3     1  UNL1        0.2054
      2 O           7.6981   -5.2580   26.9605 O.3     1  UNL1       -0.4755
      3 C           6.8753   -4.0051   26.9036 C.ar    1  UNL1        0.1386
      4 C           6.5963   -3.3505   25.5832 C.ar    1  UNL1        0.0369
      5 C           5.7734   -2.0976   25.5263 C.ar    1  UNL1        0.0031
      6 C           5.2297   -1.4993   26.7898 C.ar    1  UNL1        0.0002
      7 C           5.5087   -2.1540   28.1102 C.ar    1  UNL1        0.0031
      8 C           6.3315   -3.4069   28.1671 C.ar    1  UNL1        0.0369
      9 C           4.9649   -1.5558   29.3738 C.ar    1  UNL1        0.0033
     10 C           3.8123   -0.5979   29.3145 C.ar    1  UNL1        0.0033
     11 C           3.2685    0.0003   30.5780 C.ar    1  UNL1        0.0402
     12 C           3.8775   -0.3594   31.9008 C.ar    1  UNL1        0.1764
     13 C           5.0302   -1.3174   31.9600 C.ar    1  UNL1        0.1764
     14 C           5.5740   -1.9156   30.6966 C.ar    1  UNL1        0.0402
     15 O           5.4223   -1.4825   33.3984 O.3     1  UNL1       -0.4346
     16 C           4.5118   -0.6266   34.2282 C.3     1  UNL1        0.4294
     17 O           3.5571    0.0675   33.3026 O.3     1  UNL1       -0.4346
     18 C           5.4943   -1.4428   24.2058 C.ar    1  UNL1        0.0023
     19 C           6.5312   -0.5649   23.5701 C.ar    1  UNL1        0.0001
     20 C           6.2521    0.0899   22.2497 C.ar    1  UNL1        0.0023
     21 C           4.9363   -0.1333   21.5650 C.ar    1  UNL1        0.0296
     22 C           3.8994   -1.0113   22.2008 C.ar    1  UNL1        0.1401
     23 F           2.5836   -1.2345   21.5163 F       1  UNL1       -0.2042
     24 C           4.1786   -1.6660   23.5212 C.ar    1  UNL1        0.0296
     25 C           8.3521   -6.6631   24.8753 C.3     1  UNL1        0.0473
     26 C           8.0298   -6.1628   23.4984 C.3     1  UNL1        0.0038
     27 C           8.7922   -5.0061   22.9232 C.3     1  UNL1        0.0005
     28 C           8.0781   -3.7314   22.5842 C.3     1  UNL1        0.0047
     29 C           7.9498   -3.3012   21.1529 C.3     1  UNL1        0.0261
     30 C           5.0738   -2.6912   18.4873 C.ar    1  UNL1        0.1342
     31 C           3.9466   -3.4650   19.1043 C.ar    1  UNL1        0.0365
     32 C           4.1539   -4.1843   20.4042 C.ar    1  UNL1        0.0028
     33 C           5.4883   -4.1297   21.0871 C.ar    1  UNL1       -0.0044
     34 C           6.6154   -3.3558   20.4701 C.ar    1  UNL1       -0.0232
     35 C           6.4082   -2.6366   19.1701 C.ar    1  UNL1        0.0082
     36 C           7.5353   -1.8628   18.5532 C.3     1  UNL1        0.0350
     37 C           7.7401   -0.4209   18.9125 C.3     1  UNL1        0.0465
     38 C           7.1720    0.6578   18.0385 C.2     1  UNL1        0.0507
     39 O           6.6055    1.9021   18.6554 O.co2   1  UNL1       -0.5492
     40 O           7.1705    0.4921   16.5477 O.co2   1  UNL1       -0.5492
     41 O           4.8665   -1.9719   17.1874 O.3     1  UNL1       -0.4758
     42 C           3.8705   -0.8538   17.0994 C.3     1  UNL1        0.2058
     43 C           3.5024   -0.0787   18.3297 C.3     1  UNL1        0.0532
     44 C           3.1681    1.3798   18.2253 C.3     1  UNL1        0.0455
     45 O           0.6006    0.9827   18.2306 O.co2   1  UNL1       -0.5492
     46 C           1.7807    1.8557   18.5394 C.2     1  UNL1        0.0505
     47 O           1.5735    3.2044   19.1624 O.co2   1  UNL1       -0.5492
@<TRIPOS>UNITY_ATOM_ATTR
39 1
charge -1
45 1
charge -1
@<TRIPOS>BOND
     1    45    46   ar
     2    46    47   ar
     3    46    44    1
     4    44    43    1
     5    43    42    1
     6    42    41    1
     7    41    30    1
     8    30    31   ar
     9    31    32   ar
    10    32    33   ar
    11    33    34   ar
    12    34    29    1
    13    29    28    1
    14    28    27    1
    15    27    26    1
    16    26    25    1
    17    25     1    1
    18     1     2    1
    19     2     3    1
    20     3     4   ar
    21     4     5   ar
    22     5    18    1
    23    18    19   ar
    24    19    20   ar
    25    20    21   ar
    26    21    22   ar
    27    22    23    1
    28    22    24   ar
    29     5     6   ar
    30     6     7   ar
    31     7     9    1
    32     9    10   ar
    33    10    11   ar
    34    11    12   ar
    35    12    13   ar
    36    13    14   ar
    37    13    15    1
    38    15    16    1
    39    16    17    1
    40     7     8   ar
    41    34    35   ar
    42    35    36    1
    43    36    37    1
    44    37    38    1
    45    38    39   ar
    46    38    40   ar
    47    35    30   ar
    48     8     3   ar
    49    24    18   ar
    50    14     9   ar
    51    17    12    1
@<TRIPOS>MOLECULE
*****
 47 51 0 0 0
SMALL
GASTEIGER

@<TRIPOS>ATOM
      1 C           6.9750   -2.7112   25.9309 C.3     1  UNL1        0.2054
      2 O           5.5982   -2.2027   26.2406 O.3     1  UNL1       -0.4755
      3 C           4.6955   -1.7571   25.1287 C.ar    1  UNL1        0.1386
      4 C           4.8183   -2.3775   23.7685 C.ar    1  UNL1        0.0369
      5 C           3.9156   -1.9319   22.6566 C.ar    1  UNL1        0.0031
      6 C           2.8900   -0.8658   22.9047 C.ar    1  UNL1        0.0002
      7 C           2.7671   -0.2453   24.2649 C.ar    1  UNL1        0.0031
      8 C           3.6699   -0.6910   25.3768 C.ar    1  UNL1        0.0369
      9 C           1.7415    0.8208   24.5130 C.ar    1  UNL1        0.0033
     10 C           0.9468    1.3778   23.3694 C.ar    1  UNL1        0.0033
     11 C          -0.0788    2.4439   23.6175 C.ar    1  UNL1        0.0402
     12 C          -0.3096    2.9530   25.0095 C.ar    1  UNL1        0.1764
     13 C           0.4851    2.3960   26.1532 C.ar    1  UNL1        0.1764
     14 C           1.5107    1.3299   25.9051 C.ar    1  UNL1        0.0402
     15 O           0.0408    3.0888   27.4073 O.3     1  UNL1       -0.4346
     16 C          -1.0285    4.0740   27.0385 C.3     1  UNL1        0.4294
     17 O          -1.2451    3.9901   25.5566 O.3     1  UNL1       -0.4346
     18 C           4.0384   -2.5523   21.2964 C.ar    1  UNL1        0.0023
     19 C           4.3951   -4.0032   21.1633 C.ar    1  UNL1        0.0001
     20 C           4.5179   -4.6236   19.8032 C.ar    1  UNL1        0.0023
     21 C           4.2840   -3.7932   18.5761 C.ar    1  UNL1        0.0296
     22 C           3.9272   -2.3423   18.7092 C.ar    1  UNL1        0.1401
     23 F           3.6933   -1.5119   17.4822 F       1  UNL1       -0.2042
     24 C           3.8044   -1.7219   20.0694 C.ar    1  UNL1        0.0296
     25 C           7.2263   -4.1872   25.8391 C.3     1  UNL1        0.0473
     26 C           7.9796   -4.7485   24.6697 C.3     1  UNL1        0.0038
     27 C           7.3572   -4.7447   23.3050 C.3     1  UNL1        0.0005
     28 C           7.9809   -3.9468   22.1984 C.3     1  UNL1        0.0047
     29 C           7.8692   -2.4510   22.1973 C.3     1  UNL1        0.0261
     30 C           7.1589    0.4997   19.6402 C.ar    1  UNL1        0.1342
     31 C           7.1051   -0.2547   18.3447 C.ar    1  UNL1        0.0365
     32 C           7.3061   -1.7412   18.3335 C.ar    1  UNL1        0.0028
     33 C           7.5608   -2.4732   19.6177 C.ar    1  UNL1       -0.0044
     34 C           7.6145   -1.7189   20.9131 C.ar    1  UNL1       -0.0232
     35 C           7.4135   -0.2324   20.9244 C.ar    1  UNL1        0.0082
     36 C           7.4673    0.5218   22.2198 C.3     1  UNL1        0.0350
     37 C           6.1959    0.9295   22.9035 C.3     1  UNL1        0.0465
     38 C           6.1996    2.0736   23.8736 C.2     1  UNL1        0.0507
     39 O           7.4650    2.8381   24.1268 O.co2   1  UNL1       -0.5492
     40 O           4.9378    2.4532   24.5904 O.co2   1  UNL1       -0.5492
     41 O           6.9579    1.9861   19.6514 O.3     1  UNL1       -0.4758
     42 C           5.5880    2.5561   19.8718 C.3     1  UNL1        0.2058
     43 C           4.3785    1.6823   19.7186 C.3     1  UNL1        0.0532
     44 C           3.6073    1.6880   18.4320 C.3     1  UNL1        0.0455
     45 O           1.3546    2.9815   18.4748 O.co2   1  UNL1       -0.5492
     46 C           2.1075    1.6843   18.4565 C.2     1  UNL1        0.0505
     47 O           1.3607    0.3834   18.4628 O.co2   1  UNL1       -0.5492
@<TRIPOS>UNITY_ATOM_ATTR
39 1
charge -1
45 1
charge -1
@<TRIPOS>BOND
     1    45    46   ar
     2    46    47   ar
     3    46    44    1
     4    44    43    1
     5    43    42    1
     6    42    41    1
     7    41    30    1
     8    30    31   ar
     9    31    32   ar
    10    32    33   ar
    11    33    34   ar
    12    34    29    1
    13    29    28    1
    14    28    27    1
    15    27    26    1
    16    26    25    1
    17    25     1    1
    18     1     2    1
    19     2     3    1
    20     3     4   ar
    21     4     5   ar
    22     5    18    1
    23    18    19   ar
    24    19    20   ar
    25    20    21   ar
    26    21    22   ar
    27    22    23    1
    28    22    24   ar
    29     5     6   ar
    30     6     7   ar
    31     7     9    1
    32     9    10   ar
    33    10    11   ar
    34    11    12   ar
    35    12    13   ar
    36    13    14   ar
    37    13    15    1
    38    15    16    1
    39    16    17    1
    40     7     8   ar
    41    34    35   ar
    42    35    36    1
    43    36    37    1
    44    37    38    1
    45    38    39   ar
    46    38    40   ar
    47    35    30   ar
    48     8     3   ar
    49    24    18   ar
    50    14     9   ar
    51    17    12    1
@<TRIPOS>MOLECULE
*****
 47 51 0 0 0
SMALL
GASTEIGER

@<TRIPOS>ATOM
      1 C           0.3892    1.9418   21.7844 C.3     1  UNL1        0.2054
      2 O          -0.4464    3.0842   22.2813 O.3     1  UNL1       -0.4755
      3 C          -1.0334    3.0396   23.6610 C.ar    1  UNL1        0.1386
      4 C          -2.3076    3.7732   23.9580 C.ar    1  UNL1        0.0369
      5 C          -2.8946    3.7285   25.3377 C.ar    1  UNL1        0.0031
      6 C          -2.2073    2.9503   26.4203 C.ar    1  UNL1        0.0002
      7 C          -0.9332    2.2167   26.1233 C.ar    1  UNL1        0.0031
      8 C          -0.3462    2.2614   24.7436 C.ar    1  UNL1        0.0369
      9 C          -0.2459    1.4385   27.2060 C.ar    1  UNL1        0.0033
     10 C          -1.0557    0.6541   28.1952 C.ar    1  UNL1        0.0033
     11 C          -0.3685   -0.1241   29.2779 C.ar    1  UNL1        0.0402
     12 C           1.1286   -0.1179   29.3712 C.ar    1  UNL1        0.1764
     13 C           1.9385    0.6666   28.3818 C.ar    1  UNL1        0.1764
     14 C           1.2513    1.4448   27.2992 C.ar    1  UNL1        0.0402
     15 O           3.3881    0.4851   28.7218 O.3     1  UNL1       -0.4346
     16 C           3.4742   -0.4115   29.9212 C.3     1  UNL1        0.4294
     17 O           2.0777   -0.7842   30.3226 O.3     1  UNL1       -0.4346
     18 C          -4.1688    4.4622   25.6348 C.ar    1  UNL1        0.0023
     19 C          -4.3390    5.1685   26.9470 C.ar    1  UNL1        0.0001
     20 C          -5.6131    5.9021   27.2442 C.ar    1  UNL1        0.0023
     21 C          -6.7172    5.9294   26.2291 C.ar    1  UNL1        0.0296
     22 C          -6.5470    5.2229   24.9167 C.ar    1  UNL1        0.1401
     23 F          -7.6509    5.2501   23.9017 F       1  UNL1       -0.2042
     24 C          -5.2727    4.4894   24.6197 C.ar    1  UNL1        0.0296
     25 C           0.0487    1.2729   20.4857 C.3     1  UNL1        0.0473
     26 C           0.5846    1.8215   19.1965 C.3     1  UNL1        0.0038
     27 C           1.3091    0.9199   18.2414 C.3     1  UNL1        0.0005
     28 C           2.5286    0.1729   18.6938 C.3     1  UNL1        0.0047
     29 C           2.3975   -1.2207   19.2331 C.3     1  UNL1        0.0261
     30 C           4.7892   -3.1394   21.7525 C.ar    1  UNL1        0.1342
     31 C           4.5351   -2.3783   23.0199 C.ar    1  UNL1        0.0365
     32 C           3.5684   -1.2314   23.0250 C.ar    1  UNL1        0.0028
     33 C           2.8558   -0.8455   21.7627 C.ar    1  UNL1       -0.0044
     34 C           3.1100   -1.6065   20.4954 C.ar    1  UNL1       -0.0232
     35 C           4.0767   -2.7535   20.4902 C.ar    1  UNL1        0.0082
     36 C           4.3308   -3.5145   19.2229 C.3     1  UNL1        0.0350
     37 C           5.3495   -3.0169   18.2407 C.3     1  UNL1        0.0465
     38 C           6.2909   -1.9157   18.6296 C.2     1  UNL1        0.0507
     39 O           5.9512   -0.4904   18.3086 O.co2   1  UNL1       -0.5492
     40 O           7.5719   -2.2399   19.3396 O.co2   1  UNL1       -0.5492
     41 O           5.7559   -4.2864   21.7475 O.3     1  UNL1       -0.4758
     42 C           7.1420   -4.1014   22.2903 C.3     1  UNL1        0.2058
     43 C           8.3033   -4.7839   21.6302 C.3     1  UNL1        0.0532
     44 C           9.2108   -5.6663   22.4349 C.3     1  UNL1        0.0455
     45 O           8.1059   -7.5406   23.8549 O.co2   1  UNL1       -0.5492
     46 C           8.7590   -6.1932   23.7647 C.2     1  UNL1        0.0505
     47 O           8.9604   -5.3728   25.0042 O.co2   1  UNL1       -0.5492
@<TRIPOS>UNITY_ATOM_ATTR
39 1
charge -1
45 1
charge -1
@<TRIPOS>BOND
     1    45    46   ar
     2    46    47   ar
     3    46    44    1
     4    44    43    1
     5    43    42    1
     6    42    41    1
     7    41    30    1
     8    30    31   ar
     9    31    32   ar
    10    32    33   ar
    11    33    34   ar
    12    34    29    1
    13    29    28    1
    14    28    27    1
    15    27    26    1
    16    26    25    1
    17    25     1    1
    18     1     2    1
    19     2     3    1
    20     3     4   ar
    21     4     5   ar
    22     5    18    1
    23    18    19   ar
    24    19    20   ar
    25    20    21   ar
    26    21    22   ar
    27    22    23    1
    28    22    24   ar
    29     5     6   ar
    30     6     7   ar
    31     7     9    1
    32     9    10   ar
    33    10    11   ar
    34    11    12   ar
    35    12    13   ar
    36    13    14   ar
    37    13    15    1
    38    15    16    1
    39    16    17    1
    40     7     8   ar
    41    34    35   ar
    42    35    36    1
    43    36    37    1
    44    37    38    1
    45    38    39   ar
    46    38    40   ar
    47    35    30   ar
    48     8     3   ar
    49    24    18   ar
    50    14     9   ar
    51    17    12    1
@<TRIPOS>MOLECULE
*****
 47 51 0 0 0
SMALL
GASTEIGER

@<TRIPOS>ATOM
      1 C           0.4393    1.4246   21.8159 C.3     1  UNL1        0.2054
      2 O           1.1928    1.3997   23.1127 O.3     1  UNL1       -0.4755
      3 C           2.2167    0.3330   23.3648 C.ar    1  UNL1        0.1386
      4 C           2.7099   -0.5162   22.2309 C.ar    1  UNL1        0.0369
      5 C           3.7339   -1.5830   22.4830 C.ar    1  UNL1        0.0031
      6 C           4.2647   -1.8005   23.8690 C.ar    1  UNL1        0.0002
      7 C           3.7715   -0.9513   25.0028 C.ar    1  UNL1        0.0031
      8 C           2.7476    0.1154   24.7507 C.ar    1  UNL1        0.0369
      9 C           4.3024   -1.1688   26.3889 C.ar    1  UNL1        0.0033
     10 C           5.5940   -1.9042   26.5904 C.ar    1  UNL1        0.0033
     11 C           6.1248   -2.1218   27.9764 C.ar    1  UNL1        0.0402
     12 C           5.3640   -1.6039   29.1608 C.ar    1  UNL1        0.1764
     13 C           4.0723   -0.8684   28.9592 C.ar    1  UNL1        0.1764
     14 C           3.5414   -0.6509   27.5733 C.ar    1  UNL1        0.0402
     15 O           3.5467   -0.4762   30.3083 O.3     1  UNL1       -0.4346
     16 C           4.5137   -0.9692   31.3436 C.3     1  UNL1        0.4294
     17 O           5.6368   -1.6662   30.6344 O.3     1  UNL1       -0.4346
     18 C           4.2271   -2.4323   21.3491 C.ar    1  UNL1        0.0023
     19 C           3.4050   -2.5692   20.1020 C.ar    1  UNL1        0.0001
     20 C           3.8981   -3.4184   18.9681 C.ar    1  UNL1        0.0023
     21 C           5.2133   -4.1307   19.0814 C.ar    1  UNL1        0.0296
     22 C           6.0355   -3.9938   20.3287 C.ar    1  UNL1        0.1401
     23 F           7.3506   -4.7060   20.4420 F       1  UNL1       -0.2042
     24 C           5.5422   -3.1445   21.4625 C.ar    1  UNL1        0.0296
     25 C           0.8463    2.3763   20.7302 C.3     1  UNL1        0.0473
     26 C           0.9502    1.8968   19.3127 C.3     1  UNL1        0.0038
     27 C           1.3483    0.4789   19.0279 C.3     1  UNL1        0.0005
     28 C           2.4238    0.1892   18.0232 C.3     1  UNL1        0.0047
     29 C           3.6727    1.0197   18.0010 C.3     1  UNL1        0.0261
     30 C           6.6705    0.3229   20.5064 C.ar    1  UNL1        0.1342
     31 C           7.5012   -0.6284   19.6968 C.ar    1  UNL1        0.0365
     32 C           7.0557   -1.0302   18.3220 C.ar    1  UNL1        0.0028
     33 C           5.7795   -0.4808   17.7567 C.ar    1  UNL1       -0.0044
     34 C           4.9489    0.4704   18.5662 C.ar    1  UNL1       -0.0232
     35 C           5.3943    0.8722   19.9411 C.ar    1  UNL1        0.0082
     36 C           4.5637    1.8234   20.7505 C.3     1  UNL1        0.0350
     37 C           4.6986    3.3025   20.5406 C.3     1  UNL1        0.0465
     38 C           6.0592    3.9320   20.4915 C.2     1  UNL1        0.0507
     39 O           6.7465    4.1309   19.1732 O.co2   1  UNL1       -0.5492
     40 O           6.7327    4.3625   21.7609 O.co2   1  UNL1       -0.5492
     41 O           7.1161    0.7247   21.8812 O.3     1  UNL1       -0.4758
     42 C           7.6001   -0.3161   22.8468 C.3     1  UNL1        0.2058
     43 C           7.5733   -0.0415   24.3212 C.3     1  UNL1        0.0532
     44 C           7.4827    1.3703   24.8197 C.3     1  UNL1        0.0455
     45 O           5.7173    2.0187   26.6121 O.co2   1  UNL1       -0.5492
     46 C           6.1485    1.9554   25.1768 C.2     1  UNL1        0.0505
     47 O           5.2455    2.4772   24.0986 O.co2   1  UNL1       -0.5492
@<TRIPOS>UNITY_ATOM_ATTR
39 1
charge -1
45 1
charge -1
@<TRIPOS>BOND
     1    45    46   ar
     2    46    47   ar
     3    46    44    1
     4    44    43    1
     5    43    42    1
     6    42    41    1
     7    41    30    1
     8    30    31   ar
     9    31    32   ar
    10    32    33   ar
    11    33    34   ar
    12    34    29    1
    13    29    28    1
    14    28    27    1
    15    27    26    1
    16    26    25    1
    17    25     1    1
    18     1     2    1
    19     2     3    1
    20     3     4   ar
    21     4     5   ar
    22     5    18    1
    23    18    19   ar
    24    19    20   ar
    25    20    21   ar
    26    21    22   ar
    27    22    23    1
    28    22    24   ar
    29     5     6   ar
    30     6     7   ar
    31     7     9    1
    32     9    10   ar
    33    10    11   ar
    34    11    12   ar
    35    12    13   ar
    36    13    14   ar
    37    13    15    1
    38    15    16    1
    39    16    17    1
    40     7     8   ar
    41    34    35   ar
    42    35    36    1
    43    36    37    1
    44    37    38    1
    45    38    39   ar
    46    38    40   ar
    47    35    30   ar
    48     8     3   ar
    49    24    18   ar
    50    14     9   ar
    51    17    12    1
