@<TRIPOS>MOLECULE
*****
 17 18 0 0 0
SMALL
GASTEIGER

@<TRIPOS>ATOM
      1 C          -2.7672  -19.9485   20.8709 C.3     1  UNL1        0.0340
      2 C          -4.0102  -19.2443   21.3282 C.2     1  UNL1        0.0128
      3 C          -5.1452  -19.8435   20.5519 C.2     1  UNL1       -0.0271
      4 C          -6.6203  -19.8556   20.2797 C.3     1  UNL1        0.0283
      5 C          -7.9670  -19.2769   20.5981 C.3     1  UNL1        0.0343
      6 C          -8.7579  -18.2911   21.4060 C.3     1  UNL1        0.1179
      7 C          -9.7963  -18.9740   20.5662 C.3     1  UNL1        0.0321
      8 O         -10.0384  -17.6273   21.8179 O.3     1  UNL1       -0.3562
      9 C          -8.7418  -17.2111   22.4469 C.3     1  UNL1        0.1400
     10 C          -7.9237  -16.3799   23.3902 C.3     1  UNL1        0.0360
     11 C          -6.5636  -16.0613   23.9366 C.3     1  UNL1        0.0211
     12 C          -5.8674  -15.1669   24.9192 C.3     1  UNL1        0.0044
     13 C          -7.5787  -15.1810   24.6034 C.3     1  UNL1        0.0044
     14 C          -5.0931  -16.3566   23.9125 C.2     1  UNL1       -0.0234
     15 C          -3.9792  -17.1719   23.3255 C.2     1  UNL1        0.0371
     16 C          -3.5755  -18.2484   22.3622 C.2     1  UNL1        0.1911
     17 O          -2.0876  -18.3914   22.4875 O.2     1  UNL1       -0.2869
@<TRIPOS>BOND
     1     1     2    1
     2     2     3    2
     3     3     4    1
     4     4     5    1
     5     5     6    1
     6     6     7    1
     7     6     8    1
     8     8     9    1
     9     9    10    1
    10    10    11    1
    11    11    12    1
    12    11    13    1
    13    11    14    1
    14    14    15    2
    15    15    16    1
    16    16    17    2
    17    16     2    1
    18     9     6    1
@<TRIPOS>MOLECULE
*****
 17 18 0 0 0
SMALL
GASTEIGER

@<TRIPOS>ATOM
      1 C          -9.3610  -19.6553   19.8888 C.3     1  UNL1        0.0340
      2 C          -8.2203  -19.0843   20.6779 C.2     1  UNL1        0.0128
      3 C          -6.9955  -19.8423   20.2591 C.2     1  UNL1       -0.0271
      4 C          -5.5168  -20.0380   20.4178 C.3     1  UNL1        0.0283
      5 C          -4.2537  -19.6091   21.1038 C.3     1  UNL1        0.0343
      6 C          -3.6071  -18.6919   22.0992 C.3     1  UNL1        0.1179
      7 C          -2.4667  -19.5242   21.5924 C.3     1  UNL1        0.0321
      8 O          -2.4228  -18.1672   22.8556 O.3     1  UNL1       -0.3562
      9 C          -3.7824  -17.5777   23.0879 C.3     1  UNL1        0.1400
     10 C          -4.7239  -16.6200   23.7561 C.3     1  UNL1        0.0360
     11 C          -6.1327  -16.1231   23.8917 C.3     1  UNL1        0.0211
     12 C          -6.9615  -15.1155   24.6319 C.3     1  UNL1        0.0044
     13 C          -5.2460  -15.3425   24.8160 C.3     1  UNL1        0.0044
     14 C          -7.5615  -16.2447   23.4514 C.2     1  UNL1       -0.0234
     15 C          -8.5567  -16.9461   22.5753 C.2     1  UNL1        0.0371
     16 C          -8.8022  -18.0047   21.5413 C.2     1  UNL1        0.1911
     17 O         -10.2709  -17.9673   21.2388 O.2     1  UNL1       -0.2869
@<TRIPOS>BOND
     1     1     2    1
     2     2     3    2
     3     3     4    1
     4     4     5    1
     5     5     6    1
     6     6     7    1
     7     6     8    1
     8     8     9    1
     9     9    10    1
    10    10    11    1
    11    11    12    1
    12    11    13    1
    13    11    14    1
    14    14    15    2
    15    15    16    1
    16    16    17    2
    17    16     2    1
    18     9     6    1
@<TRIPOS>MOLECULE
*****
 17 18 0 0 0
SMALL
GASTEIGER

@<TRIPOS>ATOM
      1 C          -5.5298  -15.1550   25.2710 C.3     1  UNL1        0.0340
      2 C          -5.7094  -16.1624   24.1741 C.2     1  UNL1        0.0128
      3 C          -4.3514  -16.7391   23.9036 C.2     1  UNL1       -0.0271
      4 C          -3.5256  -17.7003   23.1009 C.3     1  UNL1        0.0283
      5 C          -3.4944  -18.7408   22.0209 C.3     1  UNL1        0.0343
      6 C          -4.2676  -19.5304   21.0066 C.3     1  UNL1        0.1179
      7 C          -2.8600  -20.0208   20.8383 C.3     1  UNL1        0.0321
      8 O          -4.3771  -20.5511   19.9129 O.3     1  UNL1       -0.3562
      9 C          -5.5997  -19.8182   20.3799 C.3     1  UNL1        0.1400
     10 C          -7.0678  -19.5129   20.3398 C.3     1  UNL1        0.0360
     11 C          -8.2057  -18.7115   20.8991 C.3     1  UNL1        0.0211
     12 C          -9.6842  -18.5033   20.7549 C.3     1  UNL1        0.0044
     13 C          -8.7262  -19.6184   19.8237 C.3     1  UNL1        0.0044
     14 C          -8.6522  -17.6683   21.8802 C.2     1  UNL1       -0.0234
     15 C          -8.2655  -16.7146   22.9715 C.2     1  UNL1        0.0371
     16 C          -7.1685  -16.1533   23.8267 C.2     1  UNL1        0.1911
     17 O          -7.8112  -15.1408   24.7277 O.2     1  UNL1       -0.2869
@<TRIPOS>BOND
     1     1     2    1
     2     2     3    2
     3     3     4    1
     4     4     5    1
     5     5     6    1
     6     6     7    1
     7     6     8    1
     8     8     9    1
     9     9    10    1
    10    10    11    1
    11    11    12    1
    12    11    13    1
    13    11    14    1
    14    14    15    2
    15    15    16    1
    16    16    17    2
    17    16     2    1
    18     9     6    1
@<TRIPOS>MOLECULE
*****
 17 18 0 0 0
SMALL
GASTEIGER

@<TRIPOS>ATOM
      1 C          -5.6348  -14.7266   26.1773 C.3     1  UNL1        0.0340
      2 C          -6.1456  -15.8538   25.3296 C.2     1  UNL1        0.0128
      3 C          -4.9841  -16.3213   24.5036 C.2     1  UNL1       -0.0271
      4 C          -4.4791  -17.2755   23.4622 C.3     1  UNL1        0.0283
      5 C          -4.7910  -18.4134   22.5361 C.3     1  UNL1        0.0343
      6 C          -5.8208  -19.3739   22.0192 C.3     1  UNL1        0.1179
      7 C          -4.5815  -19.7406   21.2578 C.3     1  UNL1        0.0321
      8 O          -6.2663  -20.5072   21.1433 O.3     1  UNL1       -0.3562
      9 C          -7.2415  -19.8518   22.0757 C.3     1  UNL1        0.1400
     10 C          -8.6021  -19.6955   22.6876 C.3     1  UNL1        0.0360
     11 C          -9.4705  -18.9547   23.6607 C.3     1  UNL1        0.0211
     12 C         -10.8735  -18.9062   24.1894 C.3     1  UNL1        0.0044
     13 C         -10.2876  -20.0132   22.9812 C.3     1  UNL1        0.0044
     14 C          -9.5710  -17.8644   24.6861 C.2     1  UNL1       -0.0234
     15 C          -8.8718  -16.7709   25.4381 C.2     1  UNL1        0.0371
     16 C          -7.5949  -16.0214   25.6780 C.2     1  UNL1        0.1911
     17 O          -7.9008  -14.9887   26.7220 O.2     1  UNL1       -0.2869
@<TRIPOS>BOND
     1     1     2    1
     2     2     3    2
     3     3     4    1
     4     4     5    1
     5     5     6    1
     6     6     7    1
     7     6     8    1
     8     8     9    1
     9     9    10    1
    10    10    11    1
    11    11    12    1
    12    11    13    1
    13    11    14    1
    14    14    15    2
    15    15    16    1
    16    16    17    2
    17    16     2    1
    18     9     6    1
@<TRIPOS>MOLECULE
*****
 17 18 0 0 0
SMALL
GASTEIGER

@<TRIPOS>ATOM
      1 C          -7.4089  -14.9823   24.8596 C.3     1  UNL1        0.0340
      2 C          -7.0873  -16.0557   23.8623 C.2     1  UNL1        0.0128
      3 C          -8.3809  -16.4098   23.1906 C.2     1  UNL1       -0.0271
      4 C          -9.0826  -17.2563   22.1702 C.3     1  UNL1        0.0283
      5 C          -8.9696  -18.3264   21.1252 C.3     1  UNL1        0.0343
      6 C          -8.0777  -19.2803   20.3872 C.3     1  UNL1        0.1179
      7 C          -9.4334  -19.5364   19.7986 C.3     1  UNL1        0.0321
      8 O          -7.8251  -20.3550   19.3718 O.3     1  UNL1       -0.3562
      9 C          -6.6902  -19.8153   20.1907 C.3     1  UNL1        0.1400
     10 C          -5.2475  -19.7614   20.5979 C.3     1  UNL1        0.0360
     11 C          -4.2078  -19.1357   21.4797 C.3     1  UNL1        0.0211
     12 C          -2.7410  -19.1841   21.7903 C.3     1  UNL1        0.0044
     13 C          -3.5551  -20.1661   20.6065 C.3     1  UNL1        0.0044
     14 C          -3.9011  -18.1369   22.5560 C.2     1  UNL1       -0.0234
     15 C          -4.4247  -17.0822   23.4851 C.2     1  UNL1        0.0371
     16 C          -5.6125  -16.3064   23.9721 C.2     1  UNL1        0.1911
     17 O          -5.1031  -15.3743   25.0312 O.2     1  UNL1       -0.2869
@<TRIPOS>BOND
     1     1     2    1
     2     2     3    2
     3     3     4    1
     4     4     5    1
     5     5     6    1
     6     6     7    1
     7     6     8    1
     8     8     9    1
     9     9    10    1
    10    10    11    1
    11    11    12    1
    12    11    13    1
    13    11    14    1
    14    14    15    2
    15    15    16    1
    16    16    17    2
    17    16     2    1
    18     9     6    1
@<TRIPOS>MOLECULE
*****
 17 18 0 0 0
SMALL
GASTEIGER

@<TRIPOS>ATOM
      1 C          -9.6253  -19.3844   20.0689 C.3     1  UNL1        0.0340
      2 C          -8.4799  -18.8092   20.8483 C.2     1  UNL1        0.0128
      3 C          -9.0597  -17.7366   21.7220 C.2     1  UNL1       -0.0271
      4 C          -8.8101  -16.6804   22.7575 C.3     1  UNL1        0.0283
      5 C          -7.8103  -15.9760   23.6259 C.3     1  UNL1        0.0343
      6 C          -6.3778  -15.8469   24.0517 C.3     1  UNL1        0.1179
      7 C          -7.0846  -14.8063   24.8686 C.3     1  UNL1        0.0321
      8 O          -5.2785  -15.2272   24.8625 O.3     1  UNL1       -0.3562
      9 C          -4.9673  -16.3343   23.8995 C.3     1  UNL1        0.1400
     10 C          -4.0268  -17.2833   23.2176 C.3     1  UNL1        0.0360
     11 C          -3.8547  -18.3926   22.2228 C.3     1  UNL1        0.0211
     12 C          -2.8096  -19.2826   21.6181 C.3     1  UNL1        0.0044
     13 C          -2.5200  -18.0573   22.8194 C.3     1  UNL1        0.0044
     14 C          -4.5059  -19.3100   21.2306 C.2     1  UNL1       -0.0234
     15 C          -5.7734  -19.7443   20.5562 C.2     1  UNL1        0.0371
     16 C          -7.2548  -19.5576   20.4137 C.2     1  UNL1        0.1911
     17 O          -7.7098  -20.5546   19.3895 O.2     1  UNL1       -0.2869
@<TRIPOS>BOND
     1     1     2    1
     2     2     3    2
     3     3     4    1
     4     4     5    1
     5     5     6    1
     6     6     7    1
     7     6     8    1
     8     8     9    1
     9     9    10    1
    10    10    11    1
    11    11    12    1
    12    11    13    1
    13    11    14    1
    14    14    15    2
    15    15    16    1
    16    16    17    2
    17    16     2    1
    18     9     6    1
@<TRIPOS>MOLECULE
*****
 17 18 0 0 0
SMALL
GASTEIGER

@<TRIPOS>ATOM
      1 C          -6.0830  -16.2130   24.2562 C.3     1  UNL1        0.0340
      2 C          -7.2014  -16.7588   23.4186 C.2     1  UNL1        0.0128
      3 C          -8.4661  -16.1636   23.9627 C.2     1  UNL1       -0.0271
      4 C          -9.9596  -16.0648   23.8622 C.3     1  UNL1        0.0283
      5 C         -11.2073  -16.4939   23.1489 C.3     1  UNL1        0.0343
      6 C         -11.8135  -17.3146   22.0493 C.3     1  UNL1        0.1179
      7 C         -12.9970  -16.6514   22.6891 C.3     1  UNL1        0.0321
      8 O         -12.9776  -17.8226   21.2513 O.3     1  UNL1       -0.3562
      9 C         -11.5854  -18.2663   20.9125 C.3     1  UNL1        0.1400
     10 C         -10.5956  -19.0469   20.0995 C.3     1  UNL1        0.0360
     11 C          -9.1583  -19.4085   19.8683 C.3     1  UNL1        0.0211
     12 C          -8.2793  -20.2375   18.9794 C.3     1  UNL1        0.0044
     13 C         -10.0118  -20.1229   18.8627 C.3     1  UNL1        0.0044
     14 C          -7.7298  -19.2363   20.2925 C.2     1  UNL1       -0.0234
     15 C          -6.7638  -18.5851   21.2372 C.2     1  UNL1        0.0371
     16 C          -6.5667  -17.6615   22.4026 C.2     1  UNL1        0.1911
     17 O          -5.0908  -17.6244   22.6676 O.2     1  UNL1       -0.2869
@<TRIPOS>BOND
     1     1     2    1
     2     2     3    2
     3     3     4    1
     4     4     5    1
     5     5     6    1
     6     6     7    1
     7     6     8    1
     8     8     9    1
     9     9    10    1
    10    10    11    1
    11    11    12    1
    12    11    13    1
    13    11    14    1
    14    14    15    2
    15    15    16    1
    16    16    17    2
    17    16     2    1
    18     9     6    1
@<TRIPOS>MOLECULE
*****
 17 18 0 0 0
SMALL
GASTEIGER

@<TRIPOS>ATOM
      1 C         -11.9282  -17.1571   22.8398 C.3     1  UNL1        0.0340
      2 C         -10.4383  -17.3308   22.8213 C.2     1  UNL1        0.0128
      3 C          -9.8829  -16.3172   23.7774 C.2     1  UNL1       -0.0271
      4 C          -8.6643  -15.7232   24.4196 C.3     1  UNL1        0.0283
      5 C          -7.1695  -15.7375   24.5439 C.3     1  UNL1        0.0343
      6 C          -5.8731  -16.3555   24.1110 C.3     1  UNL1        0.1179
      7 C          -5.4523  -15.3010   25.0912 C.3     1  UNL1        0.0321
      8 O          -4.3783  -16.4763   24.1402 O.3     1  UNL1       -0.3562
      9 C          -5.1867  -17.3810   23.2582 C.3     1  UNL1        0.1400
     10 C          -5.3282  -18.4884   22.2564 C.3     1  UNL1        0.0360
     11 C          -6.2526  -19.3261   21.4235 C.3     1  UNL1        0.0211
     12 C          -6.2519  -20.4450   20.4245 C.3     1  UNL1        0.0044
     13 C          -4.8382  -19.7559   21.1694 C.3     1  UNL1        0.0044
     14 C          -7.6666  -19.6281   21.0241 C.2     1  UNL1       -0.0234
     15 C          -9.1211  -19.2986   21.1849 C.2     1  UNL1        0.0371
     16 C         -10.1544  -18.4422   21.8549 C.2     1  UNL1        0.1911
     17 O         -11.4841  -18.8948   21.3288 O.2     1  UNL1       -0.2869
@<TRIPOS>BOND
     1     1     2    1
     2     2     3    2
     3     3     4    1
     4     4     5    1
     5     5     6    1
     6     6     7    1
     7     6     8    1
     8     8     9    1
     9     9    10    1
    10    10    11    1
    11    11    12    1
    12    11    13    1
    13    11    14    1
    14    14    15    2
    15    15    16    1
    16    16    17    2
    17    16     2    1
    18     9     6    1
@<TRIPOS>MOLECULE
*****
 17 18 0 0 0
SMALL
GASTEIGER

@<TRIPOS>ATOM
      1 C          -5.6068  -16.6803   23.8493 C.3     1  UNL1        0.0340
      2 C          -6.8187  -17.1219   23.0837 C.2     1  UNL1        0.0128
      3 C          -6.3270  -18.0502   22.0130 C.2     1  UNL1       -0.0271
      4 C          -6.6743  -18.9327   20.8507 C.3     1  UNL1        0.0283
      5 C          -7.7502  -19.4891   19.9661 C.3     1  UNL1        0.0343
      6 C          -9.2133  -19.5428   19.6398 C.3     1  UNL1        0.1179
      7 C          -8.5901  -20.4491   18.6199 C.3     1  UNL1        0.0321
      8 O         -10.3825  -20.0238   18.8326 O.3     1  UNL1       -0.3562
      9 C         -10.5990  -19.0768   19.9755 C.3     1  UNL1        0.1400
     10 C         -11.4673  -18.2389   20.8666 C.3     1  UNL1        0.0360
     11 C         -11.5426  -17.2954   22.0302 C.3     1  UNL1        0.0211
     12 C         -12.5222  -16.5033   22.8445 C.3     1  UNL1        0.0044
     13 C         -12.9251  -17.5270   21.4962 C.3     1  UNL1        0.0044
     14 C         -10.8009  -16.5455   23.0968 C.2     1  UNL1       -0.0234
     15 C          -9.4778  -16.2276   23.7279 C.2     1  UNL1        0.0371
     16 C          -7.9933  -16.4425   23.7230 C.2     1  UNL1        0.1911
     17 O          -7.4432  -15.6180   24.8488 O.2     1  UNL1       -0.2869
@<TRIPOS>BOND
     1     1     2    1
     2     2     3    2
     3     3     4    1
     4     4     5    1
     5     5     6    1
     6     6     7    1
     7     6     8    1
     8     8     9    1
     9     9    10    1
    10    10    11    1
    11    11    12    1
    12    11    13    1
    13    11    14    1
    14    14    15    2
    15    15    16    1
    16    16    17    2
    17    16     2    1
    18     9     6    1
