@<TRIPOS>MOLECULE
*****
 40 45 0 0 0
SMALL
GASTEIGER

@<TRIPOS>ATOM
      1 C           2.2491    0.8227   18.7193 C.ar    1  UNL1       -0.0201
      2 C           1.2982    0.0024   19.5395 C.ar    1  UNL1       -0.0027
      3 C           0.3032    0.6795   20.4349 C.ar    1  UNL1        0.0173
      4 C           0.2593    2.1770   20.5101 C.ar    1  UNL1        0.0664
      5 C           1.2102    2.9973   19.6899 C.ar    1  UNL1        0.0173
      6 C           2.2051    2.3202   18.7945 C.ar    1  UNL1       -0.0027
      7 N          -0.7356    2.8541   21.4055 N.ar    1  UNL1       -0.2787
      8 C          -0.5197    3.2236   22.8431 C.ar    1  UNL1        0.1325
      9 N          -1.7718    3.8784   23.3465 N.ar    1  UNL1       -0.2287
     10 C          -2.7616    3.9137   22.2200 C.ar    1  UNL1        0.1170
     11 C          -4.1632    4.4404   22.1315 C.ar    1  UNL1        0.0238
     12 C          -4.9245    4.3342   20.8435 C.ar    1  UNL1        0.0223
     13 C          -4.2841    3.7011   19.6438 C.ar    1  UNL1        0.1006
     14 N          -2.8825    3.1743   19.7323 N.ar    1  UNL1       -0.2248
     15 C          -2.1212    3.2806   21.0203 C.ar    1  UNL1        0.1663
     16 C           0.7291    2.9808   23.6378 C.3     1  UNL1        0.1381
     17 C           2.1114    3.1771   24.1861 C.3     1  UNL1        0.0161
     18 C           1.5473    4.1609   23.2043 C.3     1  UNL1        0.0161
     19 C           0.3447    1.7164   24.3474 C.3     1  UNL1        0.4034
     20 F          -0.0398    0.4521   25.0570 F       1  UNL1       -0.1696
     21 F           1.0724    0.9132   23.3104 F       1  UNL1       -0.1696
     22 F          -0.3831    2.5196   25.3843 F       1  UNL1       -0.1696
     23 C           3.2440    0.1456   17.8240 C.3     1  UNL1        0.0516
     24 CA          4.6828    0.0515   18.2374 C.3     1  UNL1        0.1102
     25 O           5.9463    1.2023   16.2805 O.co2   1  UNL1       -0.5475
     26 C           5.7624    0.0285   17.1962 C.2     1  UNL1        0.0684
     27 OXT         6.6579   -1.1683   17.0707 O.co2   1  UNL1       -0.5475
     28 N           5.0421   -0.0195   19.6920 N.pl3   1  UNL1       -0.3320
     29 H           5.4270    0.7664   20.1430 H       1  UNL1        0.1468
     30 C           4.8147   -1.2881   20.4596 C.2     1  UNL1        0.0372
     31 C           4.7941   -2.7477   20.1141 C.2     1  UNL1        0.0788
     32 BR          4.9922   -3.5432   18.8579 Br      1  UNL1       -0.0451
     33 C           4.4932   -3.0821   21.5450 C.2     1  UNL1        0.1842
     34 O           4.2659   -4.3507   22.3125 O.2     1  UNL1       -0.2904
     35 C           4.5139   -1.6225   21.8905 C.3     1  UNL1        0.0874
     36 C           4.2179   -2.3235   23.1832 C.3     1  UNL1        0.0126
     37 C           4.0198   -1.5279   24.4394 C.3     1  UNL1        0.0008
     38 C           4.1176   -0.0315   24.4028 C.3     1  UNL1        0.0000
     39 C           4.4135    0.6693   23.1100 C.3     1  UNL1        0.0008
     40 C           4.6117   -0.1262   21.8539 C.3     1  UNL1        0.0126
@<TRIPOS>UNITY_ATOM_ATTR
25 1
charge -1
@<TRIPOS>BOND
     1    25    26   ar
     2    26    27   ar
     3    26    24    1
     4    24    23    1
     5    23     1    1
     6     1     2   ar
     7     2     3   ar
     8     3     4   ar
     9     4     7    1
    10     7     8   ar
    11     8    16    1
    12    16    19    1
    13    19    20    1
    14    19    21    1
    15    19    22    1
    16    16    17    1
    17    17    18    1
    18     8     9   ar
    19     9    10   ar
    20    10    11   ar
    21    11    12   ar
    22    12    13   ar
    23    13    14   ar
    24    14    15   ar
    25     4     5   ar
    26     5     6   ar
    27    24    28    1
    28    28    30    1
    29    30    31    2
    30    31    32    1
    31    31    33    1
    32    33    34    2
    33    33    35    1
    34    35    36    1
    35    36    37    1
    36    37    38    1
    37    38    39    1
    38    39    40    1
    39     6     1   ar
    40    35    30    1
    41    15     7   ar
    42    40    35    1
    43    18    16    1
    44    15    10   ar
    45    28    29    1
@<TRIPOS>MOLECULE
*****
 40 45 0 0 0
SMALL
GASTEIGER

@<TRIPOS>ATOM
      1 C           1.9371    1.5311   19.5778 C.ar    1  UNL1       -0.0201
      2 C           2.4029    2.6237   20.4939 C.ar    1  UNL1       -0.0027
      3 C           1.5027    3.1219   21.5854 C.ar    1  UNL1        0.0173
      4 C           0.1366    2.5274   21.7609 C.ar    1  UNL1        0.0664
      5 C          -0.3290    1.4348   20.8448 C.ar    1  UNL1        0.0173
      6 C           0.5711    0.9367   19.7532 C.ar    1  UNL1       -0.0027
      7 N          -0.7635    3.0256   22.8525 N.ar    1  UNL1       -0.2787
      8 C          -1.8952    3.9962   22.6878 C.ar    1  UNL1        0.1325
      9 N          -2.5211    4.2111   24.0339 N.ar    1  UNL1       -0.2287
     10 C          -1.7763    3.3732   25.0305 C.ar    1  UNL1        0.1170
     11 C          -1.9469    3.1827   26.5085 C.ar    1  UNL1        0.0238
     12 C          -1.0312    2.2595   27.2564 C.ar    1  UNL1        0.0223
     13 C           0.0550    1.5269   26.5262 C.ar    1  UNL1        0.1006
     14 N           0.2256    1.7173   25.0481 N.ar    1  UNL1       -0.2248
     15 C          -0.6900    2.6405   24.3003 C.ar    1  UNL1        0.1663
     16 C          -2.3254    4.6392   21.4027 C.3     1  UNL1        0.1381
     17 C          -2.3160    5.5466   20.2084 C.3     1  UNL1        0.0161
     18 C          -1.2092    5.6240   21.2177 C.3     1  UNL1        0.0161
     19 C          -3.5910    3.8777   21.1413 C.3     1  UNL1        0.4034
     20 F          -4.8565    3.1161   20.8799 F       1  UNL1       -0.1696
     21 F          -4.3731    4.9250   21.8771 F       1  UNL1       -0.1696
     22 F          -2.8089    2.8304   20.4055 F       1  UNL1       -0.1696
     23 C           2.8373    1.0329   18.4862 C.3     1  UNL1        0.0516
     24 CA          3.2989   -0.3943   18.4875 C.3     1  UNL1        0.1102
     25 O           3.9671   -1.2430   16.1247 O.co2   1  UNL1       -0.5475
     26 C           4.3520   -0.8428   17.5181 C.2     1  UNL1        0.0684
     27 OXT         5.7900   -0.8910   17.9421 O.co2   1  UNL1       -0.5475
     28 N           2.7073   -1.3729   19.4583 N.pl3   1  UNL1       -0.3320
     29 H           1.7300   -1.4383   19.5575 H       1  UNL1        0.1468
     30 C           3.6049   -2.2518   20.2780 C.2     1  UNL1        0.0372
     31 C           4.4648   -3.4479   19.9949 C.2     1  UNL1        0.0788
     32 BR          4.7834   -4.2603   18.7748 Br      1  UNL1       -0.0451
     33 C           4.8742   -3.4949   21.4371 C.2     1  UNL1        0.1842
     34 O           5.7717   -4.3739   22.2568 O.2     1  UNL1       -0.2904
     35 C           4.0142   -2.2989   21.7202 C.3     1  UNL1        0.0874
     36 C           4.6323   -2.6540   23.0401 C.3     1  UNL1        0.0126
     37 C           4.3137   -1.8416   24.2601 C.3     1  UNL1        0.0008
     38 C           3.3771   -0.6741   24.1604 C.3     1  UNL1        0.0000
     39 C           2.7591   -0.3191   22.8405 C.3     1  UNL1        0.0008
     40 C           3.0777   -1.1315   21.6204 C.3     1  UNL1        0.0126
@<TRIPOS>UNITY_ATOM_ATTR
25 1
charge -1
@<TRIPOS>BOND
     1    25    26   ar
     2    26    27   ar
     3    26    24    1
     4    24    23    1
     5    23     1    1
     6     1     2   ar
     7     2     3   ar
     8     3     4   ar
     9     4     7    1
    10     7     8   ar
    11     8    16    1
    12    16    19    1
    13    19    20    1
    14    19    21    1
    15    19    22    1
    16    16    17    1
    17    17    18    1
    18     8     9   ar
    19     9    10   ar
    20    10    11   ar
    21    11    12   ar
    22    12    13   ar
    23    13    14   ar
    24    14    15   ar
    25     4     5   ar
    26     5     6   ar
    27    24    28    1
    28    28    30    1
    29    30    31    2
    30    31    32    1
    31    31    33    1
    32    33    34    2
    33    33    35    1
    34    35    36    1
    35    36    37    1
    36    37    38    1
    37    38    39    1
    38    39    40    1
    39     6     1   ar
    40    35    30    1
    41    15     7   ar
    42    40    35    1
    43    18    16    1
    44    15    10   ar
    45    28    29    1
@<TRIPOS>MOLECULE
*****
 40 45 0 0 0
SMALL
GASTEIGER

@<TRIPOS>ATOM
      1 C           6.2851   -2.3838   24.3684 C.ar    1  UNL1       -0.0201
      2 C           5.0565   -3.0911   23.8782 C.ar    1  UNL1       -0.0027
      3 C           4.3986   -2.6549   22.6028 C.ar    1  UNL1        0.0173
      4 C           4.9692   -1.5112   21.8175 C.ar    1  UNL1        0.0664
      5 C           6.1977   -0.8040   22.3077 C.ar    1  UNL1        0.0173
      6 C           6.8557   -1.2402   23.5832 C.ar    1  UNL1       -0.0027
      7 N           4.3112   -1.0749   20.5421 N.ar    1  UNL1       -0.2787
      8 C           4.1938   -1.8886   19.2874 C.ar    1  UNL1        0.1325
      9 N           3.4652   -1.0649   18.2673 N.ar    1  UNL1       -0.2287
     10 C           3.1322    0.2578   18.8915 C.ar    1  UNL1        0.1170
     11 C           2.4205    1.4671   18.3614 C.ar    1  UNL1        0.0238
     12 C           2.2316    2.6701   19.2371 C.ar    1  UNL1        0.0223
     13 C           2.7546    2.6639   20.6430 C.ar    1  UNL1        0.1006
     14 N           3.4663    1.4547   21.1732 N.ar    1  UNL1       -0.2248
     15 C           3.6551    0.2516   20.2974 C.ar    1  UNL1        0.1663
     16 C           4.7138   -3.2813   19.0878 C.3     1  UNL1        0.1381
     17 C           4.7252   -4.7740   18.9410 C.3     1  UNL1        0.0161
     18 C           3.4301   -4.0529   19.1702 C.3     1  UNL1        0.0161
     19 C           6.1781   -2.9935   18.9361 C.3     1  UNL1        0.4034
     20 F           7.6423   -2.7056   18.7843 F       1  UNL1       -0.1696
     21 F           6.4593   -3.7612   20.1937 F       1  UNL1       -0.1696
     22 F           5.8968   -2.2258   17.6786 F       1  UNL1       -0.1696
     23 C           6.9431   -2.8201   25.6438 C.3     1  UNL1        0.0516
     24 CA          6.1108   -3.0967   26.8607 C.3     1  UNL1        0.1102
     25 O           6.3512   -0.9556   28.3124 O.co2   1  UNL1       -0.5475
     26 C           5.4843   -1.9614   27.6148 C.2     1  UNL1        0.0684
     27 OXT         3.9910   -1.8320   27.6711 O.co2   1  UNL1       -0.5475
     28 N           5.9049   -4.5087   27.3233 N.pl3   1  UNL1       -0.3320
     29 H           5.1828   -5.0536   26.9349 H       1  UNL1        0.1468
     30 C           6.7992   -5.0903   28.3778 C.2     1  UNL1        0.0372
     31 C           7.1374   -4.7355   29.7955 C.2     1  UNL1        0.0788
     32 BR          6.7212   -3.6522   30.7460 Br      1  UNL1       -0.0451
     33 C           8.0640   -5.9127   29.8691 C.2     1  UNL1        0.1842
     34 O           8.9583   -6.4944   30.9236 O.2     1  UNL1       -0.2904
     35 C           7.7258   -6.2675   28.4514 C.3     1  UNL1        0.0874
     36 C           8.7084   -7.3128   28.8895 C.3     1  UNL1        0.0126
     37 C           9.1245   -8.3961   27.9390 C.3     1  UNL1        0.0008
     38 C           8.5581   -8.4341   26.5505 C.3     1  UNL1        0.0000
     39 C           7.5756   -7.3888   26.1126 C.3     1  UNL1        0.0008
     40 C           7.1594   -6.3055   27.0630 C.3     1  UNL1        0.0126
@<TRIPOS>UNITY_ATOM_ATTR
25 1
charge -1
@<TRIPOS>BOND
     1    25    26   ar
     2    26    27   ar
     3    26    24    1
     4    24    23    1
     5    23     1    1
     6     1     2   ar
     7     2     3   ar
     8     3     4   ar
     9     4     7    1
    10     7     8   ar
    11     8    16    1
    12    16    19    1
    13    19    20    1
    14    19    21    1
    15    19    22    1
    16    16    17    1
    17    17    18    1
    18     8     9   ar
    19     9    10   ar
    20    10    11   ar
    21    11    12   ar
    22    12    13   ar
    23    13    14   ar
    24    14    15   ar
    25     4     5   ar
    26     5     6   ar
    27    24    28    1
    28    28    30    1
    29    30    31    2
    30    31    32    1
    31    31    33    1
    32    33    34    2
    33    33    35    1
    34    35    36    1
    35    36    37    1
    36    37    38    1
    37    38    39    1
    38    39    40    1
    39     6     1   ar
    40    35    30    1
    41    15     7   ar
    42    40    35    1
    43    18    16    1
    44    15    10   ar
    45    28    29    1
@<TRIPOS>MOLECULE
*****
 40 45 0 0 0
SMALL
GASTEIGER

@<TRIPOS>ATOM
      1 C           6.6752   -2.8116   23.9974 C.ar    1  UNL1       -0.0201
      2 C           5.3746   -3.4640   23.6330 C.ar    1  UNL1       -0.0027
      3 C           4.5591   -2.9268   22.4944 C.ar    1  UNL1        0.0173
      4 C           5.0443   -1.7371   21.7202 C.ar    1  UNL1        0.0664
      5 C           6.3448   -1.0847   22.0846 C.ar    1  UNL1        0.0173
      6 C           7.1603   -1.6219   23.2232 C.ar    1  UNL1       -0.0027
      7 N           4.2288   -1.1999   20.5816 N.ar    1  UNL1       -0.2787
      8 C           3.9782   -1.8904   19.2737 C.ar    1  UNL1        0.1325
      9 N           3.1153   -0.9951   18.4348 N.ar    1  UNL1       -0.2287
     10 C           2.8326    0.2487   19.2241 C.ar    1  UNL1        0.1170
     11 C           2.0374    1.4802   18.9062 C.ar    1  UNL1        0.0238
     12 C           1.9305    2.5851   19.9150 C.ar    1  UNL1        0.0223
     13 C           2.6187    2.4585   21.2417 C.ar    1  UNL1        0.1006
     14 N           3.4138    1.2271   21.5597 N.ar    1  UNL1       -0.2248
     15 C           3.5208    0.1222   20.5509 C.ar    1  UNL1        0.1663
     16 C           4.4990   -3.2393   18.8749 C.3     1  UNL1        0.1381
     17 C           4.5447   -4.7206   18.6436 C.3     1  UNL1        0.0161
     18 C           3.3118   -4.0891   19.2188 C.3     1  UNL1        0.0161
     19 C           5.8672   -2.8581   18.3925 C.3     1  UNL1        0.4034
     20 F           7.2354   -2.4769   17.9101 F       1  UNL1       -0.1696
     21 F           5.2579   -2.1746   17.2044 F       1  UNL1       -0.1696
     22 F           6.4766   -3.5415   19.5806 F       1  UNL1       -0.1696
     23 C           7.4906   -3.3488   25.1360 C.3     1  UNL1        0.0516
     24 CA          7.1349   -4.6671   25.7569 C.3     1  UNL1        0.1102
     25 O           7.6924   -6.3162   23.8282 O.co2   1  UNL1       -0.5475
     26 C           7.7923   -5.9256   25.2730 C.2     1  UNL1        0.0684
     27 OXT         8.5496   -6.7934   26.2339 O.co2   1  UNL1       -0.5475
     28 N           6.1219   -4.7269   26.8615 N.pl3   1  UNL1       -0.3320
     29 H           5.4835   -5.4752   26.9039 H       1  UNL1        0.1468
     30 C           6.0817   -3.6468   27.9015 C.2     1  UNL1        0.0372
     31 C           5.6697   -2.2045   27.9173 C.2     1  UNL1        0.0788
     32 BR          5.1275   -1.2450   26.8998 Br      1  UNL1       -0.0451
     33 C           6.0247   -2.1191   29.3722 C.2     1  UNL1        0.1842
     34 O           5.9844   -1.0389   30.4121 O.2     1  UNL1       -0.2904
     35 C           6.4366   -3.5614   29.3563 C.3     1  UNL1        0.0874
     36 C           6.6728   -3.1056   30.7658 C.3     1  UNL1        0.0126
     37 C           7.2151   -4.0650   31.7833 C.3     1  UNL1        0.0008
     38 C           7.5211   -5.4803   31.3915 C.3     1  UNL1        0.0000
     39 C           7.2849   -5.9360   29.9821 C.3     1  UNL1        0.0008
     40 C           6.7426   -4.9766   28.9645 C.3     1  UNL1        0.0126
@<TRIPOS>UNITY_ATOM_ATTR
25 1
charge -1
@<TRIPOS>BOND
     1    25    26   ar
     2    26    27   ar
     3    26    24    1
     4    24    23    1
     5    23     1    1
     6     1     2   ar
     7     2     3   ar
     8     3     4   ar
     9     4     7    1
    10     7     8   ar
    11     8    16    1
    12    16    19    1
    13    19    20    1
    14    19    21    1
    15    19    22    1
    16    16    17    1
    17    17    18    1
    18     8     9   ar
    19     9    10   ar
    20    10    11   ar
    21    11    12   ar
    22    12    13   ar
    23    13    14   ar
    24    14    15   ar
    25     4     5   ar
    26     5     6   ar
    27    24    28    1
    28    28    30    1
    29    30    31    2
    30    31    32    1
    31    31    33    1
    32    33    34    2
    33    33    35    1
    34    35    36    1
    35    36    37    1
    36    37    38    1
    37    38    39    1
    38    39    40    1
    39     6     1   ar
    40    35    30    1
    41    15     7   ar
    42    40    35    1
    43    18    16    1
    44    15    10   ar
    45    28    29    1
@<TRIPOS>MOLECULE
*****
 40 45 0 0 0
SMALL
GASTEIGER

@<TRIPOS>ATOM
      1 C           6.0877   -1.1598   22.3653 C.ar    1  UNL1       -0.0201
      2 C           6.0198    0.3212   22.1375 C.ar    1  UNL1       -0.0027
      3 C           4.7071    1.0381   22.2515 C.ar    1  UNL1        0.0173
      4 C           3.4624    0.2739   22.5934 C.ar    1  UNL1        0.0664
      5 C           3.5304   -1.2070   22.8212 C.ar    1  UNL1        0.0173
      6 C           4.8431   -1.9240   22.7072 C.ar    1  UNL1       -0.0027
      7 N           2.1497    0.9909   22.7074 N.ar    1  UNL1       -0.2787
      8 C           1.3070    1.4744   21.5646 C.ar    1  UNL1        0.1325
      9 N           0.0858    2.1324   22.1352 N.ar    1  UNL1       -0.2287
     10 C           0.1738    2.0557   23.6307 C.ar    1  UNL1        0.1170
     11 C          -0.7428    2.5371   24.7161 C.ar    1  UNL1        0.0238
     12 C          -0.3838    2.3129   26.1551 C.ar    1  UNL1        0.0223
     13 C           0.8918    1.6073   26.5087 C.ar    1  UNL1        0.1006
     14 N           1.8084    1.1259   25.4234 N.ar    1  UNL1       -0.2248
     15 C           1.4494    1.3501   23.9843 C.ar    1  UNL1        0.1663
     16 C           1.6290    1.3258   20.1071 C.3     1  UNL1        0.1381
     17 C           1.9684    1.6961   18.6938 C.3     1  UNL1        0.0161
     18 C           1.7913    2.7680   19.7279 C.3     1  UNL1        0.0161
     19 C           1.5785   -0.1679   19.9801 C.3     1  UNL1        0.4034
     20 F           1.5280   -1.6616   19.8530 F       1  UNL1       -0.1696
     21 F           0.1245   -0.1501   20.3483 F       1  UNL1       -0.1696
     22 F           3.0324   -0.1857   19.6118 F       1  UNL1       -0.1696
     23 C           7.4004   -1.8768   22.2513 C.3     1  UNL1        0.0516
     24 CA          7.5705   -2.9741   21.2429 C.3     1  UNL1        0.1102
     25 O           8.0652   -5.4853   20.7963 O.co2   1  UNL1       -0.5475
     26 C           7.5043   -4.4084   21.6771 C.2     1  UNL1        0.0684
     27 OXT         6.8771   -4.7658   22.9919 O.co2   1  UNL1       -0.5475
     28 N           7.8069   -2.6372   19.8005 N.pl3   1  UNL1       -0.3320
     29 H           8.7189   -2.6672   19.4310 H       1  UNL1        0.1468
     30 C           6.6536   -2.2544   18.9211 C.2     1  UNL1        0.0372
     31 C           5.3613   -2.9043   18.5238 C.2     1  UNL1        0.0788
     32 BR          4.6871   -4.2060   18.8414 Br      1  UNL1       -0.0451
     33 C           5.0226   -1.7132   17.6773 C.2     1  UNL1        0.1842
     34 O           3.8693   -1.3304   16.7979 O.2     1  UNL1       -0.2904
     35 C           6.3149   -1.0633   18.0746 C.3     1  UNL1        0.0874
     36 C           5.6531   -0.0810   17.1541 C.3     1  UNL1        0.0126
     37 C           6.3274    1.2207   16.8365 C.3     1  UNL1        0.0008
     38 C           7.6633    1.5402   17.4393 C.3     1  UNL1        0.0000
     39 C           8.3249    0.5578   18.3598 C.3     1  UNL1        0.0008
     40 C           7.6507   -0.7439   18.6774 C.3     1  UNL1        0.0126
@<TRIPOS>UNITY_ATOM_ATTR
25 1
charge -1
@<TRIPOS>BOND
     1    25    26   ar
     2    26    27   ar
     3    26    24    1
     4    24    23    1
     5    23     1    1
     6     1     2   ar
     7     2     3   ar
     8     3     4   ar
     9     4     7    1
    10     7     8   ar
    11     8    16    1
    12    16    19    1
    13    19    20    1
    14    19    21    1
    15    19    22    1
    16    16    17    1
    17    17    18    1
    18     8     9   ar
    19     9    10   ar
    20    10    11   ar
    21    11    12   ar
    22    12    13   ar
    23    13    14   ar
    24    14    15   ar
    25     4     5   ar
    26     5     6   ar
    27    24    28    1
    28    28    30    1
    29    30    31    2
    30    31    32    1
    31    31    33    1
    32    33    34    2
    33    33    35    1
    34    35    36    1
    35    36    37    1
    36    37    38    1
    37    38    39    1
    38    39    40    1
    39     6     1   ar
    40    35    30    1
    41    15     7   ar
    42    40    35    1
    43    18    16    1
    44    15    10   ar
    45    28    29    1
@<TRIPOS>MOLECULE
*****
 40 45 0 0 0
SMALL
GASTEIGER

@<TRIPOS>ATOM
      1 C           3.2962    0.9039   22.1004 C.ar    1  UNL1       -0.0201
      2 C           4.7539    0.9927   21.7580 C.ar    1  UNL1       -0.0027
      3 C           5.6131   -0.2357   21.8115 C.ar    1  UNL1        0.0173
      4 C           5.0146   -1.5529   22.2075 C.ar    1  UNL1        0.0664
      5 C           3.5569   -1.6417   22.5499 C.ar    1  UNL1        0.0173
      6 C           2.6977   -0.4133   22.4963 C.ar    1  UNL1       -0.0027
      7 N           5.8738   -2.7813   22.2611 N.ar    1  UNL1       -0.2787
      8 C           6.3978   -3.5429   21.0798 C.ar    1  UNL1        0.1325
      9 N           7.2077   -4.6960   21.5940 N.ar    1  UNL1       -0.2287
     10 C           7.1842   -4.6471   23.0930 C.ar    1  UNL1        0.1170
     11 C           7.8069   -5.5272   24.1358 C.ar    1  UNL1        0.0238
     12 C           7.6053   -5.2240   25.5909 C.ar    1  UNL1        0.0223
     13 C           6.7808   -4.0406   26.0032 C.ar    1  UNL1        0.1006
     14 N           6.1581   -3.1605   24.9604 N.ar    1  UNL1       -0.2248
     15 C           6.3597   -3.4637   23.5053 C.ar    1  UNL1        0.1663
     16 C           6.1547   -3.2098   19.6376 C.3     1  UNL1        0.1381
     17 C           6.3766   -2.6520   18.2630 C.3     1  UNL1        0.0161
     18 C           7.4094   -2.4470   19.3313 C.3     1  UNL1        0.0161
     19 C           4.8156   -3.8569   19.4430 C.3     1  UNL1        0.4034
     20 F           3.4765   -4.5041   19.2483 F       1  UNL1       -0.1696
     21 F           4.1534   -2.5141   19.5343 F       1  UNL1       -0.1696
     22 F           5.4777   -5.1998   19.3517 F       1  UNL1       -0.1696
     23 C           2.4370    2.1323   22.0468 C.3     1  UNL1        0.0516
     24 CA          1.4341    2.2986   20.9439 C.3     1  UNL1        0.1102
     25 O          -0.2104    0.3056   20.6723 O.co2   1  UNL1       -0.5475
     26 C           0.0571    1.7215   21.0891 C.2     1  UNL1        0.0684
     27 OXT        -1.0521    2.5603   21.6510 O.co2   1  UNL1       -0.5475
     28 N           1.8081    3.0419   19.6959 N.pl3   1  UNL1       -0.3320
     29 H           1.1129    3.4935   19.1649 H       1  UNL1        0.1468
     30 C           3.2414    3.0971   19.2569 C.2     1  UNL1        0.0372
     31 C           4.3660    4.0749   19.4275 C.2     1  UNL1        0.0788
     32 BR          4.5232    5.4026   20.1076 Br      1  UNL1       -0.0451
     33 C           5.2683    3.1752   18.6361 C.2     1  UNL1        0.1842
     34 O           6.7016    3.2304   18.1971 O.2     1  UNL1       -0.2904
     35 C           4.1437    2.1973   18.4656 C.3     1  UNL1        0.0874
     36 C           5.3064    1.5813   17.7453 C.3     1  UNL1        0.0126
     37 C           5.1492    0.2537   17.0652 C.3     1  UNL1        0.0008
     38 C           3.8293   -0.4580   17.1052 C.3     1  UNL1        0.0000
     39 C           2.6667    0.1580   17.8255 C.3     1  UNL1        0.0008
     40 C           2.8239    1.4857   18.5056 C.3     1  UNL1        0.0126
@<TRIPOS>UNITY_ATOM_ATTR
25 1
charge -1
@<TRIPOS>BOND
     1    25    26   ar
     2    26    27   ar
     3    26    24    1
     4    24    23    1
     5    23     1    1
     6     1     2   ar
     7     2     3   ar
     8     3     4   ar
     9     4     7    1
    10     7     8   ar
    11     8    16    1
    12    16    19    1
    13    19    20    1
    14    19    21    1
    15    19    22    1
    16    16    17    1
    17    17    18    1
    18     8     9   ar
    19     9    10   ar
    20    10    11   ar
    21    11    12   ar
    22    12    13   ar
    23    13    14   ar
    24    14    15   ar
    25     4     5   ar
    26     5     6   ar
    27    24    28    1
    28    28    30    1
    29    30    31    2
    30    31    32    1
    31    31    33    1
    32    33    34    2
    33    33    35    1
    34    35    36    1
    35    36    37    1
    36    37    38    1
    37    38    39    1
    38    39    40    1
    39     6     1   ar
    40    35    30    1
    41    15     7   ar
    42    40    35    1
    43    18    16    1
    44    15    10   ar
    45    28    29    1
@<TRIPOS>MOLECULE
*****
 40 45 0 0 0
SMALL
GASTEIGER

@<TRIPOS>ATOM
      1 C           7.0852   -1.8622   23.9860 C.ar    1  UNL1       -0.0201
      2 C           6.2533   -0.6753   23.5999 C.ar    1  UNL1       -0.0027
      3 C           5.9822   -0.3882   22.1528 C.ar    1  UNL1        0.0173
      4 C           6.5432   -1.2880   21.0917 C.ar    1  UNL1        0.0664
      5 C           7.3750   -2.4749   21.4779 C.ar    1  UNL1        0.0173
      6 C           7.6461   -2.7620   22.9250 C.ar    1  UNL1       -0.0027
      7 N           6.2721   -1.0008   19.6446 N.ar    1  UNL1       -0.2787
      8 C           5.2269   -1.6614   18.7954 C.ar    1  UNL1        0.1325
      9 N           5.3076   -1.0715   17.4186 N.ar    1  UNL1       -0.2287
     10 C           6.4026   -0.0463   17.4170 C.ar    1  UNL1        0.1170
     11 C           6.9339    0.8530   16.3405 C.ar    1  UNL1        0.0238
     12 C           8.0613    1.7961   16.6398 C.ar    1  UNL1        0.0223
     13 C           8.6574    1.8397   18.0156 C.ar    1  UNL1        0.1006
     14 N           8.1261    0.9404   19.0920 N.ar    1  UNL1       -0.2248
     15 C           6.9987   -0.0027   18.7928 C.ar    1  UNL1        0.1663
     16 C           4.2693   -2.7252   19.2441 C.3     1  UNL1        0.1381
     17 C           3.6461   -4.0784   19.4178 C.3     1  UNL1        0.0161
     18 C           4.8998   -3.9285   18.6080 C.3     1  UNL1        0.0161
     19 C           3.3062   -1.8914   20.0361 C.3     1  UNL1        0.4034
     20 F           2.3431   -1.0576   20.8281 F       1  UNL1       -0.1696
     21 F           2.9191   -1.1537   18.7887 F       1  UNL1       -0.1696
     22 F           3.6933   -2.6290   21.2835 F       1  UNL1       -0.1696
     23 C           7.3562   -2.1494   25.4331 C.3     1  UNL1        0.0516
     24 CA          6.2871   -2.7607   26.2895 C.3     1  UNL1        0.1102
     25 O           5.8479   -1.3538   28.4290 O.co2   1  UNL1       -0.5475
     26 C           5.3846   -1.8817   27.1037 C.2     1  UNL1        0.0684
     27 OXT         4.0188   -1.5308   26.5925 O.co2   1  UNL1       -0.5475
     28 N           6.1206   -4.2508   26.3316 N.pl3   1  UNL1       -0.3320
     29 H           5.4010   -4.6805   25.8151 H       1  UNL1        0.1468
     30 C           7.0506   -5.0862   27.1605 C.2     1  UNL1        0.0372
     31 C           7.3808   -5.1738   28.6212 C.2     1  UNL1        0.0788
     32 BR          6.9177   -4.4622   29.8578 Br      1  UNL1       -0.0451
     33 C           8.3657   -6.2677   28.3330 C.2     1  UNL1        0.1842
     34 O           9.2957   -7.1031   29.1619 O.2     1  UNL1       -0.2904
     35 C           8.0355   -6.1801   26.8723 C.3     1  UNL1        0.0874
     36 C           9.0725   -7.2595   26.9720 C.3     1  UNL1        0.0126
     37 C           9.5355   -7.9711   25.7354 C.3     1  UNL1        0.0008
     38 C           8.9617   -7.6034   24.3991 C.3     1  UNL1        0.0000
     39 C           7.9248   -6.5241   24.2995 C.3     1  UNL1        0.0008
     40 C           7.4617   -5.8125   25.5361 C.3     1  UNL1        0.0126
@<TRIPOS>UNITY_ATOM_ATTR
25 1
charge -1
@<TRIPOS>BOND
     1    25    26   ar
     2    26    27   ar
     3    26    24    1
     4    24    23    1
     5    23     1    1
     6     1     2   ar
     7     2     3   ar
     8     3     4   ar
     9     4     7    1
    10     7     8   ar
    11     8    16    1
    12    16    19    1
    13    19    20    1
    14    19    21    1
    15    19    22    1
    16    16    17    1
    17    17    18    1
    18     8     9   ar
    19     9    10   ar
    20    10    11   ar
    21    11    12   ar
    22    12    13   ar
    23    13    14   ar
    24    14    15   ar
    25     4     5   ar
    26     5     6   ar
    27    24    28    1
    28    28    30    1
    29    30    31    2
    30    31    32    1
    31    31    33    1
    32    33    34    2
    33    33    35    1
    34    35    36    1
    35    36    37    1
    36    37    38    1
    37    38    39    1
    38    39    40    1
    39     6     1   ar
    40    35    30    1
    41    15     7   ar
    42    40    35    1
    43    18    16    1
    44    15    10   ar
    45    28    29    1
@<TRIPOS>MOLECULE
*****
 40 45 0 0 0
SMALL
GASTEIGER

@<TRIPOS>ATOM
      1 C           8.0142   -3.9701   23.5552 C.ar    1  UNL1       -0.0201
      2 C           7.4201   -2.5959   23.6470 C.ar    1  UNL1       -0.0027
      3 C           6.9502   -1.8975   22.4055 C.ar    1  UNL1        0.0173
      4 C           7.0744   -2.5733   21.0720 C.ar    1  UNL1        0.0664
      5 C           7.6685   -3.9475   20.9803 C.ar    1  UNL1        0.0173
      6 C           8.1384   -4.6460   22.2219 C.ar    1  UNL1       -0.0027
      7 N           6.6045   -1.8749   19.8305 N.ar    1  UNL1       -0.2787
      8 C           5.3294   -2.1534   19.0912 C.ar    1  UNL1        0.1325
      9 N           5.2641   -1.2259   17.9141 N.ar    1  UNL1       -0.2287
     10 C           6.4988   -0.3743   17.9259 C.ar    1  UNL1        0.1170
     11 C           6.9758    0.7146   17.0112 C.ar    1  UNL1        0.0238
     12 C           8.2812    1.4024   17.2809 C.ar    1  UNL1        0.0223
     13 C           9.1097    1.0013   18.4653 C.ar    1  UNL1        0.1006
     14 N           8.6327   -0.0876   19.3800 N.ar    1  UNL1       -0.2248
     15 C           7.3273   -0.7754   19.1103 C.ar    1  UNL1        0.1663
     16 C           4.3003   -3.1792   19.4636 C.3     1  UNL1        0.1381
     17 C           3.5609   -4.4836   19.5046 C.3     1  UNL1        0.0161
     18 C           4.7769   -4.3377   18.6386 C.3     1  UNL1        0.0161
     19 C           3.4663   -2.3769   20.4180 C.3     1  UNL1        0.4034
     20 F           2.6323   -1.5747   21.3724 F       1  UNL1       -0.1696
     21 F           2.8811   -1.6150   19.2661 F       1  UNL1       -0.1696
     22 F           4.0515   -3.1389   21.5699 F       1  UNL1       -0.1696
     23 C           8.4841   -4.6686   24.7967 C.3     1  UNL1        0.0516
     24 CA          7.5962   -5.6683   25.4766 C.3     1  UNL1        0.1102
     25 O           8.6346   -7.5782   24.0540 O.co2   1  UNL1       -0.5475
     26 C           7.7441   -7.1302   25.1748 C.2     1  UNL1        0.0684
     27 OXT         7.0015   -8.1439   25.9939 O.co2   1  UNL1       -0.5475
     28 N           6.5604   -5.2061   26.4581 N.pl3   1  UNL1       -0.3320
     29 H           5.6288   -5.0772   26.1667 H       1  UNL1        0.1468
     30 C           6.9438   -4.9402   27.8837 C.2     1  UNL1        0.0372
     31 C           7.7541   -5.6652   28.9170 C.2     1  UNL1        0.0788
     32 BR          8.5166   -6.9565   28.9528 Br      1  UNL1       -0.0451
     33 C           7.4862   -4.5642   29.8997 C.2     1  UNL1        0.1842
     34 O           7.8696   -4.2983   31.3253 O.2     1  UNL1       -0.2904
     35 C           6.6758   -3.8391   28.8664 C.3     1  UNL1        0.0874
     36 C           6.6268   -2.9632   30.0832 C.3     1  UNL1        0.0126
     37 C           5.8643   -1.6720   30.0474 C.3     1  UNL1        0.0008
     38 C           5.1509   -1.2565   28.7949 C.3     1  UNL1        0.0000
     39 C           5.2001   -2.1324   27.5782 C.3     1  UNL1        0.0008
     40 C           5.9625   -3.4237   27.6140 C.3     1  UNL1        0.0126
@<TRIPOS>UNITY_ATOM_ATTR
25 1
charge -1
@<TRIPOS>BOND
     1    25    26   ar
     2    26    27   ar
     3    26    24    1
     4    24    23    1
     5    23     1    1
     6     1     2   ar
     7     2     3   ar
     8     3     4   ar
     9     4     7    1
    10     7     8   ar
    11     8    16    1
    12    16    19    1
    13    19    20    1
    14    19    21    1
    15    19    22    1
    16    16    17    1
    17    17    18    1
    18     8     9   ar
    19     9    10   ar
    20    10    11   ar
    21    11    12   ar
    22    12    13   ar
    23    13    14   ar
    24    14    15   ar
    25     4     5   ar
    26     5     6   ar
    27    24    28    1
    28    28    30    1
    29    30    31    2
    30    31    32    1
    31    31    33    1
    32    33    34    2
    33    33    35    1
    34    35    36    1
    35    36    37    1
    36    37    38    1
    37    38    39    1
    38    39    40    1
    39     6     1   ar
    40    35    30    1
    41    15     7   ar
    42    40    35    1
    43    18    16    1
    44    15    10   ar
    45    28    29    1
@<TRIPOS>MOLECULE
*****
 40 45 0 0 0
SMALL
GASTEIGER

@<TRIPOS>ATOM
      1 C           3.3663    0.8594   22.1150 C.ar    1  UNL1       -0.0201
      2 C           2.8208   -0.4883   21.7461 C.ar    1  UNL1       -0.0027
      3 C           3.7026   -1.6997   21.8177 C.ar    1  UNL1        0.0173
      4 C           5.1301   -1.5632   22.2581 C.ar    1  UNL1        0.0664
      5 C           5.6756   -0.2156   22.6270 C.ar    1  UNL1        0.0173
      6 C           4.7937    0.9957   22.5554 C.ar    1  UNL1       -0.0027
      7 N           6.0119   -2.7745   22.3297 N.ar    1  UNL1       -0.2787
      8 C           6.6229   -3.4905   21.1617 C.ar    1  UNL1        0.1325
      9 N           7.4262   -4.6410   21.6920 N.ar    1  UNL1       -0.2287
     10 C           7.3116   -4.6360   23.1876 C.ar    1  UNL1        0.1170
     11 C           7.8903   -5.5329   24.2415 C.ar    1  UNL1        0.0238
     12 C           7.5949   -5.2762   25.6895 C.ar    1  UNL1        0.0223
     13 C           6.7209   -4.1226   26.0836 C.ar    1  UNL1        0.1006
     14 N           6.1422   -3.2258   25.0297 N.ar    1  UNL1       -0.2248
     15 C           6.4376   -3.4825   23.5817 C.ar    1  UNL1        0.1663
     16 C           6.4593   -3.1210   19.7172 C.3     1  UNL1        0.1381
     17 C           5.9045   -3.0914   18.3240 C.3     1  UNL1        0.0161
     18 C           5.2758   -3.9718   19.3630 C.3     1  UNL1        0.0161
     19 C           7.5860   -2.1418   19.5696 C.3     1  UNL1        0.4034
     20 F           8.7128   -1.1627   19.4221 F       1  UNL1       -0.1696
     21 F           6.6180   -1.0056   19.7176 F       1  UNL1       -0.1696
     22 F           8.5541   -3.2780   19.4217 F       1  UNL1       -0.1696
     23 C           2.4845    2.0707   22.0435 C.3     1  UNL1        0.0516
     24 CA          2.5549    2.9803   20.8529 C.3     1  UNL1        0.1102
     25 O           1.4448    5.2452   21.4758 O.co2   1  UNL1       -0.5475
     26 C           1.4847    4.0075   20.6296 C.2     1  UNL1        0.0684
     27 OXT         0.4545    3.7966   19.5599 O.co2   1  UNL1       -0.5475
     28 N           3.6954    2.8629   19.8857 N.pl3   1  UNL1       -0.3320
     29 H           4.4349    3.5121   19.9155 H       1  UNL1        0.1468
     30 C           3.7092    1.7563   18.8732 C.2     1  UNL1        0.0372
     31 C           2.6798    0.8230   18.3079 C.2     1  UNL1        0.0788
     32 BR          1.2105    0.6097   18.5210 Br      1  UNL1       -0.0451
     33 C           3.7285    0.1913   17.4412 C.2     1  UNL1        0.1842
     34 O           3.7423   -0.9153   16.4287 O.2     1  UNL1       -0.2904
     35 C           4.7579    1.1247   18.0065 C.3     1  UNL1        0.0874
     36 C           5.5044    0.2729   17.0230 C.3     1  UNL1        0.0126
     37 C           6.9738    0.4862   16.8099 C.3     1  UNL1        0.0008
     38 C           7.6967    1.5512   17.5802 C.3     1  UNL1        0.0000
     39 C           6.9501    2.4029   18.5637 C.3     1  UNL1        0.0008
     40 C           5.4807    2.1896   18.7768 C.3     1  UNL1        0.0126
@<TRIPOS>UNITY_ATOM_ATTR
25 1
charge -1
@<TRIPOS>BOND
     1    25    26   ar
     2    26    27   ar
     3    26    24    1
     4    24    23    1
     5    23     1    1
     6     1     2   ar
     7     2     3   ar
     8     3     4   ar
     9     4     7    1
    10     7     8   ar
    11     8    16    1
    12    16    19    1
    13    19    20    1
    14    19    21    1
    15    19    22    1
    16    16    17    1
    17    17    18    1
    18     8     9   ar
    19     9    10   ar
    20    10    11   ar
    21    11    12   ar
    22    12    13   ar
    23    13    14   ar
    24    14    15   ar
    25     4     5   ar
    26     5     6   ar
    27    24    28    1
    28    28    30    1
    29    30    31    2
    30    31    32    1
    31    31    33    1
    32    33    34    2
    33    33    35    1
    34    35    36    1
    35    36    37    1
    36    37    38    1
    37    38    39    1
    38    39    40    1
    39     6     1   ar
    40    35    30    1
    41    15     7   ar
    42    40    35    1
    43    18    16    1
    44    15    10   ar
    45    28    29    1
