@<TRIPOS>MOLECULE
*****
 29 32 0 0 0
SMALL
GASTEIGER

@<TRIPOS>ATOM
      1 C          -8.8395  -20.1612   19.2570 C.ar    1  UNL1        0.1375
      2 C         -10.1781  -19.4884   19.1834 C.ar    1  UNL1        0.0558
      3 C         -10.4542  -18.2742   20.0198 C.ar    1  UNL1        0.0887
      4 N         -11.7928  -17.6014   19.9462 N.ar    1  UNL1       -0.2238
      5 C         -12.0689  -16.3872   20.7825 C.ar    1  UNL1        0.2000
      6 N         -11.0064  -15.8458   21.6925 N.ar    1  UNL1       -0.2089
      7 C          -9.6678  -16.5186   21.7661 C.ar    1  UNL1        0.1353
      8 C          -9.3917  -17.7328   20.9297 C.ar    1  UNL1        0.0493
      9 C          -8.0531  -18.4056   21.0033 C.ar    1  UNL1        0.0044
     10 C          -7.7770  -19.6198   20.1669 C.ar    1  UNL1        0.0280
     11 C          -9.1955  -21.5136   17.0673 C.3     1  UNL1        0.2525
     12 O          -8.5633  -21.3754   18.4206 O.3     1  UNL1       -0.4717
     13 N          -8.6053  -15.9772   22.6760 N.pl3   1  UNL1       -0.2961
     14 H          -7.9024  -15.3891   22.3167 H       1  UNL1        0.1537
     15 C          -8.6139  -16.3320   24.1334 C.ar    1  UNL1        0.0780
     16 C          -9.4818  -17.4511   24.6278 C.ar    1  UNL1        0.0170
     17 C          -9.4904  -17.8059   26.0852 C.ar    1  UNL1        0.0023
     18 C          -8.6310  -17.0416   27.0482 C.ar    1  UNL1        0.0138
     19 C          -7.7631  -15.9225   26.5539 C.ar    1  UNL1        0.0863
     20 CL         -6.9038  -15.1583   27.5169 Cl      1  UNL1       -0.0799
     21 C          -7.7545  -15.5677   25.0964 C.ar    1  UNL1        0.1639
     22 F          -6.8866  -14.4487   24.6020 F       1  UNL1       -0.2020
     23 C          -6.4383  -20.2927   20.2405 C.3     1  UNL1        0.1023
     24 N          -5.2457  -19.5366   20.7466 N.3     1  UNL1       -0.2646
     25 C          -4.2246  -19.0128   19.7807 C.3     1  UNL1        0.1049
     26 C          -3.0320  -18.2568   20.2869 C.3     1  UNL1        0.1595
     27 O          -2.8606  -18.0246   21.7589 O.3     1  UNL1       -0.3508
     28 C          -3.8817  -18.5484   22.7247 C.3     1  UNL1        0.1595
     29 C          -5.0743  -19.3044   22.2186 C.3     1  UNL1        0.1049
@<TRIPOS>BOND
     1    11    12    1
     2    12     1    1
     3     1     2   ar
     4     2     3   ar
     5     3     4   ar
     6     4     5   ar
     7     5     6   ar
     8     6     7   ar
     9     7    13    1
    10    13    15    1
    11    15    16   ar
    12    16    17   ar
    13    17    18   ar
    14    18    19   ar
    15    19    20    1
    16    19    21   ar
    17    21    22    1
    18     7     8   ar
    19     8     9   ar
    20     9    10   ar
    21    10    23    1
    22    23    24    1
    23    24    25    1
    24    25    26    1
    25    26    27    1
    26    27    28    1
    27    28    29    1
    28    10     1   ar
    29    29    24    1
    30     8     3   ar
    31    21    15   ar
    32    13    14    1
@<TRIPOS>MOLECULE
*****
 29 32 0 0 0
SMALL
GASTEIGER

@<TRIPOS>ATOM
      1 C          -6.7426  -19.9635   21.3878 C.ar    1  UNL1        0.1375
      2 C          -8.1691  -19.7423   20.9802 C.ar    1  UNL1        0.0558
      3 C          -8.8251  -18.4175   21.2347 C.ar    1  UNL1        0.0887
      4 N         -10.2515  -18.1963   20.8271 N.ar    1  UNL1       -0.2238
      5 C         -10.9074  -16.8716   21.0815 C.ar    1  UNL1        0.2000
      6 N         -10.1368  -15.7680   21.7436 N.ar    1  UNL1       -0.2089
      7 C          -8.7104  -15.9892   22.1512 C.ar    1  UNL1        0.1353
      8 C          -8.0545  -17.3140   21.8968 C.ar    1  UNL1        0.0493
      9 C          -6.6279  -17.5352   22.3044 C.ar    1  UNL1        0.0044
     10 C          -5.9720  -18.8599   22.0499 C.ar    1  UNL1        0.0280
     11 C          -5.3105  -21.5103   19.8691 C.3     1  UNL1        0.2525
     12 O          -6.0866  -21.2883   21.1334 O.3     1  UNL1       -0.4717
     13 N          -7.9398  -14.8857   22.8133 N.pl3   1  UNL1       -0.2961
     14 H          -7.8179  -14.0247   22.3516 H       1  UNL1        0.1537
     15 C          -7.3549  -15.0938   24.1788 C.ar    1  UNL1        0.0780
     16 C          -5.8718  -14.9977   24.3821 C.ar    1  UNL1        0.0170
     17 C          -5.2870  -15.2059   25.7476 C.ar    1  UNL1        0.0023
     18 C          -6.1851  -15.5102   26.9098 C.ar    1  UNL1        0.0138
     19 C          -7.6682  -15.6063   26.7065 C.ar    1  UNL1        0.0863
     20 CL         -8.5663  -15.9106   27.8687 Cl      1  UNL1       -0.0799
     21 C          -8.2531  -15.3981   25.3410 C.ar    1  UNL1        0.1639
     22 F          -9.7361  -15.4942   25.1377 F       1  UNL1       -0.2020
     23 C          -4.5455  -19.0812   22.4575 C.3     1  UNL1        0.1023
     24 N          -3.4443  -18.3265   21.7734 N.3     1  UNL1       -0.2646
     25 C          -2.8542  -18.8525   20.4985 C.3     1  UNL1        0.1049
     26 C          -1.7531  -18.0978   19.8144 C.3     1  UNL1        0.1595
     27 O          -1.2421  -16.8172   20.4052 O.3     1  UNL1       -0.3508
     28 C          -1.8322  -16.2913   21.6800 C.3     1  UNL1        0.1595
     29 C          -2.9333  -17.0459   22.3641 C.3     1  UNL1        0.1049
@<TRIPOS>BOND
     1    11    12    1
     2    12     1    1
     3     1     2   ar
     4     2     3   ar
     5     3     4   ar
     6     4     5   ar
     7     5     6   ar
     8     6     7   ar
     9     7    13    1
    10    13    15    1
    11    15    16   ar
    12    16    17   ar
    13    17    18   ar
    14    18    19   ar
    15    19    20    1
    16    19    21   ar
    17    21    22    1
    18     7     8   ar
    19     8     9   ar
    20     9    10   ar
    21    10    23    1
    22    23    24    1
    23    24    25    1
    24    25    26    1
    25    26    27    1
    26    27    28    1
    27    28    29    1
    28    10     1   ar
    29    29    24    1
    30     8     3   ar
    31    21    15   ar
    32    13    14    1
@<TRIPOS>MOLECULE
*****
 29 32 0 0 0
SMALL
GASTEIGER

@<TRIPOS>ATOM
      1 C          -3.9010  -17.0633   22.9590 C.ar    1  UNL1        0.1375
      2 C          -4.5750  -16.0188   23.7984 C.ar    1  UNL1        0.0558
      3 C          -6.0565  -16.0802   24.0255 C.ar    1  UNL1        0.0887
      4 N          -6.7305  -15.0356   24.8649 N.ar    1  UNL1       -0.2238
      5 C          -8.2119  -15.0971   25.0920 C.ar    1  UNL1        0.2000
      6 N          -9.0193  -16.2031   24.4797 N.ar    1  UNL1       -0.2089
      7 C          -8.3453  -17.2476   23.6404 C.ar    1  UNL1        0.1353
      8 C          -6.8639  -17.1862   23.4133 C.ar    1  UNL1        0.0493
      9 C          -6.1898  -18.2308   22.5738 C.ar    1  UNL1        0.0044
     10 C          -4.7084  -18.1693   22.3467 C.ar    1  UNL1        0.0280
     11 C          -1.8404  -15.9412   21.8434 C.3     1  UNL1        0.2525
     12 O          -2.4195  -17.0019   22.7319 O.3     1  UNL1       -0.4717
     13 N          -9.1527  -18.3536   23.0281 N.pl3   1  UNL1       -0.2961
     14 H          -8.7514  -19.2435   22.9003 H       1  UNL1        0.1537
     15 C         -10.5716  -18.1038   22.6105 C.ar    1  UNL1        0.0780
     16 C         -10.8805  -17.7266   21.1919 C.ar    1  UNL1        0.0170
     17 C         -12.2994  -17.4768   20.7743 C.ar    1  UNL1        0.0023
     18 C         -13.4093  -17.6042   21.7752 C.ar    1  UNL1        0.0138
     19 C         -13.1004  -17.9814   23.1937 C.ar    1  UNL1        0.0863
     20 CL        -14.2103  -18.1089   24.1946 Cl      1  UNL1       -0.0799
     21 C         -11.6815  -18.2313   23.6114 C.ar    1  UNL1        0.1639
     22 F         -11.3726  -18.6085   25.0299 F       1  UNL1       -0.2020
     23 C          -4.0344  -19.2139   21.5073 C.3     1  UNL1        0.1023
     24 N          -2.9757  -18.8159   20.5220 N.3     1  UNL1       -0.2646
     25 C          -3.3521  -18.0648   19.2793 C.3     1  UNL1        0.1049
     26 C          -2.2935  -17.6668   18.2939 C.3     1  UNL1        0.1595
     27 O          -0.8585  -18.0199   18.5513 O.3     1  UNL1       -0.3508
     28 C          -0.4822  -18.7711   19.7939 C.3     1  UNL1        0.1595
     29 C          -1.5408  -19.1690   20.7793 C.3     1  UNL1        0.1049
@<TRIPOS>BOND
     1    11    12    1
     2    12     1    1
     3     1     2   ar
     4     2     3   ar
     5     3     4   ar
     6     4     5   ar
     7     5     6   ar
     8     6     7   ar
     9     7    13    1
    10    13    15    1
    11    15    16   ar
    12    16    17   ar
    13    17    18   ar
    14    18    19   ar
    15    19    20    1
    16    19    21   ar
    17    21    22    1
    18     7     8   ar
    19     8     9   ar
    20     9    10   ar
    21    10    23    1
    22    23    24    1
    23    24    25    1
    24    25    26    1
    25    26    27    1
    26    27    28    1
    27    28    29    1
    28    10     1   ar
    29    29    24    1
    30     8     3   ar
    31    21    15   ar
    32    13    14    1
@<TRIPOS>MOLECULE
*****
 29 32 0 0 0
SMALL
GASTEIGER

@<TRIPOS>ATOM
      1 C          -3.3723  -17.3210   22.2696 C.ar    1  UNL1        0.1375
      2 C          -3.3101  -18.5054   21.3512 C.ar    1  UNL1        0.0558
      3 C          -4.5123  -19.3862   21.1807 C.ar    1  UNL1        0.0887
      4 N          -4.4502  -20.5705   20.2624 N.ar    1  UNL1       -0.2238
      5 C          -5.6523  -21.4512   20.0919 C.ar    1  UNL1        0.2000
      6 N          -6.9166  -21.1476   20.8399 N.ar    1  UNL1       -0.2089
      7 C          -6.9788  -19.9633   21.7582 C.ar    1  UNL1        0.1353
      8 C          -5.7766  -19.0826   21.9287 C.ar    1  UNL1        0.0493
      9 C          -5.8387  -17.8981   22.8471 C.ar    1  UNL1        0.0044
     10 C          -4.6365  -17.0174   23.0175 C.ar    1  UNL1        0.0280
     11 C          -1.2485  -16.1967   21.2819 C.3     1  UNL1        0.2525
     12 O          -2.1701  -16.4402   22.4401 O.3     1  UNL1       -0.4717
     13 N          -8.2431  -19.6597   22.5062 N.pl3   1  UNL1       -0.2961
     14 H          -8.3354  -19.9319   23.4478 H       1  UNL1        0.1537
     15 C          -9.3666  -18.9413   21.8195 C.ar    1  UNL1        0.0780
     16 C          -9.6110  -19.1570   20.3553 C.ar    1  UNL1        0.0170
     17 C         -10.7345  -18.4386   19.6686 C.ar    1  UNL1        0.0023
     18 C         -11.6137  -17.5045   20.4461 C.ar    1  UNL1        0.0138
     19 C         -11.3694  -17.2888   21.9102 C.ar    1  UNL1        0.0863
     20 CL        -12.2485  -16.3546   22.6877 Cl      1  UNL1       -0.0799
     21 C         -10.2458  -18.0072   22.5970 C.ar    1  UNL1        0.1639
     22 F         -10.0014  -17.7914   24.0611 F       1  UNL1       -0.2020
     23 C          -4.6986  -15.8330   23.9359 C.3     1  UNL1        0.1023
     24 N          -5.8804  -15.6468   24.8408 N.3     1  UNL1       -0.2646
     25 C          -7.2379  -15.3873   24.2578 C.3     1  UNL1        0.1049
     26 C          -8.4197  -15.2011   25.1627 C.3     1  UNL1        0.1595
     27 O          -8.2438  -15.2743   26.6506 O.3     1  UNL1       -0.3508
     28 C          -6.8863  -15.5337   27.2335 C.3     1  UNL1        0.1595
     29 C          -5.7046  -15.7200   26.3287 C.3     1  UNL1        0.1049
@<TRIPOS>BOND
     1    11    12    1
     2    12     1    1
     3     1     2   ar
     4     2     3   ar
     5     3     4   ar
     6     4     5   ar
     7     5     6   ar
     8     6     7   ar
     9     7    13    1
    10    13    15    1
    11    15    16   ar
    12    16    17   ar
    13    17    18   ar
    14    18    19   ar
    15    19    20    1
    16    19    21   ar
    17    21    22    1
    18     7     8   ar
    19     8     9   ar
    20     9    10   ar
    21    10    23    1
    22    23    24    1
    23    24    25    1
    24    25    26    1
    25    26    27    1
    26    27    28    1
    27    28    29    1
    28    10     1   ar
    29    29    24    1
    30     8     3   ar
    31    21    15   ar
    32    13    14    1
@<TRIPOS>MOLECULE
*****
 29 32 0 0 0
SMALL
GASTEIGER

@<TRIPOS>ATOM
      1 C          -8.9957  -19.5273   19.5098 C.ar    1  UNL1        0.1375
      2 C         -10.3577  -18.9208   19.6740 C.ar    1  UNL1        0.0558
      3 C         -10.8607  -18.5655   21.0418 C.ar    1  UNL1        0.0887
      4 N         -12.2227  -17.9591   21.2060 N.ar    1  UNL1       -0.2238
      5 C         -12.7255  -17.6038   22.5738 C.ar    1  UNL1        0.2000
      6 N         -11.8663  -17.8550   23.7774 N.ar    1  UNL1       -0.2089
      7 C         -10.5043  -18.4614   23.6132 C.ar    1  UNL1        0.1353
      8 C         -10.0015  -18.8167   22.2454 C.ar    1  UNL1        0.0493
      9 C          -8.6393  -19.4232   22.0812 C.ar    1  UNL1        0.0044
     10 C          -8.1365  -19.7785   20.7134 C.ar    1  UNL1        0.0280
     11 C          -8.8591  -21.2009   17.5273 C.3     1  UNL1        0.2525
     12 O          -8.4928  -19.8826   18.1420 O.3     1  UNL1       -0.4717
     13 N          -9.6451  -18.7126   24.8168 N.pl3   1  UNL1       -0.2961
     14 H          -9.5646  -19.6230   25.1829 H       1  UNL1        0.1537
     15 C          -8.9085  -17.5768   25.4628 C.ar    1  UNL1        0.0780
     16 C          -9.1169  -17.2788   26.9181 C.ar    1  UNL1        0.0170
     17 C          -8.3803  -16.1429   27.5640 C.ar    1  UNL1        0.0023
     18 C          -7.4353  -15.3051   26.7547 C.ar    1  UNL1        0.0138
     19 C          -7.2269  -15.6030   25.2994 C.ar    1  UNL1        0.0863
     20 CL         -6.2819  -14.7652   24.4901 Cl      1  UNL1       -0.0799
     21 C          -7.9635  -16.7389   24.6534 C.ar    1  UNL1        0.1639
     22 F          -7.7551  -17.0369   23.1982 F       1  UNL1       -0.2020
     23 C          -6.7744  -20.3850   20.5492 C.3     1  UNL1        0.1023
     24 N          -5.5496  -19.5634   20.8232 N.3     1  UNL1       -0.2646
     25 C          -5.2521  -19.1033   22.2196 C.3     1  UNL1        0.1049
     26 C          -4.0273  -18.2818   22.4936 C.3     1  UNL1        0.1595
     27 O          -3.1001  -17.9204   21.3712 O.3     1  UNL1       -0.3508
     28 C          -3.3977  -18.3804   19.9749 C.3     1  UNL1        0.1595
     29 C          -4.6225  -19.2020   19.7009 C.3     1  UNL1        0.1049
@<TRIPOS>BOND
     1    11    12    1
     2    12     1    1
     3     1     2   ar
     4     2     3   ar
     5     3     4   ar
     6     4     5   ar
     7     5     6   ar
     8     6     7   ar
     9     7    13    1
    10    13    15    1
    11    15    16   ar
    12    16    17   ar
    13    17    18   ar
    14    18    19   ar
    15    19    20    1
    16    19    21   ar
    17    21    22    1
    18     7     8   ar
    19     8     9   ar
    20     9    10   ar
    21    10    23    1
    22    23    24    1
    23    24    25    1
    24    25    26    1
    25    26    27    1
    26    27    28    1
    27    28    29    1
    28    10     1   ar
    29    29    24    1
    30     8     3   ar
    31    21    15   ar
    32    13    14    1
@<TRIPOS>MOLECULE
*****
 29 32 0 0 0
SMALL
GASTEIGER

@<TRIPOS>ATOM
      1 C          -4.0935  -18.1910   22.6553 C.ar    1  UNL1        0.1375
      2 C          -4.2843  -19.3223   21.6891 C.ar    1  UNL1        0.0558
      3 C          -5.6327  -19.5690   21.0798 C.ar    1  UNL1        0.0887
      4 N          -5.8235  -20.7004   20.1136 N.ar    1  UNL1       -0.2238
      5 C          -7.1718  -20.9470   19.5044 C.ar    1  UNL1        0.2000
      6 N          -8.3293  -20.0623   19.8614 N.ar    1  UNL1       -0.2089
      7 C          -8.1385  -18.9310   20.8276 C.ar    1  UNL1        0.1353
      8 C          -6.7902  -18.6843   21.4368 C.ar    1  UNL1        0.0493
      9 C          -6.5993  -17.5529   22.4030 C.ar    1  UNL1        0.0044
     10 C          -5.2510  -17.3063   23.0122 C.ar    1  UNL1        0.0280
     11 C          -1.5031  -18.1771   22.4564 C.3     1  UNL1        0.2525
     12 O          -2.7451  -17.9443   23.2645 O.3     1  UNL1       -0.4717
     13 N          -9.2960  -18.0463   21.1846 N.pl3   1  UNL1       -0.2961
     14 H          -9.5096  -17.2652   20.6247 H       1  UNL1        0.1537
     15 C         -10.1282  -18.3517   22.3946 C.ar    1  UNL1        0.0780
     16 C          -9.5151  -19.0571   23.5679 C.ar    1  UNL1        0.0170
     17 C         -10.3472  -19.3625   24.7779 C.ar    1  UNL1        0.0023
     18 C         -11.7924  -18.9625   24.8148 C.ar    1  UNL1        0.0138
     19 C         -12.4055  -18.2570   23.6416 C.ar    1  UNL1        0.0863
     20 CL        -13.8507  -17.8569   23.6784 Cl      1  UNL1       -0.0799
     21 C         -11.5733  -17.9516   22.4315 C.ar    1  UNL1        0.1639
     22 F         -12.1864  -17.2461   21.2583 F       1  UNL1       -0.2020
     23 C          -5.0602  -16.1748   23.9785 C.3     1  UNL1        0.1023
     24 N          -6.1367  -15.8454   24.9697 N.3     1  UNL1       -0.2646
     25 C          -7.5594  -15.7089   24.5142 C.3     1  UNL1        0.1049
     26 C          -8.6360  -15.3795   25.5054 C.3     1  UNL1        0.1595
     27 O          -8.2899  -15.1866   26.9522 O.3     1  UNL1       -0.3508
     28 C          -6.8673  -15.3232   27.4076 C.3     1  UNL1        0.1595
     29 C          -5.7907  -15.6526   26.4164 C.3     1  UNL1        0.1049
@<TRIPOS>BOND
     1    11    12    1
     2    12     1    1
     3     1     2   ar
     4     2     3   ar
     5     3     4   ar
     6     4     5   ar
     7     5     6   ar
     8     6     7   ar
     9     7    13    1
    10    13    15    1
    11    15    16   ar
    12    16    17   ar
    13    17    18   ar
    14    18    19   ar
    15    19    20    1
    16    19    21   ar
    17    21    22    1
    18     7     8   ar
    19     8     9   ar
    20     9    10   ar
    21    10    23    1
    22    23    24    1
    23    24    25    1
    24    25    26    1
    25    26    27    1
    26    27    28    1
    27    28    29    1
    28    10     1   ar
    29    29    24    1
    30     8     3   ar
    31    21    15   ar
    32    13    14    1
@<TRIPOS>MOLECULE
*****
 29 32 0 0 0
SMALL
GASTEIGER

@<TRIPOS>ATOM
      1 C          -4.1470  -17.0805   23.0202 C.ar    1  UNL1        0.1375
      2 C          -4.7981  -16.0234   23.8620 C.ar    1  UNL1        0.0558
      3 C          -6.2679  -16.0960   24.1529 C.ar    1  UNL1        0.0887
      4 N          -6.9189  -15.0388   24.9947 N.ar    1  UNL1       -0.2238
      5 C          -8.3886  -15.1115   25.2856 C.ar    1  UNL1        0.2000
      6 N          -9.2073  -16.2412   24.7347 N.ar    1  UNL1       -0.2089
      7 C          -8.5562  -17.2983   23.8929 C.ar    1  UNL1        0.1353
      8 C          -7.0865  -17.2257   23.6020 C.ar    1  UNL1        0.0493
      9 C          -6.4354  -18.2829   22.7602 C.ar    1  UNL1        0.0044
     10 C          -4.9657  -18.2102   22.4693 C.ar    1  UNL1        0.0280
     11 C          -2.1352  -15.8986   21.8774 C.3     1  UNL1        0.2525
     12 O          -2.6773  -17.0079   22.7293 O.3     1  UNL1       -0.4717
     13 N          -9.3749  -18.4281   23.3420 N.pl3   1  UNL1       -0.2961
     14 H          -9.5429  -19.2277   23.8912 H       1  UNL1        0.1537
     15 C          -9.9376  -18.3395   21.9544 C.ar    1  UNL1        0.0780
     16 C          -9.6285  -19.4099   20.9500 C.ar    1  UNL1        0.0170
     17 C         -10.1912  -19.3213   19.5624 C.ar    1  UNL1        0.0023
     18 C         -11.0630  -18.1624   19.1792 C.ar    1  UNL1        0.0138
     19 C         -11.3721  -17.0921   20.1835 C.ar    1  UNL1        0.0863
     20 CL        -12.2439  -15.9332   19.8003 Cl      1  UNL1       -0.0799
     21 C         -10.8094  -17.1806   21.5712 C.ar    1  UNL1        0.1639
     22 F         -11.1185  -16.1103   22.5756 F       1  UNL1       -0.2020
     23 C          -4.3146  -19.2674   21.6275 C.3     1  UNL1        0.1023
     24 N          -3.2417  -18.8915   20.6489 N.3     1  UNL1       -0.2646
     25 C          -1.8126  -19.2525   20.9274 C.3     1  UNL1        0.1049
     26 C          -0.7398  -18.8767   19.9488 C.3     1  UNL1        0.1595
     27 O          -1.0960  -18.1398   18.6917 O.3     1  UNL1       -0.3508
     28 C          -2.5250  -17.7788   18.4133 C.3     1  UNL1        0.1595
     29 C          -3.5979  -18.1546   19.3919 C.3     1  UNL1        0.1049
@<TRIPOS>BOND
     1    11    12    1
     2    12     1    1
     3     1     2   ar
     4     2     3   ar
     5     3     4   ar
     6     4     5   ar
     7     5     6   ar
     8     6     7   ar
     9     7    13    1
    10    13    15    1
    11    15    16   ar
    12    16    17   ar
    13    17    18   ar
    14    18    19   ar
    15    19    20    1
    16    19    21   ar
    17    21    22    1
    18     7     8   ar
    19     8     9   ar
    20     9    10   ar
    21    10    23    1
    22    23    24    1
    23    24    25    1
    24    25    26    1
    25    26    27    1
    26    27    28    1
    27    28    29    1
    28    10     1   ar
    29    29    24    1
    30     8     3   ar
    31    21    15   ar
    32    13    14    1
@<TRIPOS>MOLECULE
*****
 29 32 0 0 0
SMALL
GASTEIGER

@<TRIPOS>ATOM
      1 C          -5.3504  -16.0071   24.2669 C.ar    1  UNL1        0.1375
      2 C          -4.0922  -16.7607   23.9523 C.ar    1  UNL1        0.0558
      3 C          -4.1095  -17.8537   22.9251 C.ar    1  UNL1        0.0887
      4 N          -2.8513  -18.6073   22.6105 N.ar    1  UNL1       -0.2238
      5 C          -2.8687  -19.7002   21.5833 C.ar    1  UNL1        0.2000
      6 N          -4.1442  -20.0397   20.8708 N.ar    1  UNL1       -0.2089
      7 C          -5.4025  -19.2861   21.1854 C.ar    1  UNL1        0.1353
      8 C          -5.3851  -18.1931   22.2126 C.ar    1  UNL1        0.0493
      9 C          -6.6434  -17.4395   22.5272 C.ar    1  UNL1        0.0044
     10 C          -6.6260  -16.3466   23.5544 C.ar    1  UNL1        0.0280
     11 C          -5.8883  -15.1643   26.6649 C.3     1  UNL1        0.2525
     12 O          -5.3331  -14.9141   25.2941 O.3     1  UNL1       -0.4717
     13 N          -6.6780  -19.6255   20.4729 N.pl3   1  UNL1       -0.2961
     14 H          -6.6787  -19.7479   19.4960 H       1  UNL1        0.1537
     15 C          -7.9526  -19.7786   21.2487 C.ar    1  UNL1        0.0780
     16 C          -7.9100  -20.2189   22.6821 C.ar    1  UNL1        0.0170
     17 C          -9.1846  -20.3719   23.4579 C.ar    1  UNL1        0.0023
     18 C         -10.5019  -20.0847   22.8004 C.ar    1  UNL1        0.0138
     19 C         -10.5446  -19.6444   21.3672 C.ar    1  UNL1        0.0863
     20 CL        -11.8619  -19.3572   20.7097 Cl      1  UNL1       -0.0799
     21 C          -9.2699  -19.4914   20.5913 C.ar    1  UNL1        0.1639
     22 F          -9.3126  -19.0511   19.1580 F       1  UNL1       -0.2020
     23 C          -7.8843  -15.5930   23.8690 C.3     1  UNL1        0.1023
     24 N          -9.1202  -15.8219   23.0504 N.3     1  UNL1       -0.2646
     25 C          -9.1260  -15.4812   21.5896 C.3     1  UNL1        0.1049
     26 C         -10.3619  -15.7101   20.7710 C.3     1  UNL1        0.1595
     27 O         -11.5920  -16.2798   21.4132 O.3     1  UNL1       -0.3508
     28 C         -11.5861  -16.6205   22.8740 C.3     1  UNL1        0.1595
     29 C         -10.3502  -16.3915   23.6926 C.3     1  UNL1        0.1049
@<TRIPOS>BOND
     1    11    12    1
     2    12     1    1
     3     1     2   ar
     4     2     3   ar
     5     3     4   ar
     6     4     5   ar
     7     5     6   ar
     8     6     7   ar
     9     7    13    1
    10    13    15    1
    11    15    16   ar
    12    16    17   ar
    13    17    18   ar
    14    18    19   ar
    15    19    20    1
    16    19    21   ar
    17    21    22    1
    18     7     8   ar
    19     8     9   ar
    20     9    10   ar
    21    10    23    1
    22    23    24    1
    23    24    25    1
    24    25    26    1
    25    26    27    1
    26    27    28    1
    27    28    29    1
    28    10     1   ar
    29    29    24    1
    30     8     3   ar
    31    21    15   ar
    32    13    14    1
@<TRIPOS>MOLECULE
*****
 29 32 0 0 0
SMALL
GASTEIGER

@<TRIPOS>ATOM
      1 C          -6.1068  -19.6237   20.3337 C.ar    1  UNL1        0.1375
      2 C          -7.4168  -19.5837   19.6042 C.ar    1  UNL1        0.0558
      3 C          -8.6651  -19.1708   20.3263 C.ar    1  UNL1        0.0887
      4 N          -9.9751  -19.1308   19.5967 N.ar    1  UNL1       -0.2238
      5 C         -11.2233  -18.7179   20.3188 C.ar    1  UNL1        0.2000
      6 N         -11.1615  -18.3450   21.7704 N.ar    1  UNL1       -0.2089
      7 C          -9.8515  -18.3850   22.4999 C.ar    1  UNL1        0.1353
      8 C          -8.6033  -18.7979   21.7779 C.ar    1  UNL1        0.0493
      9 C          -7.2932  -18.8380   22.5074 C.ar    1  UNL1        0.0044
     10 C          -6.0450  -19.2508   21.7853 C.ar    1  UNL1        0.0280
     11 C          -4.3641  -21.4490   19.7158 C.3     1  UNL1        0.2525
     12 O          -4.8584  -20.0367   19.6116 O.3     1  UNL1       -0.4717
     13 N          -9.7897  -18.0121   23.9515 N.pl3   1  UNL1       -0.2961
     14 H         -10.3511  -18.4871   24.6061 H       1  UNL1        0.1537
     15 C          -8.8725  -16.9157   24.4058 C.ar    1  UNL1        0.0780
     16 C          -8.3131  -15.9445   23.4088 C.ar    1  UNL1        0.0170
     17 C          -7.3959  -14.8480   23.8631 C.ar    1  UNL1        0.0023
     18 C          -7.0381  -14.7226   25.3144 C.ar    1  UNL1        0.0138
     19 C          -7.5974  -15.6937   26.3114 C.ar    1  UNL1        0.0863
     20 CL         -7.2395  -15.5684   27.7627 Cl      1  UNL1       -0.0799
     21 C          -8.5146  -16.7903   25.8571 C.ar    1  UNL1        0.1639
     22 F          -9.0739  -17.7614   26.8541 F       1  UNL1       -0.2020
     23 C          -4.7349  -19.2909   22.5148 C.3     1  UNL1        0.1023
     24 N          -3.6129  -18.3898   22.0915 N.3     1  UNL1       -0.2646
     25 C          -2.4992  -18.9270   21.2423 C.3     1  UNL1        0.1049
     26 C          -1.3772  -18.0259   20.8189 C.3     1  UNL1        0.1595
     27 O          -1.3689  -16.5876   21.2448 O.3     1  UNL1       -0.3508
     28 C          -2.4826  -16.0505   22.0939 C.3     1  UNL1        0.1595
     29 C          -3.6046  -16.9516   22.5173 C.3     1  UNL1        0.1049
@<TRIPOS>BOND
     1    11    12    1
     2    12     1    1
     3     1     2   ar
     4     2     3   ar
     5     3     4   ar
     6     4     5   ar
     7     5     6   ar
     8     6     7   ar
     9     7    13    1
    10    13    15    1
    11    15    16   ar
    12    16    17   ar
    13    17    18   ar
    14    18    19   ar
    15    19    20    1
    16    19    21   ar
    17    21    22    1
    18     7     8   ar
    19     8     9   ar
    20     9    10   ar
    21    10    23    1
    22    23    24    1
    23    24    25    1
    24    25    26    1
    25    26    27    1
    26    27    28    1
    27    28    29    1
    28    10     1   ar
    29    29    24    1
    30     8     3   ar
    31    21    15   ar
    32    13    14    1
