@<TRIPOS>MOLECULE
*****
 42 46 0 0 0
SMALL
GASTEIGER

@<TRIPOS>ATOM
      1 C           6.3739   -1.9737   22.1201 C.3     1  UNL1        0.1605
      2 F           4.8829   -5.3080   18.4243 F       1  UNL1       -0.2041
      3 C           4.6079   -4.1036   19.2749 C.ar    1  UNL1        0.1430
      4 C           3.3124   -3.3617   19.1283 C.ar    1  UNL1        0.0667
      5 C           3.0375   -2.1573   19.9789 C.ar    1  UNL1        0.1462
      6 C           4.0580   -1.6946   20.9762 C.ar    1  UNL1        0.0363
      7 C           5.3535   -2.4364   21.1228 C.ar    1  UNL1        0.0190
      8 C           5.6284   -3.6409   20.2721 C.ar    1  UNL1        0.0289
      9 O           1.7420   -1.4154   19.8323 O.3     1  UNL1       -0.4263
     10 C           1.7310   -0.0334   19.2493 C.3     1  UNL1        0.4723
     11 F           0.7058    0.3853   20.2610 F       1  UNL1       -0.1579
     12 F           2.7563   -0.4521   18.2376 F       1  UNL1       -0.1579
     13 C           1.7201    1.3486   18.6663 C.3     1  UNL1        0.4202
     14 F           0.5013    1.8512   17.9507 F       1  UNL1       -0.1876
     15 F           2.9280    2.2281   18.7988 F       1  UNL1       -0.1876
     16 C           7.0476   -1.1616   21.0538 C.ar    1  UNL1        0.0937
     17 C           6.3808    0.0694   20.5151 C.ar    1  UNL1        0.0190
     18 C           7.0543    0.8815   19.4489 C.ar    1  UNL1        0.0143
     19 C           8.3946    0.4627   18.9214 C.ar    1  UNL1        0.0768
     20 CL          9.0681    1.2748   17.8552 Cl      1  UNL1       -0.0806
     21 C           9.0613   -0.7683   19.4601 C.ar    1  UNL1        0.1099
     22 N           8.3878   -1.5804   20.5263 N.ar    1  UNL1       -0.2439
     23 N           5.7003   -2.7858   23.1862 N.pl3   1  UNL1       -0.2174
     24 H           4.7798   -2.5704   23.4612 H       1  UNL1        0.2460
     25 C           6.4290   -3.9259   23.8334 C.cat   1  UNL1        0.4204
     26 N           6.5347   -4.1814   25.3077 N.2     1  UNL1       -0.0678
     27 C           7.3511   -5.4241   25.5054 C.2     1  UNL1        0.1937
     28 C           7.7828   -6.1553   26.7420 C.2     1  UNL1        0.0693
     29 C           8.6134   -7.3990   26.6265 C.2     1  UNL1        0.1420
     30 F           9.0451   -8.1301   27.8630 F       1  UNL1       -0.2043
     31 C           9.0122   -7.9116   25.2744 C.2     1  UNL1        0.0459
     32 C           8.5805   -7.1804   24.0378 C.3     1  UNL1        0.2444
     33 F           8.9794   -7.6931   22.6857 F       1  UNL1       -0.2241
     34 C           7.7500   -5.9368   24.1534 C.2     1  UNL1        0.2068
     35 N           7.1801   -5.0108   23.1199 N.2     1  UNL1       -0.0689
     36 C           7.3944   -1.5109   23.1173 C.3     1  UNL1        0.0705
     37 C           6.9924   -0.5864   24.2279 C.ar    1  UNL1       -0.0184
     38 C           7.6371   -0.7095   25.5767 C.ar    1  UNL1       -0.0041
     39 C           7.2351    0.2150   26.6874 C.ar    1  UNL1       -0.0003
     40 C           6.1883    1.2626   26.4493 C.ar    1  UNL1       -0.0000
     41 C           5.5435    1.3857   25.1006 C.ar    1  UNL1       -0.0003
     42 C           5.9456    0.4612   23.9899 C.ar    1  UNL1       -0.0041
@<TRIPOS>BOND
     1     2     3    1
     2     3     4   ar
     3     4     5   ar
     4     5     9    1
     5     9    10    1
     6    10    11    1
     7    10    12    1
     8    10    13    1
     9    13    14    1
    10    13    15    1
    11     5     6   ar
    12     6     7   ar
    13     7     1    1
    14     1    36    1
    15    36    37    1
    16    37    38   ar
    17    38    39   ar
    18    39    40   ar
    19    40    41   ar
    20    41    42   ar
    21     1    23    1
    22    23    25    1
    23    25    26    2
    24    26    27    1
    25    27    28    2
    26    28    29    1
    27    29    30    1
    28    29    31    2
    29    31    32    1
    30    32    33    1
    31    32    34    1
    32    34    35    2
    33     1    16    1
    34    16    17   ar
    35    17    18   ar
    36    18    19   ar
    37    19    20    1
    38    19    21   ar
    39    21    22   ar
    40     7     8   ar
    41     8     3   ar
    42    42    37   ar
    43    35    25    1
    44    22    16   ar
    45    34    27    1
    46    23    24    1
@<TRIPOS>MOLECULE
*****
 42 46 0 0 0
SMALL
GASTEIGER

@<TRIPOS>ATOM
      1 C           3.7643   -0.1043   20.5949 C.3     1  UNL1        0.1605
      2 F           2.4444   -4.7063   18.5752 F       1  UNL1       -0.2041
      3 C           3.4094   -3.8542   19.3449 C.ar    1  UNL1        0.1430
      4 C           4.6797   -4.4509   19.8745 C.ar    1  UNL1        0.0667
      5 C           5.6447   -3.5988   20.6442 C.ar    1  UNL1        0.1462
      6 C           5.3396   -2.1499   20.8844 C.ar    1  UNL1        0.0363
      7 C           4.0694   -1.5531   20.3548 C.ar    1  UNL1        0.0190
      8 C           3.1043   -2.4053   19.5850 C.ar    1  UNL1        0.0289
      9 O           6.9150   -4.1955   21.1738 O.3     1  UNL1       -0.4263
     10 C           7.2173   -4.1343   22.6418 C.3     1  UNL1        0.4723
     11 F           8.6596   -3.8612   22.3333 F       1  UNL1       -0.1579
     12 F           5.7750   -4.4073   22.9501 F       1  UNL1       -0.1579
     13 C           7.5196   -4.0730   24.1097 C.3     1  UNL1        0.4202
     14 F           8.6945   -3.2803   24.6011 F       1  UNL1       -0.1876
     15 F           6.6471   -4.8044   25.0863 F       1  UNL1       -0.1876
     16 C           4.8769    0.2838   19.6665 C.ar    1  UNL1        0.0937
     17 C           6.0420    1.0755   20.1820 C.ar    1  UNL1        0.0190
     18 C           7.1545    1.4635   19.2538 C.ar    1  UNL1        0.0143
     19 C           7.1019    1.0599   17.8101 C.ar    1  UNL1        0.0768
     20 CL          8.2144    1.4479   16.8818 Cl      1  UNL1       -0.0806
     21 C           5.9368    0.2682   17.2946 C.ar    1  UNL1        0.1099
     22 N           4.8243   -0.1199   18.2228 N.ar    1  UNL1       -0.2439
     23 N           2.6518   -0.4924   21.5232 N.pl3   1  UNL1       -0.2174
     24 H           1.7893   -0.7956   21.1582 H       1  UNL1        0.2460
     25 C           2.8536   -0.4184   23.0077 C.cat   1  UNL1        0.4204
     26 N           2.1329    0.4987   23.9508 N.2     1  UNL1       -0.0678
     27 C           2.6453    0.2353   25.3357 C.2     1  UNL1        0.1937
     28 C           2.3013    0.8394   26.6650 C.2     1  UNL1        0.0693
     29 C           2.9948    0.3634   27.9071 C.2     1  UNL1        0.1420
     30 F           2.6508    0.9674   29.2363 F       1  UNL1       -0.2043
     31 C           4.0321   -0.7165   27.8199 C.2     1  UNL1        0.0459
     32 C           4.3761   -1.3205   26.4906 C.3     1  UNL1        0.2444
     33 F           5.4135   -2.4004   26.4035 F       1  UNL1       -0.2241
     34 C           3.6827   -0.8446   25.2487 C.2     1  UNL1        0.2068
     35 N           3.8114   -1.2487   23.8098 N.2     1  UNL1       -0.0689
     36 C           3.4593    1.3446   20.8350 C.3     1  UNL1        0.0705
     37 C           2.2013    1.9476   20.2838 C.ar    1  UNL1       -0.0184
     38 C           1.3522    2.8320   21.1481 C.ar    1  UNL1       -0.0041
     39 C           0.0943    3.4350   20.5968 C.ar    1  UNL1       -0.0003
     40 C          -0.3146    3.1537   19.1813 C.ar    1  UNL1       -0.0000
     41 C           0.5344    2.2693   18.3170 C.ar    1  UNL1       -0.0003
     42 C           1.7924    1.6663   18.8682 C.ar    1  UNL1       -0.0041
@<TRIPOS>BOND
     1     2     3    1
     2     3     4   ar
     3     4     5   ar
     4     5     9    1
     5     9    10    1
     6    10    11    1
     7    10    12    1
     8    10    13    1
     9    13    14    1
    10    13    15    1
    11     5     6   ar
    12     6     7   ar
    13     7     1    1
    14     1    36    1
    15    36    37    1
    16    37    38   ar
    17    38    39   ar
    18    39    40   ar
    19    40    41   ar
    20    41    42   ar
    21     1    23    1
    22    23    25    1
    23    25    26    2
    24    26    27    1
    25    27    28    2
    26    28    29    1
    27    29    30    1
    28    29    31    2
    29    31    32    1
    30    32    33    1
    31    32    34    1
    32    34    35    2
    33     1    16    1
    34    16    17   ar
    35    17    18   ar
    36    18    19   ar
    37    19    20    1
    38    19    21   ar
    39    21    22   ar
    40     7     8   ar
    41     8     3   ar
    42    42    37   ar
    43    35    25    1
    44    22    16   ar
    45    34    27    1
    46    23    24    1
@<TRIPOS>MOLECULE
*****
 42 46 0 0 0
SMALL
GASTEIGER

@<TRIPOS>ATOM
      1 C           5.5270   -1.1127   27.5451 C.3     1  UNL1        0.1605
      2 F           5.2712    0.2009   32.5660 F       1  UNL1       -0.2041
      3 C           4.5863   -0.1199   31.2707 C.ar    1  UNL1        0.1430
      4 C           3.0885   -0.1048   31.1904 C.ar    1  UNL1        0.0667
      5 C           2.4036   -0.4256   29.8951 C.ar    1  UNL1        0.1462
      6 C           3.2164   -0.7616   28.6800 C.ar    1  UNL1        0.0363
      7 C           4.7142   -0.7768   28.7602 C.ar    1  UNL1        0.0190
      8 C           5.3991   -0.4559   30.0556 C.ar    1  UNL1        0.0289
      9 O           0.9057   -0.4105   29.8148 O.3     1  UNL1       -0.4263
     10 C           0.2228    0.2851   28.6747 C.3     1  UNL1        0.4723
     11 F          -0.7041   -0.8836   28.5169 F       1  UNL1       -0.1579
     12 F           1.1498    1.4537   28.8326 F       1  UNL1       -0.1579
     13 C          -0.4601    0.9806   27.5346 C.3     1  UNL1        0.4202
     14 F          -1.7395    1.7274   27.7699 F       1  UNL1       -0.1876
     15 F           0.1365    0.9293   26.1593 F       1  UNL1       -0.1876
     16 C           5.9542    0.3210   27.4346 C.ar    1  UNL1        0.0937
     17 C           4.9397    1.3849   27.1365 C.ar    1  UNL1        0.0190
     18 C           5.3667    2.8186   27.0260 C.ar    1  UNL1        0.0143
     19 C           6.8083    3.1883   27.2136 C.ar    1  UNL1        0.0768
     20 CL          7.2355    4.6219   27.1031 Cl      1  UNL1       -0.0806
     21 C           7.8228    2.1243   27.5116 C.ar    1  UNL1        0.1099
     22 N           7.3957    0.6907   27.6221 N.ar    1  UNL1       -0.2439
     23 N           5.0997   -2.5463   27.6557 N.pl3   1  UNL1       -0.2174
     24 H           4.2179   -2.8246   27.3177 H       1  UNL1        0.2460
     25 C           6.0160   -3.5558   28.2812 C.cat   1  UNL1        0.4204
     26 N           6.3352   -3.6707   29.7423 N.2     1  UNL1       -0.0678
     27 C           7.2904   -4.8136   29.9196 C.2     1  UNL1        0.1937
     28 C           7.9484   -5.3922   31.1372 C.2     1  UNL1        0.0693
     29 C           8.8774   -6.5622   31.0031 C.2     1  UNL1        0.1420
     30 F           9.5354   -7.1407   32.2206 F       1  UNL1       -0.2043
     31 C           9.1485   -7.1536   29.6516 C.2     1  UNL1        0.0459
     32 C           8.4906   -6.5750   28.4341 C.3     1  UNL1        0.2444
     33 F           8.7617   -7.1665   27.0825 F       1  UNL1       -0.2241
     34 C           7.5615   -5.4051   28.5681 C.2     1  UNL1        0.2068
     35 N           6.7739   -4.6277   27.5555 N.2     1  UNL1       -0.0689
     36 C           6.3397   -1.4486   26.3300 C.3     1  UNL1        0.0705
     37 C           5.6592   -1.9196   25.0790 C.ar    1  UNL1       -0.0184
     38 C           6.1445   -3.1554   24.3810 C.ar    1  UNL1       -0.0041
     39 C           5.4640   -3.6264   23.1301 C.ar    1  UNL1       -0.0003
     40 C           4.2980   -2.8617   22.5771 C.ar    1  UNL1       -0.0000
     41 C           3.8126   -1.6259   23.2751 C.ar    1  UNL1       -0.0003
     42 C           4.4932   -1.1549   24.5261 C.ar    1  UNL1       -0.0041
@<TRIPOS>BOND
     1     2     3    1
     2     3     4   ar
     3     4     5   ar
     4     5     9    1
     5     9    10    1
     6    10    11    1
     7    10    12    1
     8    10    13    1
     9    13    14    1
    10    13    15    1
    11     5     6   ar
    12     6     7   ar
    13     7     1    1
    14     1    36    1
    15    36    37    1
    16    37    38   ar
    17    38    39   ar
    18    39    40   ar
    19    40    41   ar
    20    41    42   ar
    21     1    23    1
    22    23    25    1
    23    25    26    2
    24    26    27    1
    25    27    28    2
    26    28    29    1
    27    29    30    1
    28    29    31    2
    29    31    32    1
    30    32    33    1
    31    32    34    1
    32    34    35    2
    33     1    16    1
    34    16    17   ar
    35    17    18   ar
    36    18    19   ar
    37    19    20    1
    38    19    21   ar
    39    21    22   ar
    40     7     8   ar
    41     8     3   ar
    42    42    37   ar
    43    35    25    1
    44    22    16   ar
    45    34    27    1
    46    23    24    1
@<TRIPOS>MOLECULE
*****
 42 46 0 0 0
SMALL
GASTEIGER

@<TRIPOS>ATOM
      1 C           0.6352    2.9675   20.5538 C.3     1  UNL1        0.1605
      2 F           3.1226    5.3245   24.4599 F       1  UNL1       -0.2041
      3 C           2.2771    4.1944   23.9523 C.ar    1  UNL1        0.1430
      4 C           1.8297    3.1124   24.8900 C.ar    1  UNL1        0.0667
      5 C           0.9842    1.9822   24.3824 C.ar    1  UNL1        0.1462
      6 C           0.5860    1.9339   22.9369 C.ar    1  UNL1        0.0363
      7 C           1.0334    3.0158   21.9992 C.ar    1  UNL1        0.0190
      8 C           1.8789    4.1460   22.5069 C.ar    1  UNL1        0.0289
      9 O           0.5368    0.9002   25.3201 O.3     1  UNL1       -0.4263
     10 C          -0.0524    1.2587   26.6521 C.3     1  UNL1        0.4723
     11 F           1.1006    0.5916   27.3417 F       1  UNL1       -0.1579
     12 F          -1.2054    1.9257   25.9625 F       1  UNL1       -0.1579
     13 C          -0.6417    1.6171   27.9842 C.3     1  UNL1        0.4202
     14 F          -0.0559    2.7419   28.7852 F       1  UNL1       -0.1876
     15 F          -1.8167    0.8507   28.5151 F       1  UNL1       -0.1876
     16 C           1.3306    1.6465   20.4066 C.ar    1  UNL1        0.0937
     17 C           0.5303    0.4000   20.1700 C.ar    1  UNL1        0.0190
     18 C           1.2255   -0.9209   20.0228 C.ar    1  UNL1        0.0143
     19 C           2.7210   -0.9954   20.1120 C.ar    1  UNL1        0.0768
     20 CL          3.4163   -2.3163   19.9648 Cl      1  UNL1       -0.0806
     21 C           3.5213    0.2510   20.3485 C.ar    1  UNL1        0.1099
     22 N           2.8260    1.5720   20.4958 N.ar    1  UNL1       -0.2439
     23 N          -0.0601    4.2884   20.7012 N.pl3   1  UNL1       -0.2174
     24 H           0.4624    5.1228   20.6981 H       1  UNL1        0.2460
     25 C          -1.5515    4.3380   20.8532 C.cat   1  UNL1        0.4204
     26 N          -2.4952    5.1599   20.0262 N.2     1  UNL1       -0.0678
     27 C          -3.8880    4.9043   20.5208 C.2     1  UNL1        0.1937
     28 C          -5.2212    5.4373   20.0861 C.2     1  UNL1        0.0693
     29 C          -6.4714    4.9903   20.7841 C.2     1  UNL1        0.1420
     30 F          -7.8044    5.5232   20.3494 F       1  UNL1       -0.2043
     31 C          -6.3885    4.0104   21.9168 C.2     1  UNL1        0.0459
     32 C          -5.0554    3.4776   22.3515 C.3     1  UNL1        0.2444
     33 F          -4.9726    2.4976   23.4842 F       1  UNL1       -0.2241
     34 C          -3.8053    3.9245   21.6535 C.2     1  UNL1        0.2068
     35 N          -2.3612    3.5744   21.8590 N.2     1  UNL1       -0.0689
     36 C           0.2371    2.9190   19.1085 C.3     1  UNL1        0.0705
     37 C           0.8061    3.9132   18.1400 C.ar    1  UNL1       -0.0184
     38 C           2.2805    4.1886   18.1274 C.ar    1  UNL1       -0.0041
     39 C           2.8495    5.1827   17.1589 C.ar    1  UNL1       -0.0003
     40 C           1.9441    5.9015   16.2031 C.ar    1  UNL1       -0.0000
     41 C           0.4696    5.6261   16.2158 C.ar    1  UNL1       -0.0003
     42 C          -0.0994    4.6320   17.1842 C.ar    1  UNL1       -0.0041
@<TRIPOS>BOND
     1     2     3    1
     2     3     4   ar
     3     4     5   ar
     4     5     9    1
     5     9    10    1
     6    10    11    1
     7    10    12    1
     8    10    13    1
     9    13    14    1
    10    13    15    1
    11     5     6   ar
    12     6     7   ar
    13     7     1    1
    14     1    36    1
    15    36    37    1
    16    37    38   ar
    17    38    39   ar
    18    39    40   ar
    19    40    41   ar
    20    41    42   ar
    21     1    23    1
    22    23    25    1
    23    25    26    2
    24    26    27    1
    25    27    28    2
    26    28    29    1
    27    29    30    1
    28    29    31    2
    29    31    32    1
    30    32    33    1
    31    32    34    1
    32    34    35    2
    33     1    16    1
    34    16    17   ar
    35    17    18   ar
    36    18    19   ar
    37    19    20    1
    38    19    21   ar
    39    21    22   ar
    40     7     8   ar
    41     8     3   ar
    42    42    37   ar
    43    35    25    1
    44    22    16   ar
    45    34    27    1
    46    23    24    1
@<TRIPOS>MOLECULE
*****
 42 46 0 0 0
SMALL
GASTEIGER

@<TRIPOS>ATOM
      1 C           0.8298    2.3281   22.4758 C.3     1  UNL1        0.1605
      2 F           4.2287    6.0993   21.3687 F       1  UNL1       -0.2041
      3 C           3.0909    5.2137   20.9554 C.ar    1  UNL1        0.1430
      4 C           2.5146    5.3278   19.5752 C.ar    1  UNL1        0.0667
      5 C           1.3768    4.4422   19.1619 C.ar    1  UNL1        0.1462
      6 C           0.8152    3.4422   20.1288 C.ar    1  UNL1        0.0363
      7 C           1.3914    3.3280   21.5090 C.ar    1  UNL1        0.0190
      8 C           2.5293    4.2138   21.9223 C.ar    1  UNL1        0.0289
      9 O           0.8005    4.5563   17.7817 O.3     1  UNL1       -0.4263
     10 C          -0.6660    4.3319   17.5605 C.3     1  UNL1        0.4723
     11 F          -0.3963    2.8935   17.2316 F       1  UNL1       -0.1579
     12 F          -0.9356    5.7703   17.8894 F       1  UNL1       -0.1579
     13 C          -2.1325    4.1075   17.3392 C.3     1  UNL1        0.4202
     14 F          -2.6199    3.5755   16.0242 F       1  UNL1       -0.1876
     15 F          -3.1117    4.4152   18.4331 F       1  UNL1       -0.1876
     16 C           1.4747    1.2171   21.7012 C.ar    1  UNL1        0.0937
     17 C           0.6268    0.2553   20.9227 C.ar    1  UNL1        0.0190
     18 C           1.2715   -0.8557   20.1481 C.ar    1  UNL1        0.0143
     19 C           2.7641   -1.0049   20.1520 C.ar    1  UNL1        0.0768
     20 CL          3.4088   -2.1158   19.3774 Cl      1  UNL1       -0.0806
     21 C           3.6119   -0.0431   20.9305 C.ar    1  UNL1        0.1099
     22 N           2.9672    1.0679   21.7051 N.ar    1  UNL1       -0.2439
     23 N           0.1851    3.4391   23.2504 N.pl3   1  UNL1       -0.2174
     24 H           0.7409    4.0649   23.7688 H       1  UNL1        0.2460
     25 C          -1.3065    3.5968   23.2350 C.cat   1  UNL1        0.4204
     26 N          -2.1522    4.0946   24.3694 N.2     1  UNL1       -0.0678
     27 C          -3.5826    4.0897   23.9181 C.2     1  UNL1        0.1937
     28 C          -4.8553    4.4767   24.6115 C.2     1  UNL1        0.0693
     29 C          -6.1663    4.3628   23.8915 C.2     1  UNL1        0.1420
     30 F          -7.4388    4.7497   24.5849 F       1  UNL1       -0.2043
     31 C          -6.2046    3.8620   22.4781 C.2     1  UNL1        0.0459
     32 C          -4.9320    3.4751   21.7847 C.3     1  UNL1        0.2444
     33 F          -4.9704    2.9743   20.3713 F       1  UNL1       -0.2241
     34 C          -3.6211    3.5890   22.5047 C.2     1  UNL1        0.2068
     35 N          -2.2143    3.2843   22.0825 N.2     1  UNL1       -0.0689
     36 C           0.2683    1.3281   23.4426 C.3     1  UNL1        0.0705
     37 C           0.7626    1.2943   24.8584 C.ar    1  UNL1       -0.0184
     38 C          -0.2162    1.3065   25.9950 C.ar    1  UNL1       -0.0041
     39 C           0.2780    1.2727   27.4108 C.ar    1  UNL1       -0.0003
     40 C           1.7511    1.2266   27.6900 C.ar    1  UNL1       -0.0000
     41 C           2.7299    1.2143   26.5535 C.ar    1  UNL1       -0.0003
     42 C           2.2356    1.2482   25.1377 C.ar    1  UNL1       -0.0041
@<TRIPOS>BOND
     1     2     3    1
     2     3     4   ar
     3     4     5   ar
     4     5     9    1
     5     9    10    1
     6    10    11    1
     7    10    12    1
     8    10    13    1
     9    13    14    1
    10    13    15    1
    11     5     6   ar
    12     6     7   ar
    13     7     1    1
    14     1    36    1
    15    36    37    1
    16    37    38   ar
    17    38    39   ar
    18    39    40   ar
    19    40    41   ar
    20    41    42   ar
    21     1    23    1
    22    23    25    1
    23    25    26    2
    24    26    27    1
    25    27    28    2
    26    28    29    1
    27    29    30    1
    28    29    31    2
    29    31    32    1
    30    32    33    1
    31    32    34    1
    32    34    35    2
    33     1    16    1
    34    16    17   ar
    35    17    18   ar
    36    18    19   ar
    37    19    20    1
    38    19    21   ar
    39    21    22   ar
    40     7     8   ar
    41     8     3   ar
    42    42    37   ar
    43    35    25    1
    44    22    16   ar
    45    34    27    1
    46    23    24    1
@<TRIPOS>MOLECULE
*****
 42 46 0 0 0
SMALL
GASTEIGER

@<TRIPOS>ATOM
      1 C           3.2008    0.9928   21.8454 C.3     1  UNL1        0.1605
      2 F           7.2592    4.1599   22.5519 F       1  UNL1       -0.2041
      3 C           6.6244    2.8091   22.7003 C.ar    1  UNL1        0.1430
      4 C           7.3840    1.6907   23.3502 C.ar    1  UNL1        0.0667
      5 C           6.7493    0.3398   23.4985 C.ar    1  UNL1        0.1462
      6 C           5.3548    0.1072   22.9969 C.ar    1  UNL1        0.0363
      7 C           4.5952    1.2254   22.3470 C.ar    1  UNL1        0.0190
      8 C           5.2301    2.5764   22.1987 C.ar    1  UNL1        0.0289
      9 O           7.5089   -0.7786   24.1485 O.3     1  UNL1       -0.4263
     10 C           6.9548   -2.1723   24.1285 C.3     1  UNL1        0.4723
     11 F           6.2828   -1.9241   25.4463 F       1  UNL1       -0.1579
     12 F           7.6269   -2.4205   22.8107 F       1  UNL1       -0.1579
     13 C           6.4007   -3.5661   24.1085 C.3     1  UNL1        0.4202
     14 F           5.0443   -3.8257   23.5230 F       1  UNL1       -0.1876
     15 F           7.2031   -4.7003   24.6740 F       1  UNL1       -0.1876
     16 C           3.7085   -0.0856   20.9347 C.ar    1  UNL1        0.0937
     17 C           3.2270   -1.4964   21.1016 C.ar    1  UNL1        0.0190
     18 C           3.7346   -2.5748   20.1909 C.ar    1  UNL1        0.0143
     19 C           4.7237   -2.2425   19.1134 C.ar    1  UNL1        0.0768
     20 CL          5.2313   -3.3208   18.2027 Cl      1  UNL1       -0.0806
     21 C           5.2053   -0.8317   18.9465 C.ar    1  UNL1        0.1099
     22 N           4.6977    0.2467   19.8571 N.ar    1  UNL1       -0.2439
     23 N           2.6933    2.0712   22.7562 N.pl3   1  UNL1       -0.2174
     24 H           2.7574    3.0153   22.4847 H       1  UNL1        0.2460
     25 C           2.0880    1.7110   24.0806 C.cat   1  UNL1        0.4204
     26 N           0.6411    1.8423   24.4535 N.2     1  UNL1       -0.0678
     27 C           0.4823    1.3687   25.8679 C.2     1  UNL1        0.1937
     28 C          -0.7164    1.2688   26.7643 C.2     1  UNL1        0.0693
     29 C          -0.5661    0.7449   28.1618 C.2     1  UNL1        0.1420
     30 F          -1.7646    0.6450   29.0582 F       1  UNL1       -0.2043
     31 C           0.7826    0.3209   28.6629 C.2     1  UNL1        0.0459
     32 C           1.9811    0.4209   27.7665 C.3     1  UNL1        0.2444
     33 F           3.3299   -0.0031   28.2677 F       1  UNL1       -0.2241
     34 C           1.8310    0.9447   26.3691 C.2     1  UNL1        0.2068
     35 N           2.8235    1.1563   25.2644 N.2     1  UNL1       -0.0689
     36 C           1.8065    0.7600   21.3438 C.3     1  UNL1        0.0705
     37 C           1.1362    1.7916   20.4856 C.ar    1  UNL1       -0.0184
     38 C          -0.2695    2.2196   20.7872 C.ar    1  UNL1       -0.0041
     39 C          -0.9398    3.2511   19.9290 C.ar    1  UNL1       -0.0003
     40 C          -0.2045    3.8547   18.7692 C.ar    1  UNL1       -0.0000
     41 C           1.2012    3.4267   18.4677 C.ar    1  UNL1       -0.0003
     42 C           1.8715    2.3952   19.3259 C.ar    1  UNL1       -0.0041
@<TRIPOS>BOND
     1     2     3    1
     2     3     4   ar
     3     4     5   ar
     4     5     9    1
     5     9    10    1
     6    10    11    1
     7    10    12    1
     8    10    13    1
     9    13    14    1
    10    13    15    1
    11     5     6   ar
    12     6     7   ar
    13     7     1    1
    14     1    36    1
    15    36    37    1
    16    37    38   ar
    17    38    39   ar
    18    39    40   ar
    19    40    41   ar
    20    41    42   ar
    21     1    23    1
    22    23    25    1
    23    25    26    2
    24    26    27    1
    25    27    28    2
    26    28    29    1
    27    29    30    1
    28    29    31    2
    29    31    32    1
    30    32    33    1
    31    32    34    1
    32    34    35    2
    33     1    16    1
    34    16    17   ar
    35    17    18   ar
    36    18    19   ar
    37    19    20    1
    38    19    21   ar
    39    21    22   ar
    40     7     8   ar
    41     8     3   ar
    42    42    37   ar
    43    35    25    1
    44    22    16   ar
    45    34    27    1
    46    23    24    1
@<TRIPOS>MOLECULE
*****
 42 46 0 0 0
SMALL
GASTEIGER

@<TRIPOS>ATOM
      1 C           1.8980    2.2144   24.7719 C.3     1  UNL1        0.1605
      2 F           4.6009    3.1504   20.4339 F       1  UNL1       -0.2041
      3 C           3.9678    2.1795   21.3859 C.ar    1  UNL1        0.1430
      4 C           4.0530    0.7054   21.1210 C.ar    1  UNL1        0.0667
      5 C           3.4200   -0.2655   22.0730 C.ar    1  UNL1        0.1462
      6 C           2.7016    0.2375   23.2900 C.ar    1  UNL1        0.0363
      7 C           2.6163    1.7114   23.5550 C.ar    1  UNL1        0.0190
      8 C           3.2495    2.6824   22.6029 C.ar    1  UNL1        0.0289
      9 O           3.5052   -1.7395   21.8081 O.3     1  UNL1       -0.4263
     10 C           3.6078   -2.2435   20.3991 C.3     1  UNL1        0.4723
     11 F           4.9880   -2.7574   20.6834 F       1  UNL1       -0.1579
     12 F           2.2276   -1.7296   20.1148 F       1  UNL1       -0.1579
     13 C           3.7104   -2.7476   18.9900 C.3     1  UNL1        0.4202
     14 F           3.7410   -1.7771   17.8467 F       1  UNL1       -0.1876
     15 F           3.7824   -4.2221   18.7243 F       1  UNL1       -0.1876
     16 C           3.1717    2.8319   25.2684 C.ar    1  UNL1        0.0937
     17 C           3.2654    4.3185   25.4449 C.ar    1  UNL1        0.0190
     18 C           4.5390    4.9361   25.9414 C.ar    1  UNL1        0.0143
     19 C           5.7189    4.0670   26.2614 C.ar    1  UNL1        0.0768
     20 CL          6.9926    4.6845   26.7579 Cl      1  UNL1       -0.0806
     21 C           5.6253    2.5804   26.0849 C.ar    1  UNL1        0.1099
     22 N           4.3517    1.9628   25.5884 N.ar    1  UNL1       -0.2439
     23 N           0.6244    1.5969   24.2754 N.pl3   1  UNL1       -0.2174
     24 H           0.4094    0.6631   24.5012 H       1  UNL1        0.2460
     25 C          -0.3216    2.4021   23.4347 C.cat   1  UNL1        0.4204
     26 N          -1.4321    3.2720   23.9446 N.2     1  UNL1       -0.0678
     27 C          -2.1200    3.8864   22.7617 C.2     1  UNL1        0.1937
     28 C          -3.2820    4.8290   22.6541 C.2     1  UNL1        0.0693
     29 C          -3.7585    5.2813   21.3056 C.2     1  UNL1        0.1420
     30 F          -4.9204    6.2237   21.1980 F       1  UNL1       -0.2043
     31 C          -3.0730    4.7911   20.0647 C.2     1  UNL1        0.0459
     32 C          -1.9111    3.8486   20.1723 C.3     1  UNL1        0.2444
     33 F          -1.2256    3.3585   18.9313 F       1  UNL1       -0.2241
     34 C          -1.4346    3.3963   21.5207 C.2     1  UNL1        0.2068
     35 N          -0.3230    2.4789   21.9367 N.2     1  UNL1       -0.0689
     36 C           1.1798    2.7173   25.9889 C.3     1  UNL1        0.0705
     37 C           0.6555    1.7466   27.0052 C.ar    1  UNL1       -0.0184
     38 C           1.5944    0.7994   27.6916 C.ar    1  UNL1       -0.0041
     39 C           1.0702   -0.1713   28.7079 C.ar    1  UNL1       -0.0003
     40 C          -0.3929   -0.1949   29.0378 C.ar    1  UNL1       -0.0000
     41 C          -1.3318    0.7524   28.3513 C.ar    1  UNL1       -0.0003
     42 C          -0.8076    1.7231   27.3350 C.ar    1  UNL1       -0.0041
@<TRIPOS>BOND
     1     2     3    1
     2     3     4   ar
     3     4     5   ar
     4     5     9    1
     5     9    10    1
     6    10    11    1
     7    10    12    1
     8    10    13    1
     9    13    14    1
    10    13    15    1
    11     5     6   ar
    12     6     7   ar
    13     7     1    1
    14     1    36    1
    15    36    37    1
    16    37    38   ar
    17    38    39   ar
    18    39    40   ar
    19    40    41   ar
    20    41    42   ar
    21     1    23    1
    22    23    25    1
    23    25    26    2
    24    26    27    1
    25    27    28    2
    26    28    29    1
    27    29    30    1
    28    29    31    2
    29    31    32    1
    30    32    33    1
    31    32    34    1
    32    34    35    2
    33     1    16    1
    34    16    17   ar
    35    17    18   ar
    36    18    19   ar
    37    19    20    1
    38    19    21   ar
    39    21    22   ar
    40     7     8   ar
    41     8     3   ar
    42    42    37   ar
    43    35    25    1
    44    22    16   ar
    45    34    27    1
    46    23    24    1
@<TRIPOS>MOLECULE
*****
 42 46 0 0 0
SMALL
GASTEIGER

@<TRIPOS>ATOM
      1 C           4.0661    2.5378   35.5594 C.3     1  UNL1        0.1605
      2 F           6.2347    7.1193   36.7024 F       1  UNL1       -0.2041
      3 C           6.0924    5.6488   36.9615 C.ar    1  UNL1        0.1430
      4 C           6.8922    4.9983   38.0512 C.ar    1  UNL1        0.0667
      5 C           6.7499    3.5278   38.3102 C.ar    1  UNL1        0.1462
      6 C           5.8079    2.7076   37.4796 C.ar    1  UNL1        0.0363
      7 C           5.0081    3.3580   36.3899 C.ar    1  UNL1        0.0190
      8 C           5.1504    4.8286   36.1309 C.ar    1  UNL1        0.0289
      9 O           7.5497    2.8773   39.3999 O.3     1  UNL1       -0.4263
     10 C           7.2770    3.2170   40.8352 C.3     1  UNL1        0.4723
     11 F           8.7229    3.5669   41.0271 F       1  UNL1       -0.1579
     12 F           5.8311    2.8672   40.6432 F       1  UNL1       -0.1579
     13 C           7.0043    3.5568   42.2705 C.3     1  UNL1        0.4202
     14 F           5.6499    4.0557   42.6789 F       1  UNL1       -0.1876
     15 F           8.0859    3.3977   43.2975 F       1  UNL1       -0.1876
     16 C           3.2008    2.3121   36.7638 C.ar    1  UNL1        0.0937
     17 C           3.2239    0.9869   37.4661 C.ar    1  UNL1        0.0190
     18 C           2.3588    0.7612   38.6705 C.ar    1  UNL1        0.0143
     19 C           1.4704    1.8607   39.1725 C.ar    1  UNL1        0.0768
     20 CL          0.6052    1.6351   40.3768 Cl      1  UNL1       -0.0806
     21 C           1.4473    3.1859   38.4701 C.ar    1  UNL1        0.1099
     22 N           2.3125    3.4116   37.2657 N.ar    1  UNL1       -0.2439
     23 N           4.9314    2.7634   34.3551 N.pl3   1  UNL1       -0.2174
     24 H           4.9543    3.6484   33.9242 H       1  UNL1        0.2460
     25 C           5.7618    1.6408   33.8073 C.cat   1  UNL1        0.4204
     26 N           5.6396    1.0406   32.4380 N.2     1  UNL1       -0.0678
     27 C           6.6625   -0.0498   32.3170 C.2     1  UNL1        0.1937
     28 C           7.0045   -0.9852   31.1952 C.2     1  UNL1        0.0693
     29 C           8.1008   -1.9943   31.3681 C.2     1  UNL1        0.1420
     30 F           8.4429   -2.9297   30.2464 F       1  UNL1       -0.2043
     31 C           8.8551   -2.0680   32.6625 C.2     1  UNL1        0.0459
     32 C           8.5131   -1.1327   33.7841 C.3     1  UNL1        0.2444
     33 F           9.2674   -1.2065   35.0786 F       1  UNL1       -0.2241
     34 C           7.4168   -0.1236   33.6114 C.2     1  UNL1        0.2068
     35 N           6.8601    0.9213   34.5325 N.2     1  UNL1       -0.0689
     36 C           3.1240    1.7176   34.7289 C.3     1  UNL1        0.0705
     37 C           2.2219    2.3879   33.7355 C.ar    1  UNL1       -0.0184
     38 C           1.9012    1.7096   32.4366 C.ar    1  UNL1       -0.0041
     39 C           0.9990    2.3799   31.4433 C.ar    1  UNL1       -0.0003
     40 C           0.4176    3.7285   31.7487 C.ar    1  UNL1       -0.0000
     41 C           0.7383    4.4068   33.0476 C.ar    1  UNL1       -0.0003
     42 C           1.6405    3.7365   34.0410 C.ar    1  UNL1       -0.0041
@<TRIPOS>BOND
     1     2     3    1
     2     3     4   ar
     3     4     5   ar
     4     5     9    1
     5     9    10    1
     6    10    11    1
     7    10    12    1
     8    10    13    1
     9    13    14    1
    10    13    15    1
    11     5     6   ar
    12     6     7   ar
    13     7     1    1
    14     1    36    1
    15    36    37    1
    16    37    38   ar
    17    38    39   ar
    18    39    40   ar
    19    40    41   ar
    20    41    42   ar
    21     1    23    1
    22    23    25    1
    23    25    26    2
    24    26    27    1
    25    27    28    2
    26    28    29    1
    27    29    30    1
    28    29    31    2
    29    31    32    1
    30    32    33    1
    31    32    34    1
    32    34    35    2
    33     1    16    1
    34    16    17   ar
    35    17    18   ar
    36    18    19   ar
    37    19    20    1
    38    19    21   ar
    39    21    22   ar
    40     7     8   ar
    41     8     3   ar
    42    42    37   ar
    43    35    25    1
    44    22    16   ar
    45    34    27    1
    46    23    24    1
@<TRIPOS>MOLECULE
*****
 42 46 0 0 0
SMALL
GASTEIGER

@<TRIPOS>ATOM
      1 C          -9.0997  -18.6994   21.3084 C.3     1  UNL1        0.1605
      2 F          -9.0661  -13.6340   20.1509 F       1  UNL1       -0.2041
      3 C          -8.7237  -14.7548   21.0869 C.ar    1  UNL1        0.1430
      4 C          -8.0220  -14.4639   22.3804 C.ar    1  UNL1        0.0667
      5 C          -7.6796  -15.5848   23.3165 C.ar    1  UNL1        0.1462
      6 C          -8.0389  -16.9967   22.9591 C.ar    1  UNL1        0.0363
      7 C          -8.7405  -17.2876   21.6657 C.ar    1  UNL1        0.0190
      8 C          -9.0829  -16.1666   20.7296 C.ar    1  UNL1        0.0289
      9 O          -6.9779  -15.2939   24.6100 O.3     1  UNL1       -0.4263
     10 C          -7.7000  -15.4754   25.9122 C.3     1  UNL1        0.4723
     11 F          -8.9929  -15.1075   25.2466 F       1  UNL1       -0.1579
     12 F          -6.4071  -15.8433   26.5777 F       1  UNL1       -0.1579
     13 C          -8.4221  -15.6570   27.2144 C.3     1  UNL1        0.4202
     14 F          -8.8133  -17.0316   27.6698 F       1  UNL1       -0.1876
     15 F          -8.7530  -14.4639   28.0611 F       1  UNL1       -0.1876
     16 C         -10.1622  -18.6970   22.3673 C.ar    1  UNL1        0.0937
     17 C         -11.4691  -18.0047   22.1167 C.ar    1  UNL1        0.0190
     18 C         -12.5316  -18.0022   23.1755 C.ar    1  UNL1        0.0143
     19 C         -12.2872  -18.6919   24.4849 C.ar    1  UNL1        0.0768
     20 CL        -13.3497  -18.6895   25.5437 Cl      1  UNL1       -0.0806
     21 C         -10.9803  -19.3842   24.7355 C.ar    1  UNL1        0.1099
     22 N          -9.9178  -19.3867   23.6767 N.ar    1  UNL1       -0.2439
     23 N          -8.0373  -18.7018   20.2495 N.pl3   1  UNL1       -0.2174
     24 H          -8.2896  -18.7481   19.2991 H       1  UNL1        0.2460
     25 C          -6.5903  -18.6336   20.6389 C.cat   1  UNL1        0.4204
     26 N          -5.4203  -18.7469   19.7071 N.2     1  UNL1       -0.0678
     27 C          -4.1662  -18.6235   20.5206 C.2     1  UNL1        0.1937
     28 C          -2.7155  -18.6592   20.1405 C.2     1  UNL1        0.0693
     29 C          -1.6599  -18.5053   21.1950 C.2     1  UNL1        0.1420
     30 F          -0.2093  -18.5411   20.8149 F       1  UNL1       -0.2043
     31 C          -2.0548  -18.3157   22.6296 C.2     1  UNL1        0.0459
     32 C          -3.5054  -18.2799   23.0096 C.3     1  UNL1        0.2444
     33 F          -3.9003  -18.0903   24.4443 F       1  UNL1       -0.2241
     34 C          -4.5610  -18.4338   21.9553 C.2     1  UNL1        0.2068
     35 N          -6.0593  -18.4401   22.0283 N.2     1  UNL1       -0.0689
     36 C          -9.4590  -20.1112   20.9511 C.3     1  UNL1        0.0705
     37 C          -9.3743  -20.5689   19.5252 C.ar    1  UNL1       -0.0184
     38 C          -8.3456  -21.5838   19.1231 C.ar    1  UNL1       -0.0041
     39 C          -8.2609  -22.0414   17.6971 C.ar    1  UNL1       -0.0003
     40 C          -9.2049  -21.4841   16.6732 C.ar    1  UNL1       -0.0000
     41 C         -10.2336  -20.4692   17.0753 C.ar    1  UNL1       -0.0003
     42 C         -10.3183  -20.0116   18.5013 C.ar    1  UNL1       -0.0041
@<TRIPOS>BOND
     1     2     3    1
     2     3     4   ar
     3     4     5   ar
     4     5     9    1
     5     9    10    1
     6    10    11    1
     7    10    12    1
     8    10    13    1
     9    13    14    1
    10    13    15    1
    11     5     6   ar
    12     6     7   ar
    13     7     1    1
    14     1    36    1
    15    36    37    1
    16    37    38   ar
    17    38    39   ar
    18    39    40   ar
    19    40    41   ar
    20    41    42   ar
    21     1    23    1
    22    23    25    1
    23    25    26    2
    24    26    27    1
    25    27    28    2
    26    28    29    1
    27    29    30    1
    28    29    31    2
    29    31    32    1
    30    32    33    1
    31    32    34    1
    32    34    35    2
    33     1    16    1
    34    16    17   ar
    35    17    18   ar
    36    18    19   ar
    37    19    20    1
    38    19    21   ar
    39    21    22   ar
    40     7     8   ar
    41     8     3   ar
    42    42    37   ar
    43    35    25    1
    44    22    16   ar
    45    34    27    1
    46    23    24    1
