@<TRIPOS>MOLECULE
*****
 27 29 0 0 0
SMALL
GASTEIGER

@<TRIPOS>ATOM
      1 C          -8.1178  -19.4030   20.2296 C.ar    1  UNL1        0.1363
      2 N          -9.3731  -19.6542   19.4478 N.ar    1  UNL1       -0.1379
      3 N         -10.5346  -19.1847   20.2727 N.ar    1  UNL1       -0.1027
      4 C          -9.9972  -18.6433   21.5642 C.ar    1  UNL1        0.2825
      5 S          -8.5035  -18.7782   21.5376 S.2     1  UNL1       -0.0074
      6 C          -5.5552  -19.0117   20.4035 C.2     1  UNL1       -0.0048
      7 C          -6.7218  -19.7207   19.7820 C.2     1  UNL1        0.0248
      8 C          -4.1593  -19.3294   19.9558 C.3     1  UNL1        0.0939
      9 C          -3.7449  -20.7560   19.7476 C.3     1  UNL1        0.0262
     10 C          -0.9650  -17.0039   20.3268 C.3     1  UNL1        0.0946
     11 C          -1.9465  -18.1126   20.5661 C.2     1  UNL1        0.2232
     12 O          -1.6966  -19.1133   21.6553 O.2     1  UNL1       -0.2751
     13 N          -3.1778  -18.2207   19.7164 N.am    1  UNL1       -0.3022
     14 H          -3.3418  -17.5639   19.0016 H       1  UNL1        0.1497
     15 O         -10.8107  -18.0681   22.6855 O.3     1  UNL1       -0.4295
     16 C         -10.1263  -17.4870   23.8872 C.ar    1  UNL1        0.1584
     17 C          -9.7159  -16.0443   23.8920 C.ar    1  UNL1        0.0416
     18 C          -9.0315  -15.4633   25.0937 C.ar    1  UNL1        0.0401
     19 C          -8.7577  -16.3250   26.2906 C.ar    1  UNL1        0.1396
     20 C          -9.1682  -17.7677   26.2858 C.ar    1  UNL1        0.0514
     21 C          -9.8525  -18.3487   25.0841 C.ar    1  UNL1        0.0952
     22 CL        -10.2630  -19.7915   25.0792 Cl      1  UNL1       -0.0790
     23 O          -8.0733  -15.7439   27.4923 O.3     1  UNL1       -0.4754
     24 C          -6.7175  -15.1175   27.3535 C.3     1  UNL1        0.2053
     25 C          -5.8141  -15.5263   26.2279 C.3     1  UNL1        0.0438
     26 C          -4.6666  -16.3448   25.7149 C.3     1  UNL1        0.0038
     27 C          -5.3970  -15.4157   24.7913 C.3     1  UNL1        0.0038
@<TRIPOS>BOND
     1    10    11    1
     2    11    12    2
     3    11    13   am
     4    13     8    1
     5     8     9    1
     6     8     6    1
     7     6     7    2
     8     7     1    1
     9     1     2   ar
    10     2     3   ar
    11     3     4   ar
    12     4    15    1
    13    15    16    1
    14    16    17   ar
    15    17    18   ar
    16    18    19   ar
    17    19    23    1
    18    23    24    1
    19    24    25    1
    20    25    26    1
    21    26    27    1
    22    19    20   ar
    23    20    21   ar
    24    21    22    1
    25     4     5   ar
    26     5     1   ar
    27    21    16   ar
    28    27    25    1
    29    13    14    1
@<TRIPOS>MOLECULE
*****
 27 29 0 0 0
SMALL
GASTEIGER

@<TRIPOS>ATOM
      1 C          -4.8872  -16.2684   24.0766 C.ar    1  UNL1        0.1363
      2 N          -4.8234  -15.2027   25.1303 N.ar    1  UNL1       -0.1379
      3 N          -6.2282  -14.7987   25.4667 N.ar    1  UNL1       -0.1027
      4 C          -7.1603  -15.6147   24.6210 C.ar    1  UNL1        0.2825
      5 S          -6.3316  -16.5230   23.7618 S.2     1  UNL1       -0.0074
      6 C          -3.9318  -17.9866   22.3780 C.2     1  UNL1       -0.0048
      7 C          -3.7130  -16.9584   23.4480 C.2     1  UNL1        0.0248
      8 C          -2.7576  -18.6765   21.7495 C.3     1  UNL1        0.0939
      9 C          -2.8700  -20.1103   21.3234 C.3     1  UNL1        0.0262
     10 C           0.4092  -17.0767   19.9713 C.3     1  UNL1        0.0946
     11 C          -0.8775  -17.8205   20.1739 C.2     1  UNL1        0.2232
     12 O          -1.5708  -18.4524   19.0034 O.2     1  UNL1       -0.2751
     13 N          -1.4709  -17.9326   21.5470 N.am    1  UNL1       -0.3022
     14 H          -1.0159  -17.5179   22.3152 H       1  UNL1        0.1497
     15 O          -8.6582  -15.5361   24.6324 O.3     1  UNL1       -0.4295
     16 C          -9.4601  -16.3660   23.6741 C.ar    1  UNL1        0.1584
     17 C          -9.7432  -15.8534   22.2931 C.ar    1  UNL1        0.0416
     18 C         -10.5450  -16.6833   21.3349 C.ar    1  UNL1        0.0401
     19 C         -11.0639  -18.0257   21.7576 C.ar    1  UNL1        0.1396
     20 C         -10.7808  -18.5383   23.1386 C.ar    1  UNL1        0.0514
     21 C          -9.9789  -17.7084   24.0968 C.ar    1  UNL1        0.0952
     22 CL         -9.6959  -18.2209   25.4779 Cl      1  UNL1       -0.0790
     23 O         -11.8658  -18.8556   20.7993 O.3     1  UNL1       -0.4754
     24 C         -11.3204  -19.1648   19.4366 C.3     1  UNL1        0.2053
     25 C          -9.8974  -19.6138   19.2824 C.3     1  UNL1        0.0438
     26 C          -8.8636  -20.4313   18.5663 C.3     1  UNL1        0.0038
     27 C          -8.4668  -19.5741   19.7315 C.3     1  UNL1        0.0038
@<TRIPOS>BOND
     1    10    11    1
     2    11    12    2
     3    11    13   am
     4    13     8    1
     5     8     9    1
     6     8     6    1
     7     6     7    2
     8     7     1    1
     9     1     2   ar
    10     2     3   ar
    11     3     4   ar
    12     4    15    1
    13    15    16    1
    14    16    17   ar
    15    17    18   ar
    16    18    19   ar
    17    19    23    1
    18    23    24    1
    19    24    25    1
    20    25    26    1
    21    26    27    1
    22    19    20   ar
    23    20    21   ar
    24    21    22    1
    25     4     5   ar
    26     5     1   ar
    27    21    16   ar
    28    27    25    1
    29    13    14    1
@<TRIPOS>MOLECULE
*****
 27 29 0 0 0
SMALL
GASTEIGER

@<TRIPOS>ATOM
      1 C          -8.0843  -15.7342   24.6741 C.ar    1  UNL1        0.1363
      2 N          -7.5860  -15.3923   26.0470 N.ar    1  UNL1       -0.1379
      3 N          -6.0868  -15.3718   26.0042 N.ar    1  UNL1       -0.1027
      4 C          -5.6585  -15.7009   24.6049 C.ar    1  UNL1        0.2825
      5 S          -6.8930  -15.9249   23.7828 S.2     1  UNL1       -0.0074
      6 C          -9.9384  -16.9537   23.3230 C.2     1  UNL1       -0.0048
      7 C          -9.5215  -15.8628   24.2644 C.2     1  UNL1        0.0248
      8 C         -11.3756  -17.0823   22.9133 C.3     1  UNL1        0.0939
      9 C         -12.2799  -18.0344   23.6383 C.3     1  UNL1        0.0262
     10 C         -11.9542  -15.6795   19.2463 C.3     1  UNL1        0.0946
     11 C         -11.4213  -16.5030   20.3811 C.2     1  UNL1        0.2232
     12 O         -10.4012  -17.5709   20.1183 O.2     1  UNL1       -0.2751
     13 N         -11.9085  -16.2587   21.7785 N.am    1  UNL1       -0.3022
     14 H         -12.5780  -15.5578   21.9510 H       1  UNL1        0.1497
     15 O          -4.2440  -15.7904   24.1139 O.3     1  UNL1       -0.4295
     16 C          -3.8183  -16.9478   23.2598 C.ar    1  UNL1        0.1584
     17 C          -4.4214  -18.3035   23.4791 C.ar    1  UNL1        0.0416
     18 C          -3.9957  -19.4608   22.6251 C.ar    1  UNL1        0.0401
     19 C          -2.9669  -19.2623   21.5517 C.ar    1  UNL1        0.1396
     20 C          -2.3638  -17.9066   21.3324 C.ar    1  UNL1        0.0514
     21 C          -2.7895  -16.7493   22.1864 C.ar    1  UNL1        0.0952
     22 CL         -2.1863  -15.3935   21.9671 Cl      1  UNL1       -0.0790
     23 O          -2.5412  -20.4197   20.6976 O.3     1  UNL1       -0.4754
     24 C          -3.5162  -21.0489   19.7471 C.3     1  UNL1        0.2053
     25 C          -4.9888  -20.8266   19.9268 C.3     1  UNL1        0.0438
     26 C          -6.3615  -21.3695   20.1928 C.3     1  UNL1        0.0038
     27 C          -6.1665  -19.8988   19.9720 C.3     1  UNL1        0.0038
@<TRIPOS>BOND
     1    10    11    1
     2    11    12    2
     3    11    13   am
     4    13     8    1
     5     8     9    1
     6     8     6    1
     7     6     7    2
     8     7     1    1
     9     1     2   ar
    10     2     3   ar
    11     3     4   ar
    12     4    15    1
    13    15    16    1
    14    16    17   ar
    15    17    18   ar
    16    18    19   ar
    17    19    23    1
    18    23    24    1
    19    24    25    1
    20    25    26    1
    21    26    27    1
    22    19    20   ar
    23    20    21   ar
    24    21    22    1
    25     4     5   ar
    26     5     1   ar
    27    21    16   ar
    28    27    25    1
    29    13    14    1
@<TRIPOS>MOLECULE
*****
 27 29 0 0 0
SMALL
GASTEIGER

@<TRIPOS>ATOM
      1 C          -8.6899  -15.8442   24.3115 C.ar    1  UNL1        0.1363
      2 N          -8.4471  -15.6100   25.7731 N.ar    1  UNL1       -0.1379
      3 N          -7.0052  -15.2360   25.9495 N.ar    1  UNL1       -0.1027
      4 C          -6.3568  -15.2391   24.5969 C.ar    1  UNL1        0.2825
      5 S          -7.3980  -15.6149   23.5846 S.2     1  UNL1       -0.0074
      6 C         -10.0740  -16.4911   22.2101 C.2     1  UNL1       -0.0048
      7 C          -9.9953  -16.2383   23.6866 C.2     1  UNL1        0.0248
      8 C         -11.3794  -16.8852   21.5852 C.3     1  UNL1        0.0939
      9 C         -11.4369  -17.2403   20.1290 C.3     1  UNL1        0.0262
     10 C         -14.1070  -18.0994   24.1997 C.3     1  UNL1        0.0946
     11 C         -12.8591  -18.0603   23.3683 C.2     1  UNL1        0.2232
     12 O         -11.8431  -19.1571   23.4887 O.2     1  UNL1       -0.2751
     13 N         -12.6273  -16.9243   22.4166 N.am    1  UNL1       -0.3022
     14 H         -13.2942  -16.2044   22.3375 H       1  UNL1        0.1497
     15 O          -4.9196  -14.9220   24.3074 O.3     1  UNL1       -0.4295
     16 C          -4.0523  -15.9337   23.6186 C.ar    1  UNL1        0.1584
     17 C          -3.4863  -15.6367   22.2617 C.ar    1  UNL1        0.0416
     18 C          -2.6191  -16.6483   21.5729 C.ar    1  UNL1        0.0401
     19 C          -2.3179  -17.9571   22.2411 C.ar    1  UNL1        0.1396
     20 C          -2.8839  -18.2541   23.5981 C.ar    1  UNL1        0.0514
     21 C          -3.7512  -17.2425   24.2868 C.ar    1  UNL1        0.0952
     22 CL         -4.3172  -17.5395   25.6438 Cl      1  UNL1       -0.0790
     23 O          -1.4506  -18.9688   21.5523 O.3     1  UNL1       -0.4754
     24 C          -2.0591  -19.9514   20.5962 C.3     1  UNL1        0.2053
     25 C          -3.5253  -19.8866   20.2860 C.3     1  UNL1        0.0438
     26 C          -4.8862  -20.5171   20.3051 C.3     1  UNL1        0.0038
     27 C          -4.7038  -19.1440   19.7297 C.3     1  UNL1        0.0038
@<TRIPOS>BOND
     1    10    11    1
     2    11    12    2
     3    11    13   am
     4    13     8    1
     5     8     9    1
     6     8     6    1
     7     6     7    2
     8     7     1    1
     9     1     2   ar
    10     2     3   ar
    11     3     4   ar
    12     4    15    1
    13    15    16    1
    14    16    17   ar
    15    17    18   ar
    16    18    19   ar
    17    19    23    1
    18    23    24    1
    19    24    25    1
    20    25    26    1
    21    26    27    1
    22    19    20   ar
    23    20    21   ar
    24    21    22    1
    25     4     5   ar
    26     5     1   ar
    27    21    16   ar
    28    27    25    1
    29    13    14    1
@<TRIPOS>MOLECULE
*****
 27 29 0 0 0
SMALL
GASTEIGER

@<TRIPOS>ATOM
      1 C           4.7568   -1.0860   34.4662 C.ar    1  UNL1        0.1363
      2 N           3.9506   -2.1764   33.8248 N.ar    1  UNL1       -0.1379
      3 N           4.8067   -2.8347   32.7838 N.ar    1  UNL1       -0.1027
      4 C           6.1420   -2.1513   32.7818 C.ar    1  UNL1        0.2825
      5 S           6.1111   -1.0706   33.8216 S.2     1  UNL1       -0.0074
      6 C           5.2246    0.2056   36.6714 C.2     1  UNL1       -0.0048
      7 C           4.2904   -0.1718   35.5601 C.2     1  UNL1        0.0248
      8 C           4.7583    1.1198   37.7653 C.3     1  UNL1        0.0939
      9 C           5.4368    2.4404   37.9793 C.3     1  UNL1        0.0262
     10 C           1.0922    0.8404   39.2589 C.3     1  UNL1        0.0946
     11 C           2.2370    1.2467   38.3790 C.2     1  UNL1        0.2232
     12 O           2.0053    2.1862   37.2329 O.2     1  UNL1       -0.2751
     13 N           3.6135    0.7135   38.6453 N.am    1  UNL1       -0.3022
     14 H           3.7656    0.0969   39.3975 H       1  UNL1        0.1497
     15 O           7.3040   -2.4893   31.8957 O.3     1  UNL1       -0.4295
     16 C           7.0659   -3.1040   30.5483 C.ar    1  UNL1        0.1584
     17 C           6.9709   -2.2314   29.3320 C.ar    1  UNL1        0.0416
     18 C           6.7328   -2.8462   27.9847 C.ar    1  UNL1        0.0401
     19 C           6.5896   -4.3336   27.8537 C.ar    1  UNL1        0.1396
     20 C           6.6846   -5.2062   29.0700 C.ar    1  UNL1        0.0514
     21 C           6.9227   -4.5914   30.4173 C.ar    1  UNL1        0.0952
     22 CL          7.0177   -5.4640   31.6337 Cl      1  UNL1       -0.0790
     23 O           6.3515   -4.9484   26.5063 O.3     1  UNL1       -0.4754
     24 C           7.4838   -5.0806   25.5315 C.3     1  UNL1        0.2053
     25 C           7.9583   -6.4407   25.1130 C.3     1  UNL1        0.0438
     26 C           8.3689   -7.3981   24.0338 C.3     1  UNL1        0.0038
     27 C           8.3696   -7.8390   25.4675 C.3     1  UNL1        0.0038
@<TRIPOS>BOND
     1    10    11    1
     2    11    12    2
     3    11    13   am
     4    13     8    1
     5     8     9    1
     6     8     6    1
     7     6     7    2
     8     7     1    1
     9     1     2   ar
    10     2     3   ar
    11     3     4   ar
    12     4    15    1
    13    15    16    1
    14    16    17   ar
    15    17    18   ar
    16    18    19   ar
    17    19    23    1
    18    23    24    1
    19    24    25    1
    20    25    26    1
    21    26    27    1
    22    19    20   ar
    23    20    21   ar
    24    21    22    1
    25     4     5   ar
    26     5     1   ar
    27    21    16   ar
    28    27    25    1
    29    13    14    1
@<TRIPOS>MOLECULE
*****
 27 29 0 0 0
SMALL
GASTEIGER

@<TRIPOS>ATOM
      1 C           5.2309   -2.1020   25.1155 C.ar    1  UNL1        0.1363
      2 N           6.2669   -2.9954   25.7308 N.ar    1  UNL1       -0.1379
      3 N           6.7018   -3.9854   24.6912 N.ar    1  UNL1       -0.1027
      4 C           5.9346   -3.7039   23.4334 C.ar    1  UNL1        0.2825
      5 S           5.0255   -2.5399   23.6956 S.2     1  UNL1       -0.0074
      6 C           3.6512   -1.2397   26.9893 C.2     1  UNL1       -0.0048
      7 C           4.5243   -0.9696   25.7999 C.2     1  UNL1        0.0248
      8 C           2.9447   -0.1073   27.6737 C.3     1  UNL1        0.0939
      9 C           3.7364    0.9553   28.3767 C.3     1  UNL1        0.0262
     10 C          -0.8260   -0.1318   28.9110 C.3     1  UNL1        0.0946
     11 C           0.6722   -0.2016   28.9294 C.2     1  UNL1        0.2232
     12 O           1.3962   -0.4354   30.2222 O.2     1  UNL1       -0.2751
     13 N           1.4464   -0.0376   27.6552 N.am    1  UNL1       -0.3022
     14 H           0.9712    0.1159   26.8068 H       1  UNL1        0.1497
     15 O           6.0552   -4.4545   22.1404 O.3     1  UNL1       -0.4295
     16 C           5.6638   -3.7953   20.8511 C.ar    1  UNL1        0.1584
     17 C           4.2842   -3.9928   20.2964 C.ar    1  UNL1        0.0416
     18 C           3.8929   -3.3336   19.0071 C.ar    1  UNL1        0.0401
     19 C           4.8811   -2.4770   18.2725 C.ar    1  UNL1        0.1396
     20 C           6.2607   -2.2795   18.8272 C.ar    1  UNL1        0.0514
     21 C           6.6520   -2.9387   20.1165 C.ar    1  UNL1        0.0952
     22 CL          8.0317   -2.7413   20.6712 Cl      1  UNL1       -0.0790
     23 O           4.4897   -1.8177   16.9832 O.3     1  UNL1       -0.4754
     24 C           4.0257   -0.3913   16.9808 C.3     1  UNL1        0.2053
     25 C           3.0241    0.0733   17.9961 C.3     1  UNL1        0.0438
     26 C           2.6702    0.4000   19.4167 C.3     1  UNL1        0.0038
     27 C           1.6431    0.5515   18.3341 C.3     1  UNL1        0.0038
@<TRIPOS>BOND
     1    10    11    1
     2    11    12    2
     3    11    13   am
     4    13     8    1
     5     8     9    1
     6     8     6    1
     7     6     7    2
     8     7     1    1
     9     1     2   ar
    10     2     3   ar
    11     3     4   ar
    12     4    15    1
    13    15    16    1
    14    16    17   ar
    15    17    18   ar
    16    18    19   ar
    17    19    23    1
    18    23    24    1
    19    24    25    1
    20    25    26    1
    21    26    27    1
    22    19    20   ar
    23    20    21   ar
    24    21    22    1
    25     4     5   ar
    26     5     1   ar
    27    21    16   ar
    28    27    25    1
    29    13    14    1
@<TRIPOS>MOLECULE
*****
 27 29 0 0 0
SMALL
GASTEIGER

@<TRIPOS>ATOM
      1 C           8.1937   -6.6500   24.0423 C.ar    1  UNL1        0.1363
      2 N           8.4851   -6.9783   22.6080 N.ar    1  UNL1       -0.1379
      3 N           8.2568   -5.7397   21.7933 N.ar    1  UNL1       -0.1027
      4 C           7.8244   -4.6458   22.7241 C.ar    1  UNL1        0.2825
      5 S           7.7854   -5.2084   24.1141 S.2     1  UNL1       -0.0074
      6 C           8.7071   -7.0896   26.5510 C.2     1  UNL1       -0.0048
      7 C           8.2933   -7.5969   25.2014 C.2     1  UNL1        0.0248
      8 C           8.8067   -8.0365   27.7100 C.3     1  UNL1        0.0939
      9 C           8.2307   -9.4173   27.6020 C.3     1  UNL1        0.0262
     10 C           9.4462   -6.2561   31.1986 C.3     1  UNL1        0.0946
     11 C           8.7708   -6.6900   29.9316 C.2     1  UNL1        0.2232
     12 O           7.3840   -6.2113   29.6191 O.2     1  UNL1       -0.2751
     13 N           9.4822   -7.6026   28.9771 N.am    1  UNL1       -0.3022
     14 H          10.3924   -7.9168   29.1822 H       1  UNL1        0.1497
     15 O           7.4897   -3.2368   22.3335 O.3     1  UNL1       -0.4295
     16 C           6.7404   -2.9688   21.0620 C.ar    1  UNL1        0.1584
     17 C           7.4719   -2.4699   19.8512 C.ar    1  UNL1        0.0416
     18 C           6.7226   -2.2020   18.5798 C.ar    1  UNL1        0.0401
     19 C           5.2417   -2.4329   18.5190 C.ar    1  UNL1        0.1396
     20 C           4.5102   -2.9318   19.7298 C.ar    1  UNL1        0.0514
     21 C           5.2595   -3.1998   21.0012 C.ar    1  UNL1        0.0952
     22 CL          4.5279   -3.6987   22.2120 Cl      1  UNL1       -0.0790
     23 O           4.4924   -2.1649   17.2475 O.3     1  UNL1       -0.4754
     24 C           4.1120   -0.7605   16.8828 C.3     1  UNL1        0.2053
     25 C           3.3089    0.0712   17.8386 C.3     1  UNL1        0.0438
     26 C           1.9923    0.4218   18.4658 C.3     1  UNL1        0.0038
     27 C           3.2345    1.1610   18.8665 C.3     1  UNL1        0.0038
@<TRIPOS>BOND
     1    10    11    1
     2    11    12    2
     3    11    13   am
     4    13     8    1
     5     8     9    1
     6     8     6    1
     7     6     7    2
     8     7     1    1
     9     1     2   ar
    10     2     3   ar
    11     3     4   ar
    12     4    15    1
    13    15    16    1
    14    16    17   ar
    15    17    18   ar
    16    18    19   ar
    17    19    23    1
    18    23    24    1
    19    24    25    1
    20    25    26    1
    21    26    27    1
    22    19    20   ar
    23    20    21   ar
    24    21    22    1
    25     4     5   ar
    26     5     1   ar
    27    21    16   ar
    28    27    25    1
    29    13    14    1
@<TRIPOS>MOLECULE
*****
 27 29 0 0 0
SMALL
GASTEIGER

@<TRIPOS>ATOM
      1 C           2.3079   -0.3761   19.7174 C.ar    1  UNL1        0.1363
      2 N           0.9948   -0.8940   20.2251 N.ar    1  UNL1       -0.1379
      3 N           0.0824    0.2786   20.4311 N.ar    1  UNL1       -0.1027
      4 C           0.8315    1.5212   20.0507 C.ar    1  UNL1        0.2825
      5 S           2.2069    1.1166   19.6096 S.2     1  UNL1       -0.0074
      6 C           3.5681   -2.6470   19.7874 C.2     1  UNL1       -0.0048
      7 C           3.5107   -1.2053   19.3772 C.2     1  UNL1        0.0248
      8 C           4.7709   -3.4762   19.4472 C.3     1  UNL1        0.0939
      9 C           4.6008   -4.7941   18.7513 C.3     1  UNL1        0.0262
     10 C           8.3847   -1.8716   19.1081 C.3     1  UNL1        0.0946
     11 C           7.0119   -2.3603   18.7526 C.2     1  UNL1        0.2232
     12 O           6.5073   -2.2219   17.3468 O.2     1  UNL1       -0.2751
     13 N           6.1437   -2.9875   19.8028 N.am    1  UNL1       -0.3022
     14 H           6.4749   -3.0783   20.7254 H       1  UNL1        0.1497
     15 O           0.2987    2.9224   20.1024 O.3     1  UNL1       -0.4295
     16 C          -0.9562    3.2199   20.8684 C.ar    1  UNL1        0.1584
     17 C          -2.2743    3.2786   20.1548 C.ar    1  UNL1        0.0416
     18 C          -3.5291    3.5761   20.9208 C.ar    1  UNL1        0.0401
     19 C          -3.4659    3.8149   22.4003 C.ar    1  UNL1        0.1396
     20 C          -2.1478    3.7563   23.1139 C.ar    1  UNL1        0.0514
     21 C          -0.8930    3.4588   22.3479 C.ar    1  UNL1        0.0952
     22 CL          0.4252    3.4001   23.0614 Cl      1  UNL1       -0.0790
     23 O          -4.7209    4.1124   23.1663 O.3     1  UNL1       -0.4754
     24 C          -5.0136    3.3776   24.4408 C.3     1  UNL1        0.2053
     25 C          -4.4516    3.8752   25.7395 C.3     1  UNL1        0.0438
     26 C          -4.6303    4.6052   27.0376 C.3     1  UNL1        0.0038
     27 C          -3.2993    4.0068   26.6908 C.3     1  UNL1        0.0038
@<TRIPOS>BOND
     1    10    11    1
     2    11    12    2
     3    11    13   am
     4    13     8    1
     5     8     9    1
     6     8     6    1
     7     6     7    2
     8     7     1    1
     9     1     2   ar
    10     2     3   ar
    11     3     4   ar
    12     4    15    1
    13    15    16    1
    14    16    17   ar
    15    17    18   ar
    16    18    19   ar
    17    19    23    1
    18    23    24    1
    19    24    25    1
    20    25    26    1
    21    26    27    1
    22    19    20   ar
    23    20    21   ar
    24    21    22    1
    25     4     5   ar
    26     5     1   ar
    27    21    16   ar
    28    27    25    1
    29    13    14    1
@<TRIPOS>MOLECULE
*****
 27 29 0 0 0
SMALL
GASTEIGER

@<TRIPOS>ATOM
      1 C           7.7460   -5.4312   23.4253 C.ar    1  UNL1        0.1363
      2 N           8.4211   -6.2610   22.3737 N.ar    1  UNL1       -0.1379
      3 N           8.2746   -5.5527   21.0596 N.ar    1  UNL1       -0.1027
      4 C           7.5089   -4.2853   21.2990 C.ar    1  UNL1        0.2825
      5 S           7.1822   -4.2102   22.7611 S.2     1  UNL1       -0.0074
      6 C           7.7827   -7.1874   25.3396 C.2     1  UNL1       -0.0048
      7 C           7.6513   -5.7641   24.8849 C.2     1  UNL1        0.0248
      8 C           7.6880   -7.5203   26.7991 C.3     1  UNL1        0.0939
      9 C           8.3519   -8.7556   27.3313 C.3     1  UNL1        0.0262
     10 C           6.9120   -4.8220   29.6038 C.3     1  UNL1        0.0946
     11 C           7.6705   -5.7245   28.6765 C.2     1  UNL1        0.2232
     12 O           9.1704   -5.7337   28.6992 O.2     1  UNL1       -0.2751
     13 N           6.9293   -6.6178   27.7264 N.am    1  UNL1       -0.3022
     14 H           5.9450   -6.6118   27.7115 H       1  UNL1        0.1497
     15 O           7.1355   -3.2711   20.2589 O.3     1  UNL1       -0.4295
     16 C           5.7226   -2.7754   20.1678 C.ar    1  UNL1        0.1584
     17 C           5.3594   -1.4363   20.7377 C.ar    1  UNL1        0.0416
     18 C           3.9466   -0.9407   20.6466 C.ar    1  UNL1        0.0401
     19 C           2.8970   -1.7842   19.9857 C.ar    1  UNL1        0.1396
     20 C           3.2602   -3.1233   19.4158 C.ar    1  UNL1        0.0514
     21 C           4.6730   -3.6189   19.5069 C.ar    1  UNL1        0.0952
     22 CL          5.0363   -4.9581   18.9371 Cl      1  UNL1       -0.0790
     23 O           1.4842   -1.2885   19.8946 O.3     1  UNL1       -0.4754
     24 C           1.1432    0.0952   20.3625 C.3     1  UNL1        0.2053
     25 C           1.2194    1.2498   19.4080 C.3     1  UNL1        0.0438
     26 C           2.0345    2.2223   18.6080 C.3     1  UNL1        0.0038
     27 C           0.5365    2.2771   18.5546 C.3     1  UNL1        0.0038
@<TRIPOS>BOND
     1    10    11    1
     2    11    12    2
     3    11    13   am
     4    13     8    1
     5     8     9    1
     6     8     6    1
     7     6     7    2
     8     7     1    1
     9     1     2   ar
    10     2     3   ar
    11     3     4   ar
    12     4    15    1
    13    15    16    1
    14    16    17   ar
    15    17    18   ar
    16    18    19   ar
    17    19    23    1
    18    23    24    1
    19    24    25    1
    20    25    26    1
    21    26    27    1
    22    19    20   ar
    23    20    21   ar
    24    21    22    1
    25     4     5   ar
    26     5     1   ar
    27    21    16   ar
    28    27    25    1
    29    13    14    1
