@<TRIPOS>MOLECULE
*****
 26 28 0 0 0
SMALL
GASTEIGER

@<TRIPOS>ATOM
      1 C          -5.6911  -16.3357   23.6115 C.ar    1  UNL1        0.1362
      2 C          -7.1459  -16.2164   23.2661 C.ar    1  UNL1        0.0397
      3 C          -7.8163  -17.2903   22.4615 C.ar    1  UNL1        0.0384
      4 C          -7.0318  -18.4835   22.0022 C.ar    1  UNL1        0.1386
      5 C          -5.5770  -18.6028   22.3475 C.ar    1  UNL1        0.0370
      6 C          -4.9066  -17.5289   23.1521 C.ar    1  UNL1        0.0309
      7 C          -9.2711  -17.1710   22.1161 C.ar    1  UNL1        0.0206
      8 C          -9.6889  -16.4562   20.8654 C.ar    1  UNL1        0.0784
      9 N         -11.1437  -16.3369   20.5200 N.ar    1  UNL1       -0.2921
     10 C         -11.5615  -15.6221   19.2692 C.3     1  UNL1        0.1336
     11 C         -12.1808  -16.9324   21.4255 C.ar    1  UNL1        0.2624
     12 O         -13.6356  -16.8131   21.0801 O.2     1  UNL1       -0.2669
     13 C         -11.7630  -17.6473   22.6763 C.ar    1  UNL1        0.0753
     14 C         -12.8001  -18.2428   23.5818 C.ar    1  UNL1        0.1036
     15 N         -12.3823  -18.9576   24.8325 N.ar    1  UNL1       -0.2422
     16 C         -10.9275  -19.0769   25.1779 C.ar    1  UNL1        0.0989
     17 C          -9.8904  -18.4814   24.2724 C.ar    1  UNL1        0.0209
     18 C         -10.3082  -17.7666   23.0217 C.ar    1  UNL1        0.0092
     19 C          -5.3263  -15.1187   25.8776 C.3     1  UNL1        0.2525
     20 O          -5.0208  -15.2619   24.4161 O.3     1  UNL1       -0.4717
     21 O          -7.7022  -19.5574   21.1975 O.3     1  UNL1       -0.4714
     22 C          -7.6273  -19.5294   19.6997 C.3     1  UNL1        0.2525
     23 C          -3.4518  -17.6482   23.4975 C.3     1  UNL1        0.1023
     24 N          -2.4140  -17.5433   22.4196 N.3     1  UNL1       -0.2664
     25 C          -2.0580  -16.2024   21.8492 C.3     1  UNL1        0.0899
     26 C          -1.7322  -18.7792   21.9119 C.3     1  UNL1        0.0899
@<TRIPOS>BOND
     1    19    20    1
     2    20     1    1
     3     1     2   ar
     4     2     3   ar
     5     3     7    1
     6     7     8   ar
     7     8     9   ar
     8     9    10    1
     9     9    11   ar
    10    11    12    2
    11    11    13   ar
    12    13    14   ar
    13    14    15   ar
    14    15    16   ar
    15    16    17   ar
    16    17    18   ar
    17     3     4   ar
    18     4    21    1
    19    21    22    1
    20     4     5   ar
    21     5     6   ar
    22     6    23    1
    23    23    24    1
    24    24    25    1
    25    24    26    1
    26     6     1   ar
    27    18     7   ar
    28    18    13   ar
@<TRIPOS>MOLECULE
*****
 26 28 0 0 0
SMALL
GASTEIGER

@<TRIPOS>ATOM
      1 C          -5.5029  -18.7747   22.1627 C.ar    1  UNL1        0.1362
      2 C          -6.9628  -18.6147   21.8576 C.ar    1  UNL1        0.0397
      3 C          -7.7189  -17.4402   22.4045 C.ar    1  UNL1        0.0384
      4 C          -7.0152  -16.4259   23.2564 C.ar    1  UNL1        0.1386
      5 C          -5.5553  -16.5859   23.5615 C.ar    1  UNL1        0.0370
      6 C          -4.7991  -17.7603   23.0147 C.ar    1  UNL1        0.0309
      7 C          -9.1788  -17.2802   22.0994 C.ar    1  UNL1        0.0206
      8 C          -9.6110  -16.5448   20.8656 C.ar    1  UNL1        0.0784
      9 N         -11.0709  -16.3848   20.5606 N.ar    1  UNL1       -0.2921
     10 C         -11.5030  -15.6493   19.3267 C.3     1  UNL1        0.1336
     11 C         -12.0987  -16.9602   21.4893 C.ar    1  UNL1        0.2624
     12 O         -13.5586  -16.8001   21.1842 O.2     1  UNL1       -0.2669
     13 C         -11.6665  -17.6956   22.7232 C.ar    1  UNL1        0.0753
     14 C         -12.6943  -18.2711   23.6519 C.ar    1  UNL1        0.1036
     15 N         -12.2621  -19.0065   24.8857 N.ar    1  UNL1       -0.2422
     16 C         -10.8022  -19.1665   25.1908 C.ar    1  UNL1        0.0989
     17 C          -9.7745  -18.5911   24.2621 C.ar    1  UNL1        0.0209
     18 C         -10.2066  -17.8557   23.0283 C.ar    1  UNL1        0.0092
     19 C          -4.5592  -20.0966   20.1350 C.3     1  UNL1        0.2525
     20 O          -4.7467  -19.9491   21.6159 O.3     1  UNL1       -0.4717
     21 O          -7.7713  -15.2515   23.8033 O.3     1  UNL1       -0.4714
     22 C          -8.3027  -15.2886   25.2055 C.3     1  UNL1        0.2525
     23 C          -3.3392  -17.9203   23.3198 C.3     1  UNL1        0.1023
     24 N          -2.3137  -17.5742   22.2813 N.3     1  UNL1       -0.2664
     25 C          -2.1002  -16.1431   21.8858 C.3     1  UNL1        0.0899
     26 C          -1.5015  -18.6592   21.6384 C.3     1  UNL1        0.0899
@<TRIPOS>BOND
     1    19    20    1
     2    20     1    1
     3     1     2   ar
     4     2     3   ar
     5     3     7    1
     6     7     8   ar
     7     8     9   ar
     8     9    10    1
     9     9    11   ar
    10    11    12    2
    11    11    13   ar
    12    13    14   ar
    13    14    15   ar
    14    15    16   ar
    15    16    17   ar
    16    17    18   ar
    17     3     4   ar
    18     4    21    1
    19    21    22    1
    20     4     5   ar
    21     5     6   ar
    22     6    23    1
    23    23    24    1
    24    24    25    1
    25    24    26    1
    26     6     1   ar
    27    18     7   ar
    28    18    13   ar
@<TRIPOS>MOLECULE
*****
 26 28 0 0 0
SMALL
GASTEIGER

@<TRIPOS>ATOM
      1 C          -5.3140  -18.9934   22.1039 C.ar    1  UNL1        0.1362
      2 C          -6.7150  -18.5055   22.3261 C.ar    1  UNL1        0.0397
      3 C          -7.7351  -18.6313   21.2336 C.ar    1  UNL1        0.0384
      4 C          -7.3544  -19.2450   19.9190 C.ar    1  UNL1        0.1386
      5 C          -5.9534  -19.7329   19.6967 C.ar    1  UNL1        0.0370
      6 C          -4.9333  -19.6071   20.7891 C.ar    1  UNL1        0.0309
      7 C          -9.1361  -18.1435   21.4559 C.ar    1  UNL1        0.0206
      8 C          -9.7796  -17.2296   20.4555 C.ar    1  UNL1        0.0784
      9 N         -11.1805  -16.7418   20.6778 N.ar    1  UNL1       -0.2921
     10 C         -11.8240  -15.8279   19.6773 C.3     1  UNL1        0.1336
     11 C         -11.9379  -17.1677   21.9004 C.ar    1  UNL1        0.2624
     12 O         -13.3388  -16.6799   22.1226 O.2     1  UNL1       -0.2669
     13 C         -11.2944  -18.0816   22.9008 C.ar    1  UNL1        0.0753
     14 C         -12.0518  -18.5076   24.1234 C.ar    1  UNL1        0.1036
     15 N         -11.4083  -19.4214   25.1237 N.ar    1  UNL1       -0.2422
     16 C         -10.0074  -19.9093   24.9015 C.ar    1  UNL1        0.0989
     17 C          -9.2500  -19.4833   23.6789 C.ar    1  UNL1        0.0209
     18 C          -9.8935  -18.5695   22.6785 C.ar    1  UNL1        0.0092
     19 C          -3.8748  -17.5104   23.6784 C.3     1  UNL1        0.2525
     20 O          -4.2939  -18.8675   23.1963 O.3     1  UNL1       -0.4717
     21 O          -8.3746  -19.3709   18.8265 O.3     1  UNL1       -0.4714
     22 C          -8.8345  -20.7278   18.3825 C.3     1  UNL1        0.2525
     23 C          -3.5324  -20.0949   20.5669 C.3     1  UNL1        0.1023
     24 N          -2.4381  -19.1172   20.2560 N.3     1  UNL1       -0.2664
     25 C          -1.3926  -18.8091   21.2865 C.3     1  UNL1        0.0899
     26 C          -2.3894  -18.4475   18.9146 C.3     1  UNL1        0.0899
@<TRIPOS>BOND
     1    19    20    1
     2    20     1    1
     3     1     2   ar
     4     2     3   ar
     5     3     7    1
     6     7     8   ar
     7     8     9   ar
     8     9    10    1
     9     9    11   ar
    10    11    12    2
    11    11    13   ar
    12    13    14   ar
    13    14    15   ar
    14    15    16   ar
    15    16    17   ar
    16    17    18   ar
    17     3     4   ar
    18     4    21    1
    19    21    22    1
    20     4     5   ar
    21     5     6   ar
    22     6    23    1
    23    23    24    1
    24    24    25    1
    25    24    26    1
    26     6     1   ar
    27    18     7   ar
    28    18    13   ar
@<TRIPOS>MOLECULE
*****
 26 28 0 0 0
SMALL
GASTEIGER

@<TRIPOS>ATOM
      1 C          -3.7713  -19.1275   21.5701 C.ar    1  UNL1        0.1362
      2 C          -5.0328  -18.9470   22.3614 C.ar    1  UNL1        0.0397
      3 C          -6.3556  -18.8753   21.6578 C.ar    1  UNL1        0.0384
      4 C          -6.4170  -18.9842   20.1630 C.ar    1  UNL1        0.1386
      5 C          -5.1555  -19.1646   19.3718 C.ar    1  UNL1        0.0370
      6 C          -3.8327  -19.2363   20.0753 C.ar    1  UNL1        0.0309
      7 C          -7.6171  -18.6949   22.4491 C.ar    1  UNL1        0.0206
      8 C          -8.6764  -19.7566   22.4242 C.ar    1  UNL1        0.0784
      9 N          -9.9379  -19.5761   23.2154 N.ar    1  UNL1       -0.2921
     10 C         -10.9972  -20.6379   23.1905 C.3     1  UNL1        0.1336
     11 C         -10.1401  -18.3339   24.0316 C.ar    1  UNL1        0.2624
     12 O         -11.4016  -18.1535   24.8228 O.2     1  UNL1       -0.2669
     13 C          -9.0808  -17.2722   24.0565 C.ar    1  UNL1        0.0753
     14 C          -9.2830  -16.0300   24.8726 C.ar    1  UNL1        0.1036
     15 N          -8.2237  -14.9683   24.8975 N.ar    1  UNL1       -0.2422
     16 C          -6.9622  -15.1488   24.1062 C.ar    1  UNL1        0.0989
     17 C          -6.7600  -16.3909   23.2901 C.ar    1  UNL1        0.0209
     18 C          -7.8193  -17.4526   23.2652 C.ar    1  UNL1        0.0092
     19 C          -1.9249  -18.0019   23.0102 C.3     1  UNL1        0.2525
     20 O          -2.4485  -19.1991   22.2736 O.3     1  UNL1       -0.4717
     21 O          -7.7398  -18.9125   19.4595 O.3     1  UNL1       -0.4714
     22 C          -8.3524  -20.1557   18.8857 C.3     1  UNL1        0.2525
     23 C          -2.5712  -19.4167   19.2840 C.3     1  UNL1        0.1023
     24 N          -1.7216  -18.2278   18.9456 N.3     1  UNL1       -0.2664
     25 C          -0.3986  -18.0335   19.6254 C.3     1  UNL1        0.0899
     26 C          -2.1949  -17.2332   17.9273 C.3     1  UNL1        0.0899
@<TRIPOS>BOND
     1    19    20    1
     2    20     1    1
     3     1     2   ar
     4     2     3   ar
     5     3     7    1
     6     7     8   ar
     7     8     9   ar
     8     9    10    1
     9     9    11   ar
    10    11    12    2
    11    11    13   ar
    12    13    14   ar
    13    14    15   ar
    14    15    16   ar
    15    16    17   ar
    16    17    18   ar
    17     3     4   ar
    18     4    21    1
    19    21    22    1
    20     4     5   ar
    21     5     6   ar
    22     6    23    1
    23    23    24    1
    24    24    25    1
    25    24    26    1
    26     6     1   ar
    27    18     7   ar
    28    18    13   ar
@<TRIPOS>MOLECULE
*****
 26 28 0 0 0
SMALL
GASTEIGER

@<TRIPOS>ATOM
      1 C          -3.9874  -18.6719   21.8946 C.ar    1  UNL1        0.1362
      2 C          -5.3245  -18.6286   22.5732 C.ar    1  UNL1        0.0397
      3 C          -6.5234  -19.2367   21.9076 C.ar    1  UNL1        0.0384
      4 C          -6.3851  -19.8881   20.5635 C.ar    1  UNL1        0.1386
      5 C          -5.0481  -19.9314   19.8850 C.ar    1  UNL1        0.0370
      6 C          -3.8492  -19.3233   20.5505 C.ar    1  UNL1        0.0309
      7 C          -7.8604  -19.1935   22.5861 C.ar    1  UNL1        0.0206
      8 C          -8.2973  -20.3346   23.4560 C.ar    1  UNL1        0.0784
      9 N          -9.6343  -20.2914   24.1346 N.ar    1  UNL1       -0.2921
     10 C         -10.0712  -21.4326   25.0045 C.3     1  UNL1        0.1336
     11 C         -10.5345  -19.1069   23.9432 C.ar    1  UNL1        0.2624
     12 O         -11.8716  -19.0636   24.6217 O.2     1  UNL1       -0.2669
     13 C         -10.0977  -17.9656   23.0732 C.ar    1  UNL1        0.0753
     14 C         -10.9979  -16.7812   22.8818 C.ar    1  UNL1        0.1036
     15 N         -10.5610  -15.6400   22.0119 N.ar    1  UNL1       -0.2422
     16 C          -9.2239  -15.6833   21.3334 C.ar    1  UNL1        0.0989
     17 C          -8.3238  -16.8677   21.5248 C.ar    1  UNL1        0.0209
     18 C          -8.7606  -18.0089   22.3947 C.ar    1  UNL1        0.0092
     19 C          -2.5318  -16.5907   22.4419 C.3     1  UNL1        0.2525
     20 O          -2.7886  -18.0638   22.5602 O.3     1  UNL1       -0.4717
     21 O          -7.5840  -20.4962   19.8979 O.3     1  UNL1       -0.4714
     22 C          -8.4702  -19.6511   19.0316 C.3     1  UNL1        0.2525
     23 C          -2.5122  -19.3666   19.8720 C.3     1  UNL1        0.1023
     24 N          -1.8960  -18.1035   19.3476 N.3     1  UNL1       -0.2664
     25 C          -0.4544  -17.7992   19.6291 C.3     1  UNL1        0.0899
     26 C          -2.7214  -17.1447   18.5417 C.3     1  UNL1        0.0899
@<TRIPOS>BOND
     1    19    20    1
     2    20     1    1
     3     1     2   ar
     4     2     3   ar
     5     3     7    1
     6     7     8   ar
     7     8     9   ar
     8     9    10    1
     9     9    11   ar
    10    11    12    2
    11    11    13   ar
    12    13    14   ar
    13    14    15   ar
    14    15    16   ar
    15    16    17   ar
    16    17    18   ar
    17     3     4   ar
    18     4    21    1
    19    21    22    1
    20     4     5   ar
    21     5     6   ar
    22     6    23    1
    23    23    24    1
    24    24    25    1
    25    24    26    1
    26     6     1   ar
    27    18     7   ar
    28    18    13   ar
@<TRIPOS>MOLECULE
*****
 26 28 0 0 0
SMALL
GASTEIGER

@<TRIPOS>ATOM
      1 C         -11.6285  -17.0734   21.9293 C.ar    1  UNL1        0.1362
      2 C         -10.1778  -17.3584   21.6757 C.ar    1  UNL1        0.0397
      3 C          -9.4157  -18.2545   22.6065 C.ar    1  UNL1        0.0384
      4 C         -10.1042  -18.8655   23.7908 C.ar    1  UNL1        0.1386
      5 C         -11.5548  -18.5804   24.0444 C.ar    1  UNL1        0.0370
      6 C         -12.3170  -17.6844   23.1137 C.ar    1  UNL1        0.0309
      7 C          -7.9650  -18.5396   22.3529 C.ar    1  UNL1        0.0206
      8 C          -7.5678  -19.7142   21.5088 C.ar    1  UNL1        0.0784
      9 N          -6.1172  -19.9992   21.2552 N.ar    1  UNL1       -0.2921
     10 C          -5.7201  -21.1739   20.4110 C.3     1  UNL1        0.1336
     11 C          -5.0636  -19.1097   21.8457 C.ar    1  UNL1        0.2624
     12 O          -3.6130  -19.3947   21.5921 O.2     1  UNL1       -0.2669
     13 C          -5.4608  -17.9350   22.6899 C.ar    1  UNL1        0.0753
     14 C          -4.4072  -17.0455   23.2804 C.ar    1  UNL1        0.1036
     15 N          -4.8044  -15.8709   24.1245 N.ar    1  UNL1       -0.2422
     16 C          -6.2550  -15.5858   24.3781 C.ar    1  UNL1        0.0989
     17 C          -7.3086  -16.4754   23.7876 C.ar    1  UNL1        0.0209
     18 C          -6.9114  -17.6500   22.9435 C.ar    1  UNL1        0.0092
     19 C         -11.8322  -15.8533   19.6447 C.3     1  UNL1        0.2525
     20 O         -12.3906  -16.1774   20.9986 O.3     1  UNL1       -0.4717
     21 O          -9.3420  -19.7615   24.7216 O.3     1  UNL1       -0.4714
     22 C          -9.4342  -21.2511   24.5717 C.3     1  UNL1        0.2525
     23 C         -13.7677  -17.3994   23.3673 C.3     1  UNL1        0.1023
     24 N         -14.5360  -18.2350   24.3477 N.3     1  UNL1       -0.2664
     25 C         -15.8568  -18.8276   23.9550 C.3     1  UNL1        0.0899
     26 C         -13.9834  -18.4781   25.7210 C.3     1  UNL1        0.0899
@<TRIPOS>BOND
     1    19    20    1
     2    20     1    1
     3     1     2   ar
     4     2     3   ar
     5     3     7    1
     6     7     8   ar
     7     8     9   ar
     8     9    10    1
     9     9    11   ar
    10    11    12    2
    11    11    13   ar
    12    13    14   ar
    13    14    15   ar
    14    15    16   ar
    15    16    17   ar
    16    17    18   ar
    17     3     4   ar
    18     4    21    1
    19    21    22    1
    20     4     5   ar
    21     5     6   ar
    22     6    23    1
    23    23    24    1
    24    24    25    1
    25    24    26    1
    26     6     1   ar
    27    18     7   ar
    28    18    13   ar
@<TRIPOS>MOLECULE
*****
 26 28 0 0 0
SMALL
GASTEIGER

@<TRIPOS>ATOM
      1 C          -5.9048  -16.2425   23.8156 C.ar    1  UNL1        0.1362
      2 C          -7.4007  -16.3527   23.8363 C.ar    1  UNL1        0.0397
      3 C          -8.0839  -17.4345   23.0534 C.ar    1  UNL1        0.0384
      4 C          -7.2714  -18.4060   22.2498 C.ar    1  UNL1        0.1386
      5 C          -5.7756  -18.2959   22.2291 C.ar    1  UNL1        0.0370
      6 C          -5.0923  -17.2141   23.0119 C.ar    1  UNL1        0.0309
      7 C          -9.5797  -17.5446   23.0741 C.ar    1  UNL1        0.0206
      8 C         -10.2647  -18.2415   24.2121 C.ar    1  UNL1        0.0784
      9 N         -11.7606  -18.3517   24.2328 N.ar    1  UNL1       -0.2921
     10 C         -12.4456  -19.0487   25.3709 C.3     1  UNL1        0.1336
     11 C         -12.5714  -17.7650   23.1156 C.ar    1  UNL1        0.2624
     12 O         -14.0672  -17.8751   23.1363 O.2     1  UNL1       -0.2669
     13 C         -11.8864  -17.0680   21.9775 C.ar    1  UNL1        0.0753
     14 C         -12.6972  -16.4813   20.8603 C.ar    1  UNL1        0.1036
     15 N         -12.0121  -15.7843   19.7223 N.ar    1  UNL1       -0.2422
     16 C         -10.5163  -15.6742   19.7016 C.ar    1  UNL1        0.0989
     17 C          -9.7055  -16.2609   20.8188 C.ar    1  UNL1        0.0209
     18 C         -10.3905  -16.9578   21.9568 C.ar    1  UNL1        0.0092
     19 C          -5.4409  -15.0534   26.0784 C.3     1  UNL1        0.2525
     20 O          -5.2216  -15.1608   24.5985 O.3     1  UNL1       -0.4717
     21 O          -7.9547  -19.4878   21.4669 O.3     1  UNL1       -0.4714
     22 C          -7.7282  -19.6008   19.9884 C.3     1  UNL1        0.2525
     23 C          -3.5965  -17.1040   22.9912 C.3     1  UNL1        0.1023
     24 N          -2.8174  -17.6863   21.8494 N.3     1  UNL1       -0.2664
     25 C          -2.4928  -19.1507   21.8324 C.3     1  UNL1        0.0899
     26 C          -2.3627  -16.8042   20.7245 C.3     1  UNL1        0.0899
@<TRIPOS>BOND
     1    19    20    1
     2    20     1    1
     3     1     2   ar
     4     2     3   ar
     5     3     7    1
     6     7     8   ar
     7     8     9   ar
     8     9    10    1
     9     9    11   ar
    10    11    12    2
    11    11    13   ar
    12    13    14   ar
    13    14    15   ar
    14    15    16   ar
    15    16    17   ar
    16    17    18   ar
    17     3     4   ar
    18     4    21    1
    19    21    22    1
    20     4     5   ar
    21     5     6   ar
    22     6    23    1
    23    23    24    1
    24    24    25    1
    25    24    26    1
    26     6     1   ar
    27    18     7   ar
    28    18    13   ar
@<TRIPOS>MOLECULE
*****
 26 28 0 0 0
SMALL
GASTEIGER

@<TRIPOS>ATOM
      1 C          -5.9565  -18.9998   22.1821 C.ar    1  UNL1        0.1362
      2 C          -7.4547  -18.9701   22.2504 C.ar    1  UNL1        0.0397
      3 C          -8.1520  -17.8288   22.9295 C.ar    1  UNL1        0.0384
      4 C          -7.3513  -16.7173   23.5403 C.ar    1  UNL1        0.1386
      5 C          -5.8531  -16.7469   23.4721 C.ar    1  UNL1        0.0370
      6 C          -5.1557  -17.8881   22.7930 C.ar    1  UNL1        0.0309
      7 C          -9.6502  -17.7992   22.9978 C.ar    1  UNL1        0.0206
      8 C         -10.3604  -18.4231   24.1624 C.ar    1  UNL1        0.0784
      9 N         -11.8585  -18.3934   24.2306 N.ar    1  UNL1       -0.2921
     10 C         -12.5687  -19.0173   25.3953 C.3     1  UNL1        0.1336
     11 C         -12.6465  -17.7399   23.1343 C.ar    1  UNL1        0.2624
     12 O         -14.1446  -17.7102   23.2026 O.2     1  UNL1       -0.2669
     13 C         -11.9363  -17.1159   21.9696 C.ar    1  UNL1        0.0753
     14 C         -12.7242  -16.4624   20.8733 C.ar    1  UNL1        0.1036
     15 N         -12.0140  -15.8385   19.7087 N.ar    1  UNL1       -0.2422
     16 C         -10.5159  -15.8681   19.6405 C.ar    1  UNL1        0.0989
     17 C          -9.7279  -16.5217   20.7368 C.ar    1  UNL1        0.0209
     18 C         -10.4381  -17.1456   21.9014 C.ar    1  UNL1        0.0092
     19 C          -5.9755  -20.9416   20.4562 C.3     1  UNL1        0.2525
     20 O          -5.2591  -20.1410   21.5030 O.3     1  UNL1       -0.4717
     21 O          -8.0487  -15.5760   24.2195 O.3     1  UNL1       -0.4714
     22 C          -8.1887  -15.5644   25.7128 C.3     1  UNL1        0.2525
     23 C          -3.6576  -17.9178   22.7247 C.3     1  UNL1        0.1023
     24 N          -2.9494  -17.3403   21.5352 N.3     1  UNL1       -0.2664
     25 C          -3.0351  -18.0276   20.2047 C.3     1  UNL1        0.0899
     26 C          -2.1555  -16.0754   21.6762 C.3     1  UNL1        0.0899
@<TRIPOS>BOND
     1    19    20    1
     2    20     1    1
     3     1     2   ar
     4     2     3   ar
     5     3     7    1
     6     7     8   ar
     7     8     9   ar
     8     9    10    1
     9     9    11   ar
    10    11    12    2
    11    11    13   ar
    12    13    14   ar
    13    14    15   ar
    14    15    16   ar
    15    16    17   ar
    16    17    18   ar
    17     3     4   ar
    18     4    21    1
    19    21    22    1
    20     4     5   ar
    21     5     6   ar
    22     6    23    1
    23    23    24    1
    24    24    25    1
    25    24    26    1
    26     6     1   ar
    27    18     7   ar
    28    18    13   ar
@<TRIPOS>MOLECULE
*****
 26 28 0 0 0
SMALL
GASTEIGER

@<TRIPOS>ATOM
      1 C         -11.5204  -16.8879   22.0034 C.ar    1  UNL1        0.1362
      2 C         -10.0241  -16.7912   22.0452 C.ar    1  UNL1        0.0397
      3 C          -9.2369  -17.7174   22.9242 C.ar    1  UNL1        0.0384
      4 C          -9.9460  -18.7402   23.7613 C.ar    1  UNL1        0.1386
      5 C         -11.4423  -18.8370   23.7195 C.ar    1  UNL1        0.0370
      6 C         -12.2295  -17.9108   22.8406 C.ar    1  UNL1        0.0309
      7 C          -7.7406  -17.6206   22.9660 C.ar    1  UNL1        0.0206
      8 C          -7.0796  -16.5908   23.8334 C.ar    1  UNL1        0.0784
      9 N          -5.5833  -16.4941   23.8752 N.ar    1  UNL1       -0.2921
     10 C          -4.9222  -15.4642   24.7427 C.3     1  UNL1        0.1336
     11 C          -4.7480  -17.4272   23.0497 C.ar    1  UNL1        0.2624
     12 O          -3.2517  -17.3304   23.0915 O.2     1  UNL1       -0.2669
     13 C          -5.4090  -18.4571   22.1822 C.ar    1  UNL1        0.0753
     14 C          -4.5738  -19.3902   21.3566 C.ar    1  UNL1        0.1036
     15 N          -5.2348  -20.4200   20.4893 N.ar    1  UNL1       -0.2422
     16 C          -6.7311  -20.5168   20.4474 C.ar    1  UNL1        0.0989
     17 C          -7.5664  -19.5837   21.2730 C.ar    1  UNL1        0.0209
     18 C          -6.9053  -18.5538   22.1404 C.ar    1  UNL1        0.0092
     19 C         -11.9882  -15.8634   19.6622 C.3     1  UNL1        0.2525
     20 O         -12.3075  -15.9617   21.1244 O.3     1  UNL1       -0.4717
     21 O          -9.1589  -19.6664   24.6403 O.3     1  UNL1       -0.4714
     22 C          -9.4462  -21.1386   24.6264 C.3     1  UNL1        0.2525
     23 C         -13.7258  -18.0076   22.7988 C.3     1  UNL1        0.1023
     24 N         -14.4896  -18.3599   24.0407 N.3     1  UNL1       -0.2664
     25 C         -15.9364  -18.7446   23.9476 C.3     1  UNL1        0.0899
     26 C         -13.8065  -18.3275   25.3758 C.3     1  UNL1        0.0899
@<TRIPOS>BOND
     1    19    20    1
     2    20     1    1
     3     1     2   ar
     4     2     3   ar
     5     3     7    1
     6     7     8   ar
     7     8     9   ar
     8     9    10    1
     9     9    11   ar
    10    11    12    2
    11    11    13   ar
    12    13    14   ar
    13    14    15   ar
    14    15    16   ar
    15    16    17   ar
    16    17    18   ar
    17     3     4   ar
    18     4    21    1
    19    21    22    1
    20     4     5   ar
    21     5     6   ar
    22     6    23    1
    23    23    24    1
    24    24    25    1
    25    24    26    1
    26     6     1   ar
    27    18     7   ar
    28    18    13   ar
