@<TRIPOS>MOLECULE
*****
 22 24 0 0 0
SMALL
GASTEIGER

@<TRIPOS>ATOM
      1 C          -9.9852  -18.8247   20.8599 C.ar    1  UNL1        0.0000
      2 C         -10.4048  -19.5154   19.5962 C.ar    1  UNL1       -0.0000
      3 C          -9.3687  -20.0869   18.6743 C.ar    1  UNL1        0.0000
      4 C          -7.9130  -19.9677   19.0161 C.ar    1  UNL1        0.0015
      5 C          -7.4934  -19.2770   20.2798 C.ar    1  UNL1        0.0172
      6 C          -8.5296  -18.7055   21.2017 C.ar    1  UNL1        0.0015
      7 C         -11.5932  -16.8923   21.5158 C.ar    1  UNL1        0.0714
      8 C         -12.6293  -16.3208   22.4377 C.ar    1  UNL1        0.0039
      9 C         -13.0936  -17.1103   23.6255 C.ar    1  UNL1       -0.0001
     10 C         -12.5218  -18.4713   23.8916 C.ar    1  UNL1       -0.0000
     11 C         -11.4857  -19.0427   22.9697 C.ar    1  UNL1       -0.0001
     12 C         -11.0214  -18.2532   21.7818 C.ar    1  UNL1        0.0039
     13 F         -10.6645  -15.3132   19.1400 F       1  UNL1       -0.1659
     14 C         -11.1289  -16.1027   20.3279 C.3     1  UNL1        0.4186
     15 F         -10.0419  -15.4897   21.1602 F       1  UNL1       -0.1659
     16 F         -12.2158  -16.7158   19.4956 F       1  UNL1       -0.1659
     17 C          -6.0378  -19.1578   20.6216 C.ar    1  UNL1        0.0772
     18 C          -5.4046  -19.5382   21.9272 C.ar    1  UNL1        0.1175
     19 N          -3.9353  -19.2528   21.8304 N.ar    1  UNL1       -0.2225
     20 C          -3.6602  -18.6960   20.4649 C.ar    1  UNL1        0.1750
     21 N          -4.9597  -18.6373   19.7179 N.ar    1  UNL1       -0.3349
     22 H          -5.0832  -18.3140   18.7963 H       1  UNL1        0.1675
@<TRIPOS>BOND
     1    13    14    1
     2    14    15    1
     3    14    16    1
     4    14     7    1
     5     7     8   ar
     6     8     9   ar
     7     9    10   ar
     8    10    11   ar
     9    11    12   ar
    10    12     1    1
    11     1     2   ar
    12     2     3   ar
    13     3     4   ar
    14     4     5   ar
    15     5    17    1
    16    17    18   ar
    17    18    19   ar
    18    19    20   ar
    19    20    21   ar
    20     5     6   ar
    21    12     7   ar
    22     6     1   ar
    23    21    17   ar
    24    21    22    1
@<TRIPOS>MOLECULE
*****
 22 24 0 0 0
SMALL
GASTEIGER

@<TRIPOS>ATOM
      1 C          -9.7417  -18.9115   20.6388 C.ar    1  UNL1        0.0000
      2 C         -10.1216  -19.7371   19.4455 C.ar    1  UNL1       -0.0000
      3 C          -9.0559  -20.3799   18.6082 C.ar    1  UNL1        0.0000
      4 C          -7.6102  -20.1972   18.9643 C.ar    1  UNL1        0.0015
      5 C          -7.2304  -19.3716   20.1577 C.ar    1  UNL1        0.0172
      6 C          -8.2961  -18.7288   20.9949 C.ar    1  UNL1        0.0015
      7 C         -11.0592  -18.7547   22.8726 C.ar    1  UNL1        0.0714
      8 C         -12.1249  -18.1119   23.7098 C.ar    1  UNL1        0.0039
      9 C         -12.9390  -16.9830   23.1504 C.ar    1  UNL1       -0.0001
     10 C         -12.6873  -16.4969   21.7539 C.ar    1  UNL1       -0.0000
     11 C         -11.6216  -17.1397   20.9167 C.ar    1  UNL1       -0.0001
     12 C         -10.8075  -18.2687   21.4761 C.ar    1  UNL1        0.0039
     13 F          -9.4311  -21.0125   23.9913 F       1  UNL1       -0.1659
     14 C         -10.2451  -19.8836   23.4320 C.3     1  UNL1        0.4186
     15 F         -11.0829  -20.8661   22.6685 F       1  UNL1       -0.1659
     16 F          -9.4073  -18.9012   24.1954 F       1  UNL1       -0.1659
     17 C          -5.7848  -19.1888   20.5138 C.ar    1  UNL1        0.0772
     18 C          -5.1464  -19.5510   21.8220 C.ar    1  UNL1        0.1175
     19 N          -3.6908  -19.1978   21.7410 N.ar    1  UNL1       -0.2225
     20 C          -3.4296  -18.6174   20.3826 C.ar    1  UNL1        0.1750
     21 N          -4.7238  -18.6119   19.6242 N.ar    1  UNL1       -0.3349
     22 H          -4.8539  -18.2867   18.7042 H       1  UNL1        0.1675
@<TRIPOS>BOND
     1    13    14    1
     2    14    15    1
     3    14    16    1
     4    14     7    1
     5     7     8   ar
     6     8     9   ar
     7     9    10   ar
     8    10    11   ar
     9    11    12   ar
    10    12     1    1
    11     1     2   ar
    12     2     3   ar
    13     3     4   ar
    14     4     5   ar
    15     5    17    1
    16    17    18   ar
    17    18    19   ar
    18    19    20   ar
    19    20    21   ar
    20     5     6   ar
    21    12     7   ar
    22     6     1   ar
    23    21    17   ar
    24    21    22    1
@<TRIPOS>MOLECULE
*****
 22 24 0 0 0
SMALL
GASTEIGER

@<TRIPOS>ATOM
      1 C          -8.7795  -16.5493   23.4300 C.ar    1  UNL1        0.0000
      2 C          -8.8896  -15.7325   24.6832 C.ar    1  UNL1       -0.0000
      3 C          -7.6513  -15.3362   25.4313 C.ar    1  UNL1        0.0000
      4 C          -6.3030  -15.7568   24.9262 C.ar    1  UNL1        0.0015
      5 C          -6.1929  -16.5736   23.6730 C.ar    1  UNL1        0.0172
      6 C          -7.4312  -16.9699   22.9248 C.ar    1  UNL1        0.0015
      7 C         -10.6931  -18.2498   22.9867 C.ar    1  UNL1        0.0714
      8 C         -11.9314  -18.6460   22.2386 C.ar    1  UNL1        0.0039
      9 C         -12.4943  -17.7380   21.1856 C.ar    1  UNL1       -0.0001
     10 C         -11.8190  -16.4338   20.8808 C.ar    1  UNL1       -0.0000
     11 C         -10.5807  -16.0376   21.6289 C.ar    1  UNL1       -0.0001
     12 C         -10.0178  -16.9456   22.6818 C.ar    1  UNL1        0.0039
     13 F          -9.5673  -20.0658   25.0925 F       1  UNL1       -0.1659
     14 C         -10.1302  -19.1578   24.0396 C.3     1  UNL1        0.4186
     15 F          -9.3107  -19.8587   22.9970 F       1  UNL1       -0.1659
     16 F         -10.9497  -18.4568   25.0822 F       1  UNL1       -0.1659
     17 C          -4.8446  -16.9942   23.1678 C.ar    1  UNL1        0.0772
     18 C          -4.3832  -18.4057   22.9565 C.ar    1  UNL1        0.1175
     19 N          -2.9744  -18.3610   22.4434 N.ar    1  UNL1       -0.2225
     20 C          -2.5652  -16.9217   22.3375 C.ar    1  UNL1        0.1750
     21 N          -3.7210  -16.0770   22.7853 N.ar    1  UNL1       -0.3349
     22 H          -3.7390  -15.0934   22.8216 H       1  UNL1        0.1675
@<TRIPOS>BOND
     1    13    14    1
     2    14    15    1
     3    14    16    1
     4    14     7    1
     5     7     8   ar
     6     8     9   ar
     7     9    10   ar
     8    10    11   ar
     9    11    12   ar
    10    12     1    1
    11     1     2   ar
    12     2     3   ar
    13     3     4   ar
    14     4     5   ar
    15     5    17    1
    16    17    18   ar
    17    18    19   ar
    18    19    20   ar
    19    20    21   ar
    20     5     6   ar
    21    12     7   ar
    22     6     1   ar
    23    21    17   ar
    24    21    22    1
@<TRIPOS>MOLECULE
*****
 22 24 0 0 0
SMALL
GASTEIGER

@<TRIPOS>ATOM
      1 C          -7.9688  -19.1917   21.8072 C.ar    1  UNL1        0.0000
      2 C          -8.3008  -19.4562   20.3685 C.ar    1  UNL1       -0.0000
      3 C          -7.2070  -19.5050   19.3432 C.ar    1  UNL1        0.0000
      4 C          -5.7813  -19.2893   19.7566 C.ar    1  UNL1        0.0015
      5 C          -5.4494  -19.0249   21.1953 C.ar    1  UNL1        0.0172
      6 C          -6.5432  -18.9761   22.2206 C.ar    1  UNL1        0.0015
      7 C          -9.8763  -17.8943   23.0024 C.ar    1  UNL1        0.0714
      8 C         -10.9700  -17.8456   24.0277 C.ar    1  UNL1        0.0039
      9 C         -11.2502  -19.0455   24.8831 C.ar    1  UNL1       -0.0001
     10 C         -10.4366  -20.2941   24.7132 C.ar    1  UNL1       -0.0000
     11 C          -9.3428  -20.3429   23.6880 C.ar    1  UNL1       -0.0001
     12 C          -9.0627  -19.1429   22.8326 C.ar    1  UNL1        0.0039
     13 F          -9.3159  -15.4945   21.2916 F       1  UNL1       -0.1659
     14 C          -9.5961  -16.6944   22.1470 C.3     1  UNL1        0.4186
     15 F         -10.5999  -17.1764   21.1421 F       1  UNL1       -0.1659
     16 F          -8.5922  -16.2124   23.1520 F       1  UNL1       -0.1659
     17 C          -4.0237  -18.8092   21.6087 C.ar    1  UNL1        0.0772
     18 C          -2.8697  -19.7170   21.3017 C.ar    1  UNL1        0.1175
     19 N          -1.6345  -19.1167   21.9049 N.ar    1  UNL1       -0.2225
     20 C          -2.0251  -17.8379   22.5848 C.ar    1  UNL1        0.1750
     21 N          -3.5017  -17.6479   22.4017 N.ar    1  UNL1       -0.3349
     22 H          -4.0347  -16.8935   22.7422 H       1  UNL1        0.1675
@<TRIPOS>BOND
     1    13    14    1
     2    14    15    1
     3    14    16    1
     4    14     7    1
     5     7     8   ar
     6     8     9   ar
     7     9    10   ar
     8    10    11   ar
     9    11    12   ar
    10    12     1    1
    11     1     2   ar
    12     2     3   ar
    13     3     4   ar
    14     4     5   ar
    15     5    17    1
    16    17    18   ar
    17    18    19   ar
    18    19    20   ar
    19    20    21   ar
    20     5     6   ar
    21    12     7   ar
    22     6     1   ar
    23    21    17   ar
    24    21    22    1
@<TRIPOS>MOLECULE
*****
 22 24 0 0 0
SMALL
GASTEIGER

@<TRIPOS>ATOM
      1 C         -12.3495   -3.9746   18.8045 C.ar    1  UNL1        0.0000
      2 C         -12.6265   -2.9994   19.9101 C.ar    1  UNL1       -0.0000
      3 C         -13.7708   -3.2369   20.8504 C.ar    1  UNL1        0.0000
      4 C         -14.6382   -4.4496   20.6850 C.ar    1  UNL1        0.0015
      5 C         -14.3611   -5.4247   19.5794 C.ar    1  UNL1        0.0172
      6 C         -13.2167   -5.1872   18.6391 C.ar    1  UNL1        0.0015
      7 C         -10.0900   -4.7360   17.7726 C.ar    1  UNL1        0.0714
      8 C          -8.9456   -4.4985   16.8323 C.ar    1  UNL1        0.0039
      9 C          -8.9164   -3.2619   15.9838 C.ar    1  UNL1       -0.0001
     10 C         -10.0316   -2.2629   16.0755 C.ar    1  UNL1       -0.0000
     11 C         -11.1759   -2.5005   17.0157 C.ar    1  UNL1       -0.0001
     12 C         -11.2051   -3.7370   17.8643 C.ar    1  UNL1        0.0039
     13 F         -10.1483   -7.2092   19.4697 F       1  UNL1       -0.1659
     14 C         -10.1191   -5.9726   18.6211 C.3     1  UNL1        0.4186
     15 F         -10.7070   -6.7440   17.4768 F       1  UNL1       -0.1659
     16 F          -9.5313   -5.2013   19.7654 F       1  UNL1       -0.1659
     17 C         -15.2284   -6.6373   19.4140 C.ar    1  UNL1        0.0772
     18 C         -16.7215   -6.6405   19.2706 C.ar    1  UNL1        0.1175
     19 N         -17.1708   -8.0648   19.1310 N.ar    1  UNL1       -0.2225
     20 C         -15.9552   -8.9419   19.1881 C.ar    1  UNL1        0.1750
     21 N         -14.7548   -8.0596   19.3630 N.ar    1  UNL1       -0.3349
     22 H         -13.8202   -8.3612   19.4322 H       1  UNL1        0.1675
@<TRIPOS>BOND
     1    13    14    1
     2    14    15    1
     3    14    16    1
     4    14     7    1
     5     7     8   ar
     6     8     9   ar
     7     9    10   ar
     8    10    11   ar
     9    11    12   ar
    10    12     1    1
    11     1     2   ar
    12     2     3   ar
    13     3     4   ar
    14     4     5   ar
    15     5    17    1
    16    17    18   ar
    17    18    19   ar
    18    19    20   ar
    19    20    21   ar
    20     5     6   ar
    21    12     7   ar
    22     6     1   ar
    23    21    17   ar
    24    21    22    1
@<TRIPOS>MOLECULE
*****
 22 24 0 0 0
SMALL
GASTEIGER

@<TRIPOS>ATOM
      1 C          -7.8193  -16.8596   23.6170 C.ar    1  UNL1        0.0000
      2 C          -6.9519  -17.9344   23.0318 C.ar    1  UNL1       -0.0000
      3 C          -7.3270  -18.5739   21.7279 C.ar    1  UNL1        0.0000
      4 C          -8.5696  -18.1386   21.0091 C.ar    1  UNL1        0.0015
      5 C          -9.4370  -17.0638   21.5943 C.ar    1  UNL1        0.0172
      6 C          -9.0618  -16.4243   22.8983 C.ar    1  UNL1        0.0015
      7 C          -6.0429  -15.7322   25.1414 C.ar    1  UNL1        0.0714
      8 C          -5.6678  -15.0928   26.4453 C.ar    1  UNL1        0.0039
      9 C          -6.6938  -14.9412   27.5289 C.ar    1  UNL1       -0.0001
     10 C          -8.0950  -15.4290   27.3086 C.ar    1  UNL1       -0.0000
     11 C          -8.4701  -16.0685   26.0046 C.ar    1  UNL1       -0.0001
     12 C          -7.4441  -16.2201   24.9210 C.ar    1  UNL1        0.0039
     13 F          -3.9907  -16.0354   22.9742 F       1  UNL1       -0.1659
     14 C          -5.0168  -15.8838   24.0578 C.3     1  UNL1        0.4186
     15 F          -5.6371  -14.7407   23.3104 F       1  UNL1       -0.1659
     16 F          -4.3965  -17.0269   24.8051 F       1  UNL1       -0.1659
     17 C         -10.6795  -16.6285   20.8755 C.ar    1  UNL1        0.0772
     18 C         -12.0878  -16.8158   21.3567 C.ar    1  UNL1        0.1175
     19 N         -13.0106  -16.2325   20.3280 N.ar    1  UNL1       -0.2225
     20 C         -12.1725  -15.6846   19.2110 C.ar    1  UNL1        0.1750
     21 N         -10.7318  -15.9294   19.5494 N.ar    1  UNL1       -0.3349
     22 H          -9.9567  -15.6757   18.9980 H       1  UNL1        0.1675
@<TRIPOS>BOND
     1    13    14    1
     2    14    15    1
     3    14    16    1
     4    14     7    1
     5     7     8   ar
     6     8     9   ar
     7     9    10   ar
     8    10    11   ar
     9    11    12   ar
    10    12     1    1
    11     1     2   ar
    12     2     3   ar
    13     3     4   ar
    14     4     5   ar
    15     5    17    1
    16    17    18   ar
    17    18    19   ar
    18    19    20   ar
    19    20    21   ar
    20     5     6   ar
    21    12     7   ar
    22     6     1   ar
    23    21    17   ar
    24    21    22    1
@<TRIPOS>MOLECULE
*****
 22 24 0 0 0
SMALL
GASTEIGER

@<TRIPOS>ATOM
      1 C          -8.4899  -18.8340   22.0850 C.ar    1  UNL1        0.0000
      2 C          -8.4998  -20.1115   22.8710 C.ar    1  UNL1       -0.0000
      3 C          -7.2567  -20.9460   22.9617 C.ar    1  UNL1        0.0000
      4 C          -6.0035  -20.5029   22.2663 C.ar    1  UNL1        0.0015
      5 C          -5.9936  -19.2254   21.4802 C.ar    1  UNL1        0.0172
      6 C          -7.2368  -18.3909   21.3896 C.ar    1  UNL1        0.0015
      7 C         -10.7204  -18.2420   20.8916 C.ar    1  UNL1        0.0714
      8 C         -11.9636  -17.4076   20.8010 C.ar    1  UNL1        0.0039
      9 C         -12.2193  -16.3305   21.8132 C.ar    1  UNL1       -0.0001
     10 C         -11.2319  -16.0879   22.9160 C.ar    1  UNL1       -0.0000
     11 C          -9.9888  -16.9224   23.0066 C.ar    1  UNL1       -0.0001
     12 C          -9.7331  -17.9995   21.9944 C.ar    1  UNL1        0.0039
     13 F         -10.2090  -20.3961   18.8672 F       1  UNL1       -0.1659
     14 C         -10.4647  -19.3191   19.8794 C.3     1  UNL1        0.4186
     15 F         -11.1722  -20.3102   20.7553 F       1  UNL1       -0.1659
     16 F          -9.7573  -18.3280   19.0035 F       1  UNL1       -0.1659
     17 C          -4.7406  -18.7824   20.7849 C.ar    1  UNL1        0.0772
     18 C          -3.3802  -18.6692   21.4065 C.ar    1  UNL1        0.1175
     19 N          -2.4267  -18.1916   20.3516 N.ar    1  UNL1       -0.2225
     20 C          -3.1980  -18.0096   19.0779 C.ar    1  UNL1        0.1750
     21 N          -4.6280  -18.3747   19.3457 N.ar    1  UNL1       -0.3349
     22 H          -5.3635  -18.3510   18.6918 H       1  UNL1        0.1675
@<TRIPOS>BOND
     1    13    14    1
     2    14    15    1
     3    14    16    1
     4    14     7    1
     5     7     8   ar
     6     8     9   ar
     7     9    10   ar
     8    10    11   ar
     9    11    12   ar
    10    12     1    1
    11     1     2   ar
    12     2     3   ar
    13     3     4   ar
    14     4     5   ar
    15     5    17    1
    16    17    18   ar
    17    18    19   ar
    18    19    20   ar
    19    20    21   ar
    20     5     6   ar
    21    12     7   ar
    22     6     1   ar
    23    21    17   ar
    24    21    22    1
@<TRIPOS>MOLECULE
*****
 22 24 0 0 0
SMALL
GASTEIGER

@<TRIPOS>ATOM
      1 C         -11.4953   -4.2176   18.4019 C.ar    1  UNL1        0.0000
      2 C         -10.1602   -4.7215   18.8641 C.ar    1  UNL1       -0.0000
      3 C          -9.9417   -6.1919   19.0641 C.ar    1  UNL1        0.0000
      4 C         -11.0584   -7.1586   18.8019 C.ar    1  UNL1        0.0015
      5 C         -12.3935   -6.6548   18.3397 C.ar    1  UNL1        0.0172
      6 C         -12.6119   -5.1842   18.1397 C.ar    1  UNL1        0.0015
      7 C         -12.8917   -2.0705   18.8379 C.ar    1  UNL1        0.0714
      8 C         -13.1101   -0.6001   18.6379 C.ar    1  UNL1        0.0039
      9 C         -12.1505    0.1938   17.8019 C.ar    1  UNL1       -0.0001
     10 C         -10.9726   -0.4828   17.1658 C.ar    1  UNL1       -0.0000
     11 C         -10.7542   -1.9533   17.3658 C.ar    1  UNL1       -0.0001
     12 C         -11.7137   -2.7471   18.2019 C.ar    1  UNL1        0.0039
     13 F         -14.8108   -3.6583   20.5101 F       1  UNL1       -0.1659
     14 C         -13.8513   -2.8644   19.6740 C.3     1  UNL1        0.4186
     15 F         -14.8353   -2.8673   18.5419 F       1  UNL1       -0.1659
     16 F         -12.8672   -2.8615   20.8061 F       1  UNL1       -0.1659
     17 C         -13.5101   -7.6213   18.0775 C.ar    1  UNL1        0.0772
     18 C         -14.4439   -7.5925   16.9039 C.ar    1  UNL1        0.1175
     19 N         -15.4000   -8.7398   17.0439 N.ar    1  UNL1       -0.2225
     20 C         -15.0570   -9.4778   18.3040 C.ar    1  UNL1        0.1750
     21 N         -13.8891   -8.7865   18.9428 N.ar    1  UNL1       -0.3349
     22 H         -13.4485   -9.0511   19.7825 H       1  UNL1        0.1675
@<TRIPOS>BOND
     1    13    14    1
     2    14    15    1
     3    14    16    1
     4    14     7    1
     5     7     8   ar
     6     8     9   ar
     7     9    10   ar
     8    10    11   ar
     9    11    12   ar
    10    12     1    1
    11     1     2   ar
    12     2     3   ar
    13     3     4   ar
    14     4     5   ar
    15     5    17    1
    16    17    18   ar
    17    18    19   ar
    18    19    20   ar
    19    20    21   ar
    20     5     6   ar
    21    12     7   ar
    22     6     1   ar
    23    21    17   ar
    24    21    22    1
@<TRIPOS>MOLECULE
*****
 22 24 0 0 0
SMALL
GASTEIGER

@<TRIPOS>ATOM
      1 C          -8.1715  -17.1784   23.7057 C.ar    1  UNL1        0.0000
      2 C          -8.4661  -15.9307   24.4845 C.ar    1  UNL1       -0.0000
      3 C          -7.3640  -14.9607   24.7919 C.ar    1  UNL1        0.0000
      4 C          -5.9673  -15.2384   24.3206 C.ar    1  UNL1        0.0015
      5 C          -5.6727  -16.4861   23.5418 C.ar    1  UNL1        0.0172
      6 C          -6.7749  -17.4561   23.2344 C.ar    1  UNL1        0.0015
      7 C         -10.2868  -17.8221   22.3414 C.ar    1  UNL1        0.0714
      8 C         -11.3889  -18.7921   22.0341 C.ar    1  UNL1        0.0039
      9 C         -11.4779  -20.0883   22.7836 C.ar    1  UNL1       -0.0001
     10 C         -10.4648  -20.4146   23.8405 C.ar    1  UNL1       -0.0000
     11 C          -9.3627  -19.4446   24.1479 C.ar    1  UNL1       -0.0001
     12 C          -9.2737  -18.1484   23.3983 C.ar    1  UNL1        0.0039
     13 F         -10.1088  -15.2296   20.8423 F       1  UNL1       -0.1659
     14 C         -10.1978  -16.5258   21.5919 C.3     1  UNL1        0.4186
     15 F          -9.2121  -17.1418   20.6438 F       1  UNL1       -0.1659
     16 F         -11.1836  -15.9099   22.5400 F       1  UNL1       -0.1659
     17 C          -4.2761  -16.7639   23.0705 C.ar    1  UNL1        0.0772
     18 C          -3.5586  -18.0778   23.1648 C.ar    1  UNL1        0.1175
     19 N          -2.1908  -17.9024   22.5747 N.ar    1  UNL1       -0.2225
     20 C          -2.0629  -16.4801   22.1156 C.ar    1  UNL1        0.1750
     21 N          -3.3517  -15.7765   22.4220 N.ar    1  UNL1       -0.3349
     22 H          -3.5551  -14.8323   22.2311 H       1  UNL1        0.1675
@<TRIPOS>BOND
     1    13    14    1
     2    14    15    1
     3    14    16    1
     4    14     7    1
     5     7     8   ar
     6     8     9   ar
     7     9    10   ar
     8    10    11   ar
     9    11    12   ar
    10    12     1    1
    11     1     2   ar
    12     2     3   ar
    13     3     4   ar
    14     4     5   ar
    15     5    17    1
    16    17    18   ar
    17    18    19   ar
    18    19    20   ar
    19    20    21   ar
    20     5     6   ar
    21    12     7   ar
    22     6     1   ar
    23    21    17   ar
    24    21    22    1
