@<TRIPOS>MOLECULE
*****
 34 37 0 0 0
SMALL
GASTEIGER

@<TRIPOS>ATOM
      1 N           4.6109   -2.3388   21.5362 N.3     1  UNL1       -0.1427
      2 C           4.6310   -1.8984   20.1025 C.3     1  UNL1        0.0985
      3 C           3.7192   -0.7998   19.6426 C.3     1  UNL1        0.0352
      4 C           2.7873   -0.1416   20.6164 C.3     1  UNL1        0.0604
      5 C           2.7672   -0.5821   22.0501 C.3     1  UNL1        0.0352
      6 C           3.6790   -1.6807   22.5100 C.3     1  UNL1        0.0985
      7 N           1.8754    0.9571   20.1565 N.3     1  UNL1       -0.2736
      8 C           1.3377    0.9486   18.7562 C.3     1  UNL1        0.0758
      9 C           0.4258    2.0472   18.2962 C.3     1  UNL1        0.0609
     10 C           0.0517    3.1544   19.2366 C.3     1  UNL1        0.1687
     11 C           0.5894    3.1628   20.6370 C.3     1  UNL1        0.0609
     12 C           1.5012    2.0642   21.0968 C.3     1  UNL1        0.0758
     13 O          -0.8601    4.2530   18.7767 O.3     1  UNL1       -0.4790
     14 C          -2.3452    4.0419   18.7707 C.ar    1  UNL1        0.1393
     15 C          -3.1040    4.0878   17.4776 C.ar    1  UNL1        0.0378
     16 C          -4.5891    3.8767   17.4716 C.ar    1  UNL1        0.0154
     17 C          -5.3153    3.6196   18.7587 C.ar    1  UNL1        0.0684
     18 CL         -6.8003    3.4085   18.7526 Cl      1  UNL1       -0.0814
     19 C          -4.5565    3.5736   20.0518 C.ar    1  UNL1        0.0712
     20 CL         -5.2826    3.3166   21.3388 Cl      1  UNL1       -0.0813
     21 C          -3.0714    3.7848   20.0578 C.ar    1  UNL1        0.0491
     22 S           5.5228   -3.4375   21.9961 S.O2    1  UNL1        0.1153
     23 O           4.3354   -4.3211   22.2396 O.2     1  UNL1       -0.1378
     24 O           6.7102   -2.5540   21.7527 O.2     1  UNL1       -0.1378
     25 O           6.2512   -3.6664   24.8974 O.2     1  UNL1       -0.2685
     26 C           6.7988   -4.6506   23.9067 C.2     1  UNL1        0.2651
     27 N           6.4346   -4.5362   22.4561 N.am    1  UNL1       -0.1714
     28 H           6.7940   -5.1821   21.8059 H       1  UNL1        0.1779
     29 C           7.7106   -5.7493   24.3666 C.ar    1  UNL1        0.0549
     30 C           8.5508   -6.4928   23.3710 C.ar    1  UNL1        0.0046
     31 C           9.4626   -7.5914   23.8309 C.ar    1  UNL1        0.0001
     32 C           9.5342   -7.9466   25.2865 C.ar    1  UNL1        0.0000
     33 C           8.6940   -7.2032   26.2821 C.ar    1  UNL1        0.0001
     34 C           7.7823   -6.1045   25.8222 C.ar    1  UNL1        0.0046
@<TRIPOS>BOND
     1    25    26    2
     2    26    27   am
     3    27    22    1
     4    22    23    2
     5    22    24    2
     6    22     1    1
     7     1     2    1
     8     2     3    1
     9     3     4    1
    10     4     7    1
    11     7     8    1
    12     8     9    1
    13     9    10    1
    14    10    13    1
    15    13    14    1
    16    14    15   ar
    17    15    16   ar
    18    16    17   ar
    19    17    18    1
    20    17    19   ar
    21    19    20    1
    22    19    21   ar
    23    10    11    1
    24    11    12    1
    25     4     5    1
    26     5     6    1
    27    26    29    1
    28    29    30   ar
    29    30    31   ar
    30    31    32   ar
    31    32    33   ar
    32    33    34   ar
    33     6     1    1
    34    34    29   ar
    35    12     7    1
    36    21    14   ar
    37    27    28    1
@<TRIPOS>MOLECULE
*****
 34 37 0 0 0
SMALL
GASTEIGER

@<TRIPOS>ATOM
      1 N           1.2566    1.8160   29.3915 N.3     1  UNL1       -0.1427
      2 C           0.0783    2.1262   28.5166 C.3     1  UNL1        0.0985
      3 C           0.1559    1.8802   27.0390 C.3     1  UNL1        0.0352
      4 C           1.4118    1.3240   26.4363 C.3     1  UNL1        0.0604
      5 C           2.5901    1.0138   27.3111 C.3     1  UNL1        0.0352
      6 C           2.5125    1.2598   28.7887 C.3     1  UNL1        0.0985
      7 N           1.4894    1.0779   24.9586 N.3     1  UNL1       -0.2736
      8 C           2.5657    0.1945   24.4008 C.3     1  UNL1        0.0758
      9 C           2.6433   -0.0515   22.9231 C.3     1  UNL1        0.0609
     10 C           1.6446    0.5859   22.0032 C.3     1  UNL1        0.1687
     11 C           0.5683    1.4694   22.5610 C.3     1  UNL1        0.0609
     12 C           0.4907    1.7154   24.0387 C.3     1  UNL1        0.0758
     13 O           1.7221    0.3400   20.5256 O.3     1  UNL1       -0.4790
     14 C           2.8676   -0.4422   19.9546 C.ar    1  UNL1        0.1393
     15 C           4.1421    0.2565   19.5839 C.ar    1  UNL1        0.0378
     16 C           5.2876   -0.5257   19.0129 C.ar    1  UNL1        0.0154
     17 C           5.1585   -2.0067   18.8127 C.ar    1  UNL1        0.0684
     18 CL          6.3040   -2.7889   18.2417 Cl      1  UNL1       -0.0814
     19 C           3.8841   -2.7054   19.1834 C.ar    1  UNL1        0.0712
     20 CL          3.7551   -4.1864   18.9833 Cl      1  UNL1       -0.0813
     21 C           2.7386   -1.9232   19.7544 C.ar    1  UNL1        0.0491
     22 S           1.1790    2.0620   30.8692 S.O2    1  UNL1        0.1153
     23 O           1.6679    0.6676   31.1270 O.2     1  UNL1       -0.1378
     24 O           0.6900    3.4564   30.6114 O.2     1  UNL1       -0.1378
     25 O           3.5652    3.1322   32.3391 O.2     1  UNL1       -0.2685
     26 C           2.2945    2.8430   33.0818 C.2     1  UNL1        0.2651
     27 N           1.1014    2.3080   32.3468 N.am    1  UNL1       -0.1714
     28 H           0.2674    2.1182   32.8343 H       1  UNL1        0.1779
     29 C           2.2169    3.0890   34.5595 C.ar    1  UNL1        0.0549
     30 C           2.7865    2.0854   35.5178 C.ar    1  UNL1        0.0046
     31 C           2.7088    2.3314   36.9954 C.ar    1  UNL1        0.0001
     32 C           2.0616    3.5810   37.5147 C.ar    1  UNL1        0.0000
     33 C           1.4921    4.5845   36.5564 C.ar    1  UNL1        0.0001
     34 C           1.5697    4.3386   35.0788 C.ar    1  UNL1        0.0046
@<TRIPOS>BOND
     1    25    26    2
     2    26    27   am
     3    27    22    1
     4    22    23    2
     5    22    24    2
     6    22     1    1
     7     1     2    1
     8     2     3    1
     9     3     4    1
    10     4     7    1
    11     7     8    1
    12     8     9    1
    13     9    10    1
    14    10    13    1
    15    13    14    1
    16    14    15   ar
    17    15    16   ar
    18    16    17   ar
    19    17    18    1
    20    17    19   ar
    21    19    20    1
    22    19    21   ar
    23    10    11    1
    24    11    12    1
    25     4     5    1
    26     5     6    1
    27    26    29    1
    28    29    30   ar
    29    30    31   ar
    30    31    32   ar
    31    32    33   ar
    32    33    34   ar
    33     6     1    1
    34    34    29   ar
    35    12     7    1
    36    21    14   ar
    37    27    28    1
@<TRIPOS>MOLECULE
*****
 34 37 0 0 0
SMALL
GASTEIGER

@<TRIPOS>ATOM
      1 N           4.8700   -1.1055   28.5107 N.3     1  UNL1       -0.1427
      2 C           5.7612   -1.8374   29.4699 C.3     1  UNL1        0.0985
      3 C           5.8632   -1.3818   30.8954 C.3     1  UNL1        0.0352
      4 C           5.0741   -0.1944   31.3616 C.3     1  UNL1        0.0604
      5 C           4.1829    0.5374   30.4024 C.3     1  UNL1        0.0352
      6 C           4.0809    0.0819   28.9769 C.3     1  UNL1        0.0985
      7 N           5.1761    0.2611   32.7872 N.3     1  UNL1       -0.2736
      8 C           4.4008    1.4592   33.2491 C.3     1  UNL1        0.0758
      9 C           4.5029    1.9148   34.6746 C.3     1  UNL1        0.0609
     10 C           5.3803    1.1721   35.6383 C.3     1  UNL1        0.1687
     11 C           6.1556   -0.0261   35.1764 C.3     1  UNL1        0.0609
     12 C           6.0535   -0.4816   33.7509 C.3     1  UNL1        0.0758
     13 O           5.4824    1.6275   37.0638 O.3     1  UNL1       -0.4790
     14 C           4.2374    1.8726   37.8638 C.ar    1  UNL1        0.1393
     15 C           3.9044    3.2599   38.3268 C.ar    1  UNL1        0.0378
     16 C           2.6593    3.5049   39.1269 C.ar    1  UNL1        0.0154
     17 C           1.7475    2.3626   39.4638 C.ar    1  UNL1        0.0684
     18 CL          0.5026    2.6076   40.2638 Cl      1  UNL1       -0.0814
     19 C           2.0806    0.9752   39.0008 C.ar    1  UNL1        0.0712
     20 CL          1.1687   -0.1671   39.3378 Cl      1  UNL1       -0.0813
     21 C           3.3255    0.7302   38.2008 C.ar    1  UNL1        0.0491
     22 S           4.7679   -1.5610   27.0851 S.O2    1  UNL1        0.1153
     23 O           3.3341   -1.9404   27.3090 O.2     1  UNL1       -0.1378
     24 O           6.2018   -1.1817   26.8612 O.2     1  UNL1       -0.1378
     25 O           3.4194    0.1792   25.0472 O.2     1  UNL1       -0.2685
     26 C           3.9916   -1.1464   24.6407 C.2     1  UNL1        0.2651
     27 N           4.6658   -2.0165   25.6596 N.am    1  UNL1       -0.1714
     28 H           5.0414   -2.8866   25.3928 H       1  UNL1        0.1779
     29 C           3.8895   -1.6020   23.2151 C.ar    1  UNL1        0.0549
     30 C           4.5696   -2.8666   22.7814 C.ar    1  UNL1        0.0046
     31 C           4.4675   -3.3221   21.3559 C.ar    1  UNL1        0.0001
     32 C           3.6853   -2.5130   20.3642 C.ar    1  UNL1        0.0000
     33 C           3.0051   -1.2484   20.7979 C.ar    1  UNL1        0.0001
     34 C           3.1073   -0.7929   22.2234 C.ar    1  UNL1        0.0046
@<TRIPOS>BOND
     1    25    26    2
     2    26    27   am
     3    27    22    1
     4    22    23    2
     5    22    24    2
     6    22     1    1
     7     1     2    1
     8     2     3    1
     9     3     4    1
    10     4     7    1
    11     7     8    1
    12     8     9    1
    13     9    10    1
    14    10    13    1
    15    13    14    1
    16    14    15   ar
    17    15    16   ar
    18    16    17   ar
    19    17    18    1
    20    17    19   ar
    21    19    20    1
    22    19    21   ar
    23    10    11    1
    24    11    12    1
    25     4     5    1
    26     5     6    1
    27    26    29    1
    28    29    30   ar
    29    30    31   ar
    30    31    32   ar
    31    32    33   ar
    32    33    34   ar
    33     6     1    1
    34    34    29   ar
    35    12     7    1
    36    21    14   ar
    37    27    28    1
@<TRIPOS>MOLECULE
*****
 34 37 0 0 0
SMALL
GASTEIGER

@<TRIPOS>ATOM
      1 N           5.6272   -1.7586   32.4547 N.3     1  UNL1       -0.1427
      2 C           5.4855   -1.0031   31.1666 C.3     1  UNL1        0.0985
      3 C           5.8960   -1.6423   29.8732 C.3     1  UNL1        0.0352
      4 C           6.4483   -3.0369   29.8679 C.3     1  UNL1        0.0604
      5 C           6.5901   -3.7923   31.1560 C.3     1  UNL1        0.0352
      6 C           6.1795   -3.1532   32.4494 C.3     1  UNL1        0.0985
      7 N           6.8589   -3.6761   28.5744 N.3     1  UNL1       -0.2736
      8 C           7.8369   -2.9831   27.6727 C.3     1  UNL1        0.0758
      9 C           8.2474   -3.6223   26.3792 C.3     1  UNL1        0.0609
     10 C           7.6799   -4.9544   25.9876 C.3     1  UNL1        0.1687
     11 C           6.7018   -5.6474   26.8894 C.3     1  UNL1        0.0609
     12 C           6.2913   -5.0082   28.1828 C.3     1  UNL1        0.0758
     13 O           8.0904   -5.5935   24.6942 O.3     1  UNL1       -0.4790
     14 C           7.7004   -4.9642   23.3897 C.ar    1  UNL1        0.1393
     15 C           8.6077   -5.0788   22.2007 C.ar    1  UNL1        0.0378
     16 C           8.2176   -4.4494   20.8962 C.ar    1  UNL1        0.0154
     17 C           6.9202   -3.7055   20.7806 C.ar    1  UNL1        0.0684
     18 CL          6.5302   -3.0762   19.4761 Cl      1  UNL1       -0.0814
     19 C           6.0129   -3.5910   21.9695 C.ar    1  UNL1        0.0712
     20 CL          4.7155   -2.8471   21.8540 Cl      1  UNL1       -0.0813
     21 C           6.4029   -4.2203   23.2740 C.ar    1  UNL1        0.0491
     22 S           5.2167   -1.1194   33.7481 S.O2    1  UNL1        0.1153
     23 O           6.4869   -0.3217   33.7571 O.2     1  UNL1       -0.1378
     24 O           3.9465   -1.9171   33.7392 O.2     1  UNL1       -0.1378
     25 O           3.7170    1.4788   33.7279 O.2     1  UNL1       -0.2685
     26 C           4.0564    0.8188   35.0314 C.2     1  UNL1        0.2651
     27 N           4.8062   -0.4803   35.0415 N.am    1  UNL1       -0.1714
     28 H           5.0290   -0.9134   35.8971 H       1  UNL1        0.1779
     29 C           3.6459    1.4580   36.3249 C.ar    1  UNL1        0.0549
     30 C           4.0693    0.8504   37.6293 C.ar    1  UNL1        0.0046
     31 C           3.6588    1.4895   38.9227 C.ar    1  UNL1        0.0001
     32 C           2.8249    2.7363   38.9117 C.ar    1  UNL1        0.0000
     33 C           2.4015    3.3439   37.6074 C.ar    1  UNL1        0.0001
     34 C           2.8120    2.7048   36.3139 C.ar    1  UNL1        0.0046
@<TRIPOS>BOND
     1    25    26    2
     2    26    27   am
     3    27    22    1
     4    22    23    2
     5    22    24    2
     6    22     1    1
     7     1     2    1
     8     2     3    1
     9     3     4    1
    10     4     7    1
    11     7     8    1
    12     8     9    1
    13     9    10    1
    14    10    13    1
    15    13    14    1
    16    14    15   ar
    17    15    16   ar
    18    16    17   ar
    19    17    18    1
    20    17    19   ar
    21    19    20    1
    22    19    21   ar
    23    10    11    1
    24    11    12    1
    25     4     5    1
    26     5     6    1
    27    26    29    1
    28    29    30   ar
    29    30    31   ar
    30    31    32   ar
    31    32    33   ar
    32    33    34   ar
    33     6     1    1
    34    34    29   ar
    35    12     7    1
    36    21    14   ar
    37    27    28    1
@<TRIPOS>MOLECULE
*****
 34 37 0 0 0
SMALL
GASTEIGER

@<TRIPOS>ATOM
      1 N           3.9709   -0.4489   30.8268 N.3     1  UNL1       -0.1427
      2 C           3.0583   -0.3417   29.6412 C.3     1  UNL1        0.0985
      3 C           3.4934   -0.8767   28.3091 C.3     1  UNL1        0.0352
      4 C           4.8411   -1.5188   28.1627 C.3     1  UNL1        0.0604
      5 C           5.7537   -1.6259   29.3483 C.3     1  UNL1        0.0352
      6 C           5.3185   -1.0910   30.6803 C.3     1  UNL1        0.0985
      7 N           5.2762   -2.0537   26.8305 N.3     1  UNL1       -0.2736
      8 C           4.5308   -1.6675   25.5874 C.3     1  UNL1        0.0758
      9 C           4.9659   -2.2024   24.2553 C.3     1  UNL1        0.0609
     10 C           6.1464   -3.1236   24.1662 C.3     1  UNL1        0.1687
     11 C           6.8918   -3.5098   25.4094 C.3     1  UNL1        0.0609
     12 C           6.4567   -2.9749   26.7415 C.3     1  UNL1        0.0758
     13 O           6.5815   -3.6585   22.8342 O.3     1  UNL1       -0.4790
     14 C           5.9382   -3.1535   21.5768 C.ar    1  UNL1        0.1393
     15 C           6.4005   -1.8652   20.9630 C.ar    1  UNL1        0.0378
     16 C           5.7571   -1.3602   19.7055 C.ar    1  UNL1        0.0154
     17 C           4.6516   -2.1435   19.0619 C.ar    1  UNL1        0.0684
     18 CL          4.0083   -1.6385   17.8045 Cl      1  UNL1       -0.0814
     19 C           4.1894   -3.4318   19.6756 C.ar    1  UNL1        0.0712
     20 CL          3.0839   -4.2150   19.0320 Cl      1  UNL1       -0.0813
     21 C           4.8327   -3.9368   20.9330 C.ar    1  UNL1        0.0491
     22 S           3.5358    0.0860   32.1590 S.O2    1  UNL1        0.1153
     23 O           3.5446   -1.3049   32.7204 O.2     1  UNL1       -0.1378
     24 O           3.5269    1.4770   31.5976 O.2     1  UNL1       -0.1378
     25 O           5.5794    0.7124   34.2640 O.2     1  UNL1       -0.2685
     26 C           4.1225    0.9341   34.5436 C.2     1  UNL1        0.2651
     27 N           3.1007    0.6209   33.4911 N.am    1  UNL1       -0.1714
     28 H           2.1444    0.7664   33.6746 H       1  UNL1        0.1779
     29 C           3.6874    1.4690   35.8758 C.ar    1  UNL1        0.0549
     30 C           4.1464    0.8015   37.1382 C.ar    1  UNL1        0.0046
     31 C           3.7112    1.3364   38.4703 C.ar    1  UNL1        0.0001
     32 C           2.8171    2.5388   38.5399 C.ar    1  UNL1        0.0000
     33 C           2.3581    3.2062   37.2775 C.ar    1  UNL1        0.0001
     34 C           2.7932    2.6713   35.9454 C.ar    1  UNL1        0.0046
@<TRIPOS>BOND
     1    25    26    2
     2    26    27   am
     3    27    22    1
     4    22    23    2
     5    22    24    2
     6    22     1    1
     7     1     2    1
     8     2     3    1
     9     3     4    1
    10     4     7    1
    11     7     8    1
    12     8     9    1
    13     9    10    1
    14    10    13    1
    15    13    14    1
    16    14    15   ar
    17    15    16   ar
    18    16    17   ar
    19    17    18    1
    20    17    19   ar
    21    19    20    1
    22    19    21   ar
    23    10    11    1
    24    11    12    1
    25     4     5    1
    26     5     6    1
    27    26    29    1
    28    29    30   ar
    29    30    31   ar
    30    31    32   ar
    31    32    33   ar
    32    33    34   ar
    33     6     1    1
    34    34    29   ar
    35    12     7    1
    36    21    14   ar
    37    27    28    1
@<TRIPOS>MOLECULE
*****
 34 37 0 0 0
SMALL
GASTEIGER

@<TRIPOS>ATOM
      1 N           1.7029    1.7457   30.4393 N.3     1  UNL1       -0.1427
      2 C           1.3055    2.9551   29.6462 C.3     1  UNL1        0.0985
      3 C           1.3235    2.9080   28.1470 C.3     1  UNL1        0.0352
      4 C           1.7390    1.6514   27.4411 C.3     1  UNL1        0.0604
      5 C           2.1364    0.4419   28.2343 C.3     1  UNL1        0.0352
      6 C           2.1183    0.4890   29.7334 C.3     1  UNL1        0.0985
      7 N           1.7570    1.6043   25.9419 N.3     1  UNL1       -0.2736
      8 C           0.5017    1.2825   25.1865 C.3     1  UNL1        0.0758
      9 C           0.5198    1.2355   23.6873 C.3     1  UNL1        0.0609
     10 C           1.7931    1.5102   22.9436 C.3     1  UNL1        0.1687
     11 C           3.0485    1.8319   23.6991 C.3     1  UNL1        0.0609
     12 C           3.0304    1.8790   25.1982 C.3     1  UNL1        0.0758
     13 O           1.8112    1.4631   21.4444 O.3     1  UNL1       -0.4790
     14 C           2.4825    0.3228   20.7380 C.ar    1  UNL1        0.1393
     15 C           2.8914   -0.8990   21.5061 C.ar    1  UNL1        0.0378
     16 C           3.5627   -2.0393   20.7995 C.ar    1  UNL1        0.0154
     17 C           3.8251   -1.9577   19.3249 C.ar    1  UNL1        0.0684
     18 CL          4.4963   -3.0980   18.6185 Cl      1  UNL1       -0.0814
     19 C           3.4161   -0.7359   18.5568 C.ar    1  UNL1        0.0712
     20 CL          3.6785   -0.6544   17.0822 Cl      1  UNL1       -0.0813
     21 C           2.7449    0.4043   19.2633 C.ar    1  UNL1        0.0491
     22 S           1.6849    1.7927   31.9385 S.O2    1  UNL1        0.1153
     23 O           0.9632    3.1067   31.8885 O.2     1  UNL1       -0.1378
     24 O           2.4065    0.4787   31.9885 O.2     1  UNL1       -0.1378
     25 O           3.9943    2.9941   33.4295 O.2     1  UNL1       -0.2685
     26 C           2.8215    2.4406   34.1831 C.2     1  UNL1        0.2651
     27 N           1.6668    1.8399   33.4377 N.am    1  UNL1       -0.1714
     28 H           0.8970    1.4765   33.9323 H       1  UNL1        0.1779
     29 C           2.8034    2.4877   35.6823 C.ar    1  UNL1        0.0549
     30 C           3.5095    1.4276   36.4746 C.ar    1  UNL1        0.0046
     31 C           3.4914    1.4747   37.9737 C.ar    1  UNL1        0.0001
     32 C           2.7672    2.5819   38.6806 C.ar    1  UNL1        0.0000
     33 C           2.0611    3.6420   37.8883 C.ar    1  UNL1        0.0001
     34 C           2.0793    3.5949   36.3892 C.ar    1  UNL1        0.0046
@<TRIPOS>BOND
     1    25    26    2
     2    26    27   am
     3    27    22    1
     4    22    23    2
     5    22    24    2
     6    22     1    1
     7     1     2    1
     8     2     3    1
     9     3     4    1
    10     4     7    1
    11     7     8    1
    12     8     9    1
    13     9    10    1
    14    10    13    1
    15    13    14    1
    16    14    15   ar
    17    15    16   ar
    18    16    17   ar
    19    17    18    1
    20    17    19   ar
    21    19    20    1
    22    19    21   ar
    23    10    11    1
    24    11    12    1
    25     4     5    1
    26     5     6    1
    27    26    29    1
    28    29    30   ar
    29    30    31   ar
    30    31    32   ar
    31    32    33   ar
    32    33    34   ar
    33     6     1    1
    34    34    29   ar
    35    12     7    1
    36    21    14   ar
    37    27    28    1
@<TRIPOS>MOLECULE
*****
 34 37 0 0 0
SMALL
GASTEIGER

@<TRIPOS>ATOM
      1 N           1.6116    1.7638   30.0238 N.3     1  UNL1       -0.1427
      2 C           2.2146    0.4508   30.4268 C.3     1  UNL1        0.0985
      3 C           2.9551   -0.3757   29.4175 C.3     1  UNL1        0.0352
      4 C           3.0926    0.1109   28.0053 C.3     1  UNL1        0.0604
      5 C           2.4896    1.4239   27.6023 C.3     1  UNL1        0.0352
      6 C           1.7491    2.2503   28.6116 C.3     1  UNL1        0.0985
      7 N           3.8331   -0.7156   26.9960 N.3     1  UNL1       -0.2736
      8 C           5.0108   -1.5414   27.4216 C.3     1  UNL1        0.0758
      9 C           5.7513   -2.3679   26.4123 C.3     1  UNL1        0.0609
     10 C           5.3140   -2.3686   24.9775 C.3     1  UNL1        0.1687
     11 C           4.1363   -1.5428   24.5519 C.3     1  UNL1        0.0609
     12 C           3.3958   -0.7164   25.5612 C.3     1  UNL1        0.0758
     13 O           6.0545   -3.1951   23.9682 O.3     1  UNL1       -0.4790
     14 C           5.7744   -3.0203   22.5050 C.ar    1  UNL1        0.1393
     15 C           6.4816   -1.9493   21.7287 C.ar    1  UNL1        0.0378
     16 C           6.2015   -1.7746   20.2654 C.ar    1  UNL1        0.0154
     17 C           5.2141   -2.6708   19.5786 C.ar    1  UNL1        0.0684
     18 CL          4.9340   -2.4960   18.1154 Cl      1  UNL1       -0.0814
     19 C           4.5069   -3.7418   20.3549 C.ar    1  UNL1        0.0712
     20 CL          3.5195   -4.6381   19.6681 Cl      1  UNL1       -0.0813
     21 C           4.7870   -3.9166   21.8181 C.ar    1  UNL1        0.0491
     22 S           0.8711    2.5903   31.0331 S.O2    1  UNL1        0.1153
     23 O           1.1791    1.5733   32.0918 O.2     1  UNL1       -0.1378
     24 O           0.5631    3.6073   29.9744 O.2     1  UNL1       -0.1378
     25 O           2.2943    4.7738   32.5186 O.2     1  UNL1       -0.2685
     26 C           0.8423    4.5085   32.7851 C.2     1  UNL1        0.2651
     27 N           0.1307    3.4167   32.0424 N.am    1  UNL1       -0.1714
     28 H          -0.8224    3.2426   32.2173 H       1  UNL1        0.1779
     29 C           0.1017    5.3350   33.7944 C.ar    1  UNL1        0.0549
     30 C           0.7287    5.6348   35.1237 C.ar    1  UNL1        0.0046
     31 C          -0.0118    6.4612   36.1329 C.ar    1  UNL1        0.0001
     32 C          -1.3794    6.9878   35.8129 C.ar    1  UNL1        0.0000
     33 C          -2.0064    6.6880   34.4837 C.ar    1  UNL1        0.0001
     34 C          -1.2659    5.8616   33.4744 C.ar    1  UNL1        0.0046
@<TRIPOS>BOND
     1    25    26    2
     2    26    27   am
     3    27    22    1
     4    22    23    2
     5    22    24    2
     6    22     1    1
     7     1     2    1
     8     2     3    1
     9     3     4    1
    10     4     7    1
    11     7     8    1
    12     8     9    1
    13     9    10    1
    14    10    13    1
    15    13    14    1
    16    14    15   ar
    17    15    16   ar
    18    16    17   ar
    19    17    18    1
    20    17    19   ar
    21    19    20    1
    22    19    21   ar
    23    10    11    1
    24    11    12    1
    25     4     5    1
    26     5     6    1
    27    26    29    1
    28    29    30   ar
    29    30    31   ar
    30    31    32   ar
    31    32    33   ar
    32    33    34   ar
    33     6     1    1
    34    34    29   ar
    35    12     7    1
    36    21    14   ar
    37    27    28    1
@<TRIPOS>MOLECULE
*****
 34 37 0 0 0
SMALL
GASTEIGER

@<TRIPOS>ATOM
      1 N           7.0015   -2.9061   32.2639 N.3     1  UNL1       -0.1427
      2 C           5.5508   -2.9009   32.6449 C.3     1  UNL1        0.0985
      3 C           5.0239   -1.8504   33.5770 C.3     1  UNL1        0.0352
      4 C           5.9478   -0.8050   34.1280 C.3     1  UNL1        0.0604
      5 C           7.3986   -0.8102   33.7470 C.3     1  UNL1        0.0352
      6 C           7.9254   -1.8607   32.8149 C.3     1  UNL1        0.0985
      7 N           5.4209    0.2455   35.0601 N.3     1  UNL1       -0.2736
      8 C           4.6266   -0.1539   36.2682 C.3     1  UNL1        0.0758
      9 C           4.0997    0.8967   37.2003 C.3     1  UNL1        0.0609
     10 C           4.3671    2.3466   36.9243 C.3     1  UNL1        0.1687
     11 C           5.1614    2.7460   35.7161 C.3     1  UNL1        0.0609
     12 C           5.6883    1.6954   34.7841 C.3     1  UNL1        0.0758
     13 O           3.8402    3.3971   37.8563 O.3     1  UNL1       -0.4790
     14 C           4.5163    3.6386   39.1733 C.ar    1  UNL1        0.1393
     15 C           5.8544    3.0215   39.4537 C.ar    1  UNL1        0.0378
     16 C           6.5306    3.2630   40.7707 C.ar    1  UNL1        0.0154
     17 C           5.8686    4.1216   41.8073 C.ar    1  UNL1        0.0684
     18 CL          6.5447    4.3630   43.1243 Cl      1  UNL1       -0.0814
     19 C           4.5304    4.7386   41.5270 C.ar    1  UNL1        0.0712
     20 CL          3.8684    5.5972   42.5636 Cl      1  UNL1       -0.0813
     21 C           3.8543    4.4972   40.2100 C.ar    1  UNL1        0.0491
     22 S           7.5285   -3.9566   31.3317 S.O2    1  UNL1        0.1153
     23 O           8.3677   -2.9228   30.6411 O.2     1  UNL1       -0.1378
     24 O           6.6892   -4.9904   32.0223 O.2     1  UNL1       -0.1378
     25 O           6.0906   -4.5419   28.7646 O.2     1  UNL1       -0.2685
     26 C           7.3365   -5.2997   29.1161 C.2     1  UNL1        0.2651
     27 N           8.0554   -5.0071   30.3997 N.am    1  UNL1       -0.1714
     28 H           8.8731   -5.5044   30.6303 H       1  UNL1        0.1779
     29 C           7.8635   -6.3503   28.1840 C.ar    1  UNL1        0.0549
     30 C           8.9244   -7.3026   28.6502 C.ar    1  UNL1        0.0046
     31 C           9.4514   -8.3531   27.7181 C.ar    1  UNL1        0.0001
     32 C           8.9174   -8.4511   26.3198 C.ar    1  UNL1        0.0000
     33 C           7.8564   -7.4988   25.8536 C.ar    1  UNL1        0.0001
     34 C           7.3295   -6.4483   26.7857 C.ar    1  UNL1        0.0046
@<TRIPOS>BOND
     1    25    26    2
     2    26    27   am
     3    27    22    1
     4    22    23    2
     5    22    24    2
     6    22     1    1
     7     1     2    1
     8     2     3    1
     9     3     4    1
    10     4     7    1
    11     7     8    1
    12     8     9    1
    13     9    10    1
    14    10    13    1
    15    13    14    1
    16    14    15   ar
    17    15    16   ar
    18    16    17   ar
    19    17    18    1
    20    17    19   ar
    21    19    20    1
    22    19    21   ar
    23    10    11    1
    24    11    12    1
    25     4     5    1
    26     5     6    1
    27    26    29    1
    28    29    30   ar
    29    30    31   ar
    30    31    32   ar
    31    32    33   ar
    32    33    34   ar
    33     6     1    1
    34    34    29   ar
    35    12     7    1
    36    21    14   ar
    37    27    28    1
@<TRIPOS>MOLECULE
*****
 34 37 0 0 0
SMALL
GASTEIGER

@<TRIPOS>ATOM
      1 N           5.2698   -1.5129   31.4446 N.3     1  UNL1       -0.1427
      2 C           4.6745   -0.8366   30.2454 C.3     1  UNL1        0.0985
      3 C           5.0061   -1.3260   28.8668 C.3     1  UNL1        0.0352
      4 C           5.9330   -2.4917   28.6875 C.3     1  UNL1        0.0604
      5 C           6.5282   -3.1680   29.8867 C.3     1  UNL1        0.0352
      6 C           6.1966   -2.6786   31.2653 C.3     1  UNL1        0.0985
      7 N           6.2646   -2.9811   27.3088 N.3     1  UNL1       -0.2736
      8 C           6.2769   -2.0222   26.1554 C.3     1  UNL1        0.0758
      9 C           6.6085   -2.5116   24.7767 C.3     1  UNL1        0.0609
     10 C           6.9277   -3.9599   24.5516 C.3     1  UNL1        0.1687
     11 C           6.9154   -4.9187   25.7051 C.3     1  UNL1        0.0609
     12 C           6.5838   -4.4293   27.0837 C.3     1  UNL1        0.0758
     13 O           7.2593   -4.4493   23.1730 O.3     1  UNL1       -0.4790
     14 C           6.5122   -3.9143   21.9874 C.ar    1  UNL1        0.1393
     15 C           5.0122   -3.9115   21.9850 C.ar    1  UNL1        0.0378
     16 C           4.2651   -3.3766   20.7993 C.ar    1  UNL1        0.0154
     17 C           5.0180   -2.8445   19.6162 C.ar    1  UNL1        0.0684
     18 CL          4.2710   -2.3095   18.4306 Cl      1  UNL1       -0.0814
     19 C           6.5180   -2.8472   19.6186 C.ar    1  UNL1        0.0712
     20 CL          7.2709   -2.3151   18.4354 Cl      1  UNL1       -0.0813
     21 C           7.2651   -3.3822   20.8042 C.ar    1  UNL1        0.0491
     22 S           4.9382   -1.0235   32.8233 S.O2    1  UNL1        0.1153
     23 O           3.5381   -1.5394   32.6696 O.2     1  UNL1       -0.1378
     24 O           6.3383   -0.5077   32.9769 O.2     1  UNL1       -0.1378
     25 O           3.7913    1.7222   33.2049 O.2     1  UNL1       -0.2685
     26 C           4.0331    0.8387   34.3927 C.2     1  UNL1        0.2651
     27 N           4.6066   -0.5342   34.2019 N.am    1  UNL1       -0.1714
     28 H           4.7653   -1.1141   34.9815 H       1  UNL1        0.1779
     29 C           3.7015    1.3280   35.7713 C.ar    1  UNL1        0.0549
     30 C           4.2737    0.6335   36.9715 C.ar    1  UNL1        0.0046
     31 C           3.9420    1.1229   38.3500 C.ar    1  UNL1        0.0001
     32 C           3.0383    2.3066   38.5285 C.ar    1  UNL1        0.0000
     33 C           2.4661    3.0011   37.3284 C.ar    1  UNL1        0.0001
     34 C           2.7977    2.5118   35.9498 C.ar    1  UNL1        0.0046
@<TRIPOS>BOND
     1    25    26    2
     2    26    27   am
     3    27    22    1
     4    22    23    2
     5    22    24    2
     6    22     1    1
     7     1     2    1
     8     2     3    1
     9     3     4    1
    10     4     7    1
    11     7     8    1
    12     8     9    1
    13     9    10    1
    14    10    13    1
    15    13    14    1
    16    14    15   ar
    17    15    16   ar
    18    16    17   ar
    19    17    18    1
    20    17    19   ar
    21    19    20    1
    22    19    21   ar
    23    10    11    1
    24    11    12    1
    25     4     5    1
    26     5     6    1
    27    26    29    1
    28    29    30   ar
    29    30    31   ar
    30    31    32   ar
    31    32    33   ar
    32    33    34   ar
    33     6     1    1
    34    34    29   ar
    35    12     7    1
    36    21    14   ar
    37    27    28    1
