@<TRIPOS>MOLECULE
*****
 37 40 0 0 0
SMALL
GASTEIGER

@<TRIPOS>ATOM
      1 C          -0.9691  -16.2359   21.1548 C.3     1  UNL1        0.0218
      2 C          -2.1684  -16.6769   21.9403 C.3     1  UNL1        0.0822
      3 N          -3.2237  -15.6810   22.3204 N.am    1  UNL1       -0.2898
      4 C          -4.3400  -16.0843   23.2375 C.2     1  UNL1        0.3044
      5 O          -4.4010  -17.4836   23.7745 O.2     1  UNL1       -0.2525
      6 N          -5.3953  -15.0884   23.6176 N.am    1  UNL1       -0.2683
      7 H          -3.1836  -14.7627   21.9680 H       1  UNL1        0.1509
      8 H          -5.3553  -14.1701   23.2652 H       1  UNL1        0.1564
      9 C          -6.5117  -15.4917   24.5347 C.ar    1  UNL1        0.0517
     10 C          -6.3514  -15.3489   26.0193 C.ar    1  UNL1        0.0147
     11 C          -7.4678  -15.7522   26.9364 C.ar    1  UNL1        0.0014
     12 C          -8.7444  -16.2984   26.3689 C.ar    1  UNL1        0.0032
     13 C          -8.9046  -16.4412   24.8844 C.ar    1  UNL1        0.0386
     14 C          -7.7883  -16.0379   23.9672 C.ar    1  UNL1        0.0178
     15 C         -10.1812  -16.9874   24.3170 C.ar    1  UNL1        0.1839
     16 N         -11.2001  -16.2137   23.5337 N.ar    1  UNL1       -0.1081
     17 N         -12.3117  -17.1513   23.1658 N.ar    1  UNL1       -0.0227
     18 N         -11.9799  -18.5044   23.7217 N.ar    1  UNL1       -0.0429
     19 N         -10.6632  -18.4031   24.4332 N.ar    1  UNL1       -0.2113
     20 C          -9.9532  -19.5212   25.1372 C.3     1  UNL1        0.1573
     21 C          -2.3124  -18.1140   22.3457 C.3     1  UNL1        0.1048
     22 C          -2.4061  -19.1831   21.2979 C.2     1  UNL1        0.2273
     23 O          -1.1828  -19.5921   20.5322 O.2     1  UNL1       -0.2748
     24 N          -3.7231  -19.8433   21.0156 N.am    1  UNL1       -0.2795
     25 C          -3.8168  -20.9125   19.9677 C.3     1  UNL1        0.0934
     26 C          -5.1338  -21.5727   19.6855 C.3     1  UNL1        0.0216
     27 C          -6.3571  -21.1637   20.4512 C.3     1  UNL1        0.0038
     28 C          -6.2634  -20.0945   21.4990 C.3     1  UNL1        0.0243
     29 C          -4.9465  -19.4343   21.7813 C.3     1  UNL1        0.0937
     30 C          -7.4868  -19.6855   22.2647 C.3     1  UNL1        0.0280
     31 C          -8.6408  -19.0478   21.5495 C.ar    1  UNL1       -0.0220
     32 C          -9.7955  -19.8881   21.0905 C.ar    1  UNL1       -0.0020
     33 C         -10.9496  -19.2504   20.3754 C.ar    1  UNL1        0.0293
     34 C         -10.9490  -17.7725   20.1192 C.ar    1  UNL1        0.1401
     35 F         -12.1031  -17.1348   19.4040 F       1  UNL1       -0.2042
     36 C          -9.7943  -16.9322   20.5781 C.ar    1  UNL1        0.0293
     37 C          -8.6402  -17.5699   21.2933 C.ar    1  UNL1       -0.0020
@<TRIPOS>BOND
     1     2     1    1
     2     2    21    1
     3    21    22    1
     4    22    23    2
     5    22    24   am
     6    24    25    1
     7    25    26    1
     8    26    27    1
     9    27    28    1
    10    28    30    1
    11    30    31    1
    12    31    32   ar
    13    32    33   ar
    14    33    34   ar
    15    34    35    1
    16    34    36   ar
    17    36    37   ar
    18    28    29    1
    19     2     3    1
    20     3     4   am
    21     4     5    2
    22     4     6   am
    23     6     9    1
    24     9    10   ar
    25    10    11   ar
    26    11    12   ar
    27    12    13   ar
    28    13    15    1
    29    15    16   ar
    30    16    17   ar
    31    17    18   ar
    32    18    19   ar
    33    19    20    1
    34    13    14   ar
    35    29    24    1
    36    14     9   ar
    37    37    31   ar
    38    19    15   ar
    39     3     7    1
    40     6     8    1
@<TRIPOS>MOLECULE
*****
 37 40 0 0 0
SMALL
GASTEIGER

@<TRIPOS>ATOM
      1 C           0.5186    2.5483   30.2898 C.3     1  UNL1        0.0218
      2 C           1.2194    2.8480   31.5817 C.3     1  UNL1        0.0822
      3 N           1.6084    1.7285   32.5012 N.am    1  UNL1       -0.2898
      4 C           2.9793    1.1264   32.4116 C.2     1  UNL1        0.3044
      5 O           3.9611    1.6437   31.4025 O.2     1  UNL1       -0.2525
      6 N           3.3683    0.0069   33.3310 N.am    1  UNL1       -0.2683
      7 H           0.9640    1.3890   33.1635 H       1  UNL1        0.1509
      8 H           2.7239   -0.3327   33.9933 H       1  UNL1        0.1564
      9 C           4.7392   -0.5953   33.2414 C.ar    1  UNL1        0.0517
     10 C           5.9023    0.0865   33.8991 C.ar    1  UNL1        0.0147
     11 C           7.2732   -0.5157   33.8095 C.ar    1  UNL1        0.0014
     12 C           7.4810   -1.7995   33.0622 C.ar    1  UNL1        0.0032
     13 C           6.3180   -2.4813   32.4045 C.ar    1  UNL1        0.0386
     14 C           4.9470   -1.8791   32.4941 C.ar    1  UNL1        0.0178
     15 C           6.5259   -3.7652   31.6572 C.ar    1  UNL1        0.1839
     16 N           6.6981   -5.1237   32.2694 N.ar    1  UNL1       -0.1081
     17 N           6.8767   -6.1141   31.1570 N.ar    1  UNL1       -0.0227
     18 N           6.8148   -5.3677   29.8574 N.ar    1  UNL1       -0.0429
     19 N           6.5979   -3.9160   30.1665 N.ar    1  UNL1       -0.2113
     20 C           6.4748   -2.8093   29.1614 C.3     1  UNL1        0.1573
     21 C           1.5311    4.2672   31.9543 C.3     1  UNL1        0.1048
     22 C           0.4371    5.1742   32.4343 C.2     1  UNL1        0.2273
     23 O          -0.5390    5.7556   31.4550 O.2     1  UNL1       -0.2748
     24 N           0.3192    5.4999   33.8939 N.am    1  UNL1       -0.2795
     25 C          -0.7747    6.4069   34.3739 C.3     1  UNL1        0.0934
     26 C          -0.8926    6.7325   35.8334 C.3     1  UNL1        0.0216
     27 C           0.0835    6.1511   36.8128 C.3     1  UNL1        0.0038
     28 C           1.1775    5.2441   36.3327 C.3     1  UNL1        0.0243
     29 C           1.2953    4.9185   34.8732 C.3     1  UNL1        0.0937
     30 C           2.1536    4.6627   37.3121 C.3     1  UNL1        0.0280
     31 C           1.8832    3.3261   37.9367 C.ar    1  UNL1       -0.0220
     32 C           0.6332    3.1115   38.7377 C.ar    1  UNL1       -0.0020
     33 C           0.3628    1.7749   39.3624 C.ar    1  UNL1        0.0293
     34 C           1.3424    0.6527   39.1861 C.ar    1  UNL1        0.1401
     35 F           1.0720   -0.6840   39.8109 F       1  UNL1       -0.2042
     36 C           2.5924    0.8672   38.3852 C.ar    1  UNL1        0.0293
     37 C           2.8628    2.2039   37.7605 C.ar    1  UNL1       -0.0020
@<TRIPOS>BOND
     1     2     1    1
     2     2    21    1
     3    21    22    1
     4    22    23    2
     5    22    24   am
     6    24    25    1
     7    25    26    1
     8    26    27    1
     9    27    28    1
    10    28    30    1
    11    30    31    1
    12    31    32   ar
    13    32    33   ar
    14    33    34   ar
    15    34    35    1
    16    34    36   ar
    17    36    37   ar
    18    28    29    1
    19     2     3    1
    20     3     4   am
    21     4     5    2
    22     4     6   am
    23     6     9    1
    24     9    10   ar
    25    10    11   ar
    26    11    12   ar
    27    12    13   ar
    28    13    15    1
    29    15    16   ar
    30    16    17   ar
    31    17    18   ar
    32    18    19   ar
    33    19    20    1
    34    13    14   ar
    35    29    24    1
    36    14     9   ar
    37    37    31   ar
    38    19    15   ar
    39     3     7    1
    40     6     8    1
@<TRIPOS>MOLECULE
*****
 37 40 0 0 0
SMALL
GASTEIGER

@<TRIPOS>ATOM
      1 C          -2.0899  -15.7925   21.6089 C.3     1  UNL1        0.0218
      2 C          -2.6879  -16.6716   22.6670 C.3     1  UNL1        0.0822
      3 N          -3.7091  -16.1159   23.6148 N.am    1  UNL1       -0.2898
      4 C          -5.1562  -16.4766   23.4541 C.2     1  UNL1        0.3044
      5 O          -5.5820  -17.3931   22.3456 O.2     1  UNL1       -0.2525
      6 N          -6.1774  -15.9209   24.4019 N.am    1  UNL1       -0.2683
      7 H          -3.4296  -15.5144   24.3423 H       1  UNL1        0.1509
      8 H          -5.8979  -15.3194   25.1294 H       1  UNL1        0.1564
      9 C          -7.6244  -16.2817   24.2412 C.ar    1  UNL1        0.0517
     10 C          -8.3509  -16.9810   25.3518 C.ar    1  UNL1        0.0147
     11 C          -9.7979  -17.3417   25.1911 C.ar    1  UNL1        0.0014
     12 C         -10.5186  -17.0032   23.9199 C.ar    1  UNL1        0.0032
     13 C          -9.7922  -16.3040   22.8093 C.ar    1  UNL1        0.0386
     14 C          -8.3451  -15.9432   22.9699 C.ar    1  UNL1        0.0178
     15 C         -10.5129  -15.9655   21.5380 C.ar    1  UNL1        0.1839
     16 N          -9.8846  -15.4399   20.2814 N.ar    1  UNL1       -0.1081
     17 N         -10.9718  -15.2427   19.2670 N.ar    1  UNL1       -0.0227
     18 N         -12.2720  -15.6465   19.8966 N.ar    1  UNL1       -0.0429
     19 N         -11.9884  -16.0932   21.3001 N.ar    1  UNL1       -0.2113
     20 C         -13.0023  -16.5819   22.2917 C.3     1  UNL1        0.1573
     21 C          -2.2646  -18.1065   22.7774 C.3     1  UNL1        0.1048
     22 C          -2.2816  -18.9888   21.5645 C.2     1  UNL1        0.2273
     23 O          -1.0690  -19.0800   20.6863 O.2     1  UNL1       -0.2748
     24 N          -3.5112  -19.7802   21.2298 N.am    1  UNL1       -0.2795
     25 C          -3.5282  -20.6626   20.0170 C.3     1  UNL1        0.0934
     26 C          -4.7577  -21.4539   19.6824 C.3     1  UNL1        0.0216
     27 C          -5.9703  -21.3627   20.5606 C.3     1  UNL1        0.0038
     28 C          -5.9533  -20.4804   21.7735 C.3     1  UNL1        0.0243
     29 C          -4.7238  -19.6891   22.1081 C.3     1  UNL1        0.0937
     30 C          -7.1659  -20.3893   22.6517 C.3     1  UNL1        0.0280
     31 C          -8.4980  -20.0400   22.0573 C.ar    1  UNL1       -0.0220
     32 C          -8.5705  -19.4065   20.6994 C.ar    1  UNL1       -0.0020
     33 C          -9.9026  -19.0572   20.1050 C.ar    1  UNL1        0.0293
     34 C         -11.1623  -19.3413   20.8682 C.ar    1  UNL1        0.1401
     35 F         -12.4944  -18.9920   20.2736 F       1  UNL1       -0.2042
     36 C         -11.0898  -19.9747   22.2259 C.ar    1  UNL1        0.0293
     37 C          -9.7577  -20.3241   22.8205 C.ar    1  UNL1       -0.0020
@<TRIPOS>BOND
     1     2     1    1
     2     2    21    1
     3    21    22    1
     4    22    23    2
     5    22    24   am
     6    24    25    1
     7    25    26    1
     8    26    27    1
     9    27    28    1
    10    28    30    1
    11    30    31    1
    12    31    32   ar
    13    32    33   ar
    14    33    34   ar
    15    34    35    1
    16    34    36   ar
    17    36    37   ar
    18    28    29    1
    19     2     3    1
    20     3     4   am
    21     4     5    2
    22     4     6   am
    23     6     9    1
    24     9    10   ar
    25    10    11   ar
    26    11    12   ar
    27    12    13   ar
    28    13    15    1
    29    15    16   ar
    30    16    17   ar
    31    17    18   ar
    32    18    19   ar
    33    19    20    1
    34    13    14   ar
    35    29    24    1
    36    14     9   ar
    37    37    31   ar
    38    19    15   ar
    39     3     7    1
    40     6     8    1
@<TRIPOS>MOLECULE
*****
 37 40 0 0 0
SMALL
GASTEIGER

@<TRIPOS>ATOM
      1 C           3.9217   -0.7071   28.7646 C.3     1  UNL1        0.0218
      2 C           4.5597   -1.3901   27.5915 C.3     1  UNL1        0.0822
      3 N           3.7415   -1.7165   26.3775 N.am    1  UNL1       -0.2898
      4 C           3.7480   -0.7906   25.1974 C.2     1  UNL1        0.3044
      5 O           4.5728    0.4618   25.2314 O.2     1  UNL1       -0.2525
      6 N           2.9297   -1.1170   23.9834 N.am    1  UNL1       -0.2683
      7 H           3.2001   -2.5385   26.3552 H       1  UNL1        0.1509
      8 H           2.3883   -1.9390   23.9611 H       1  UNL1        0.1564
      9 C           2.9362   -0.1911   22.8034 C.ar    1  UNL1        0.0517
     10 C           2.3478    1.1834   22.9252 C.ar    1  UNL1        0.0147
     11 C           2.3543    2.1093   21.7452 C.ar    1  UNL1        0.0014
     12 C           2.9493    1.6609   20.4433 C.ar    1  UNL1        0.0032
     13 C           3.5377    0.2866   20.3214 C.ar    1  UNL1        0.0386
     14 C           3.5312   -0.6394   21.5015 C.ar    1  UNL1        0.0178
     15 C           4.1327   -0.1618   19.0195 C.ar    1  UNL1        0.1839
     16 N           3.3767   -0.7208   17.8507 N.ar    1  UNL1       -0.1081
     17 N           4.3650   -1.0344   16.7666 N.ar    1  UNL1       -0.0227
     18 N           5.7317   -0.6692   17.2655 N.ar    1  UNL1       -0.0429
     19 N           5.5881   -0.1299   18.6578 N.ar    1  UNL1       -0.2113
     20 C           6.7041    0.3559   19.5345 C.3     1  UNL1        0.1573
     21 C           6.0162   -1.7468   27.6324 C.3     1  UNL1        0.1048
     22 C           6.4339   -3.1842   27.7282 C.2     1  UNL1        0.2273
     23 O           6.4311   -3.8791   29.0576 O.2     1  UNL1       -0.2748
     24 N           6.8546   -3.9269   26.4947 N.am    1  UNL1       -0.2795
     25 C           7.2723   -5.3643   26.5905 C.3     1  UNL1        0.0934
     26 C           7.6929   -6.1069   25.3570 C.3     1  UNL1        0.0216
     27 C           7.6957   -5.4121   24.0276 C.3     1  UNL1        0.0038
     28 C           7.2780   -3.9747   23.9318 C.3     1  UNL1        0.0243
     29 C           6.8574   -3.2321   25.1653 C.3     1  UNL1        0.0937
     30 C           7.2808   -3.2798   22.6024 C.3     1  UNL1        0.0280
     31 C           6.1929   -3.5585   21.6082 C.ar    1  UNL1       -0.0220
     32 C           4.8337   -3.9805   22.0822 C.ar    1  UNL1       -0.0020
     33 C           3.7457   -4.2591   21.0879 C.ar    1  UNL1        0.0293
     34 C           4.0168   -4.1159   19.6196 C.ar    1  UNL1        0.1401
     35 F           2.9288   -4.3946   18.6253 F       1  UNL1       -0.2042
     36 C           5.3759   -3.6940   19.1456 C.ar    1  UNL1        0.0293
     37 C           6.4640   -3.4152   20.1398 C.ar    1  UNL1       -0.0020
@<TRIPOS>BOND
     1     2     1    1
     2     2    21    1
     3    21    22    1
     4    22    23    2
     5    22    24   am
     6    24    25    1
     7    25    26    1
     8    26    27    1
     9    27    28    1
    10    28    30    1
    11    30    31    1
    12    31    32   ar
    13    32    33   ar
    14    33    34   ar
    15    34    35    1
    16    34    36   ar
    17    36    37   ar
    18    28    29    1
    19     2     3    1
    20     3     4   am
    21     4     5    2
    22     4     6   am
    23     6     9    1
    24     9    10   ar
    25    10    11   ar
    26    11    12   ar
    27    12    13   ar
    28    13    15    1
    29    15    16   ar
    30    16    17   ar
    31    17    18   ar
    32    18    19   ar
    33    19    20    1
    34    13    14   ar
    35    29    24    1
    36    14     9   ar
    37    37    31   ar
    38    19    15   ar
    39     3     7    1
    40     6     8    1
@<TRIPOS>MOLECULE
*****
 37 40 0 0 0
SMALL
GASTEIGER

@<TRIPOS>ATOM
      1 C          -4.3790  -14.4944   22.8370 C.3     1  UNL1        0.0218
      2 C          -4.4543  -15.7593   23.6396 C.3     1  UNL1        0.0822
      3 N          -5.6173  -15.9979   24.5563 N.am    1  UNL1       -0.2898
      4 C          -6.9383  -16.4328   23.9944 C.2     1  UNL1        0.3044
      5 O          -7.0962  -16.6293   22.5157 O.2     1  UNL1       -0.2525
      6 N          -8.1014  -16.6714   24.9111 N.am    1  UNL1       -0.2683
      7 H          -5.5137  -15.8689   25.5268 H       1  UNL1        0.1509
      8 H          -7.9977  -16.5424   25.8816 H       1  UNL1        0.1564
      9 C          -9.4223  -17.1063   24.3492 C.ar    1  UNL1        0.0517
     10 C         -10.2584  -18.1086   25.0884 C.ar    1  UNL1        0.0147
     11 C         -11.5794  -18.5436   24.5265 C.ar    1  UNL1        0.0014
     12 C         -12.0643  -17.9763   23.2253 C.ar    1  UNL1        0.0032
     13 C         -11.2283  -16.9740   22.4861 C.ar    1  UNL1        0.0386
     14 C          -9.9073  -16.5390   23.0480 C.ar    1  UNL1        0.0178
     15 C         -11.7133  -16.4068   21.1849 C.ar    1  UNL1        0.1839
     16 N         -13.0691  -16.6216   20.5801 N.ar    1  UNL1       -0.1081
     17 N         -13.1213  -15.8726   19.2815 N.ar    1  UNL1       -0.0227
     18 N         -11.7978  -15.1949   19.0837 N.ar    1  UNL1       -0.0429
     19 N         -10.9276  -15.5251   20.2601 N.ar    1  UNL1       -0.2113
     20 C          -9.5190  -15.0558   20.4740 C.3     1  UNL1        0.1573
     21 C          -3.3664  -16.7859   23.5254 C.3     1  UNL1        0.1048
     22 C          -2.5942  -16.9213   22.2467 C.2     1  UNL1        0.2273
     23 O          -1.4381  -16.0070   21.9682 O.2     1  UNL1       -0.2748
     24 N          -2.9781  -17.9710   21.2462 N.am    1  UNL1       -0.2795
     25 C          -2.2058  -18.1064   19.9675 C.3     1  UNL1        0.0934
     26 C          -2.5897  -19.1561   18.9671 C.3     1  UNL1        0.0216
     27 C          -3.7458  -20.0704   19.2456 C.3     1  UNL1        0.0038
     28 C          -4.5181  -19.9350   20.5243 C.3     1  UNL1        0.0243
     29 C          -4.1342  -18.8853   21.5247 C.3     1  UNL1        0.0937
     30 C          -5.6742  -20.8493   20.8027 C.3     1  UNL1        0.0280
     31 C          -7.0701  -20.4179   20.4634 C.ar    1  UNL1       -0.0220
     32 C          -7.5852  -20.5776   19.0637 C.ar    1  UNL1       -0.0020
     33 C          -8.9811  -20.1462   18.7244 C.ar    1  UNL1        0.0293
     34 C          -9.8621  -19.5551   19.7848 C.ar    1  UNL1        0.1401
     35 F         -11.2581  -19.1237   19.4454 F       1  UNL1       -0.2042
     36 C          -9.3471  -19.3953   21.1845 C.ar    1  UNL1        0.0293
     37 C          -7.9511  -19.8267   21.5239 C.ar    1  UNL1       -0.0020
@<TRIPOS>BOND
     1     2     1    1
     2     2    21    1
     3    21    22    1
     4    22    23    2
     5    22    24   am
     6    24    25    1
     7    25    26    1
     8    26    27    1
     9    27    28    1
    10    28    30    1
    11    30    31    1
    12    31    32   ar
    13    32    33   ar
    14    33    34   ar
    15    34    35    1
    16    34    36   ar
    17    36    37   ar
    18    28    29    1
    19     2     3    1
    20     3     4   am
    21     4     5    2
    22     4     6   am
    23     6     9    1
    24     9    10   ar
    25    10    11   ar
    26    11    12   ar
    27    12    13   ar
    28    13    15    1
    29    15    16   ar
    30    16    17   ar
    31    17    18   ar
    32    18    19   ar
    33    19    20    1
    34    13    14   ar
    35    29    24    1
    36    14     9   ar
    37    37    31   ar
    38    19    15   ar
    39     3     7    1
    40     6     8    1
@<TRIPOS>MOLECULE
*****
 37 40 0 0 0
SMALL
GASTEIGER

@<TRIPOS>ATOM
      1 C           8.6279   -4.0699   31.3939 C.3     1  UNL1        0.0218
      2 C           7.1715   -4.1863   31.0546 C.3     1  UNL1        0.0822
      3 N           6.1347   -3.9789   32.1186 N.am    1  UNL1       -0.2898
      4 C           5.7535   -2.5888   32.5336 C.2     1  UNL1        0.3044
      5 O           6.4092   -1.4061   31.8847 O.2     1  UNL1       -0.2525
      6 N           4.7167   -2.3814   33.5976 N.am    1  UNL1       -0.2683
      7 H           5.7043   -4.7552   32.5445 H       1  UNL1        0.1509
      8 H           4.2864   -3.1577   34.0235 H       1  UNL1        0.1564
      9 C           4.3356   -0.9913   34.0126 C.ar    1  UNL1        0.0517
     10 C           3.5652   -0.1125   33.0723 C.ar    1  UNL1        0.0147
     11 C           3.1840    1.2776   33.4873 C.ar    1  UNL1        0.0014
     12 C           3.5732    1.7890   34.8427 C.ar    1  UNL1        0.0032
     13 C           4.3436    0.9102   35.7830 C.ar    1  UNL1        0.0386
     14 C           4.7248   -0.4800   35.3680 C.ar    1  UNL1        0.0178
     15 C           4.7328    1.4215   37.1384 C.ar    1  UNL1        0.1839
     16 N           6.0772    1.9644   37.5233 N.ar    1  UNL1       -0.1081
     17 N           6.0212    2.3581   38.9697 N.ar    1  UNL1       -0.0227
     18 N           4.6423    2.0587   39.4786 N.ar    1  UNL1       -0.0429
     19 N           3.8460    1.4799   38.3468 N.ar    1  UNL1       -0.2113
     20 C           2.4144    1.0371   38.4120 C.3     1  UNL1        0.1573
     21 C           6.7517   -4.5100   29.6513 C.3     1  UNL1        0.1048
     22 C           7.3687   -5.6736   28.9335 C.2     1  UNL1        0.2273
     23 O           7.9400   -6.8195   29.7149 O.2     1  UNL1       -0.2748
     24 N           7.4143   -5.6914   27.4343 N.am    1  UNL1       -0.2795
     25 C           8.0312   -6.8551   26.7165 C.3     1  UNL1        0.0934
     26 C           8.0768   -6.8729   25.2173 C.3     1  UNL1        0.0216
     27 C           7.5054   -5.7270   24.4360 C.3     1  UNL1        0.0038
     28 C           6.8885   -4.5633   25.1538 C.3     1  UNL1        0.0243
     29 C           6.8429   -4.5456   26.6529 C.3     1  UNL1        0.0937
     30 C           6.3172   -3.4175   24.3724 C.3     1  UNL1        0.0280
     31 C           6.0552   -3.5682   22.9032 C.ar    1  UNL1       -0.0220
     32 C           7.1916   -3.4921   21.9270 C.ar    1  UNL1       -0.0020
     33 C           6.9296   -3.6428   20.4578 C.ar    1  UNL1        0.0293
     34 C           5.5313   -3.8695   19.9647 C.ar    1  UNL1        0.1401
     35 F           5.2693   -4.0202   18.4954 F       1  UNL1       -0.2042
     36 C           4.3949   -3.9456   20.9408 C.ar    1  UNL1        0.0293
     37 C           4.6568   -3.7949   22.4101 C.ar    1  UNL1       -0.0020
@<TRIPOS>BOND
     1     2     1    1
     2     2    21    1
     3    21    22    1
     4    22    23    2
     5    22    24   am
     6    24    25    1
     7    25    26    1
     8    26    27    1
     9    27    28    1
    10    28    30    1
    11    30    31    1
    12    31    32   ar
    13    32    33   ar
    14    33    34   ar
    15    34    35    1
    16    34    36   ar
    17    36    37   ar
    18    28    29    1
    19     2     3    1
    20     3     4   am
    21     4     5    2
    22     4     6   am
    23     6     9    1
    24     9    10   ar
    25    10    11   ar
    26    11    12   ar
    27    12    13   ar
    28    13    15    1
    29    15    16   ar
    30    16    17   ar
    31    17    18   ar
    32    18    19   ar
    33    19    20    1
    34    13    14   ar
    35    29    24    1
    36    14     9   ar
    37    37    31   ar
    38    19    15   ar
    39     3     7    1
    40     6     8    1
@<TRIPOS>MOLECULE
*****
 37 40 0 0 0
SMALL
GASTEIGER

@<TRIPOS>ATOM
      1 C           6.1951   -0.5495   28.3048 C.3     1  UNL1        0.0218
      2 C           5.1292   -0.7475   27.2682 C.3     1  UNL1        0.0822
      3 N           4.9961   -2.0695   26.5722 N.am    1  UNL1       -0.2898
      4 C           5.8312   -2.3676   25.3624 C.2     1  UNL1        0.3044
      5 O           6.7994   -1.3437   24.8486 O.2     1  UNL1       -0.2525
      6 N           5.6982   -3.6897   24.6664 N.am    1  UNL1       -0.2683
      7 H           4.3606   -2.7416   26.9094 H       1  UNL1        0.1509
      8 H           5.0627   -4.3618   25.0036 H       1  UNL1        0.1564
      9 C           6.5333   -3.9878   23.4566 C.ar    1  UNL1        0.0517
     10 C           7.7088   -4.9132   23.5662 C.ar    1  UNL1        0.0147
     11 C           8.5440   -5.2112   22.3564 C.ar    1  UNL1        0.0014
     12 C           8.2037   -4.5840   21.0370 C.ar    1  UNL1        0.0032
     13 C           7.0282   -3.6587   20.9274 C.ar    1  UNL1        0.0386
     14 C           6.1930   -3.3606   22.1372 C.ar    1  UNL1        0.0178
     15 C           6.6879   -3.0315   19.6080 C.ar    1  UNL1        0.1839
     16 N           7.4132   -1.8884   18.9620 N.ar    1  UNL1       -0.1081
     17 N           6.7360   -1.5877   17.6577 N.ar    1  UNL1       -0.0227
     18 N           5.5923   -2.5449   17.4976 N.ar    1  UNL1       -0.0429
     19 N           5.5626   -3.4372   18.7030 N.ar    1  UNL1       -0.2113
     20 C           4.5800   -4.5414   18.9585 C.3     1  UNL1        0.1573
     21 C           4.1962    0.3767   26.9276 C.3     1  UNL1        0.1048
     22 C           2.9302    0.5639   27.7099 C.2     1  UNL1        0.2273
     23 O           2.9090    0.2774   29.1822 O.2     1  UNL1       -0.2748
     24 N           1.6853    1.0376   27.0201 N.am    1  UNL1       -0.2795
     25 C           0.4193    1.2248   27.8024 C.3     1  UNL1        0.0934
     26 C          -0.8255    1.6986   27.1125 C.3     1  UNL1        0.0216
     27 C          -0.8043    1.9851   25.6403 C.3     1  UNL1        0.0038
     28 C           0.4617    1.7979   24.8579 C.3     1  UNL1        0.0243
     29 C           1.7065    1.3241   25.5478 C.3     1  UNL1        0.0937
     30 C           0.4829    2.0844   23.3857 C.3     1  UNL1        0.0280
     31 C           1.0252    1.0629   22.4306 C.ar    1  UNL1       -0.0220
     32 C           2.2964    0.3348   22.7532 C.ar    1  UNL1       -0.0020
     33 C           2.8388   -0.6867   21.7981 C.ar    1  UNL1        0.0293
     34 C           2.1100   -0.9802   20.5203 C.ar    1  UNL1        0.1401
     35 F           2.6524   -2.0018   19.5651 F       1  UNL1       -0.2042
     36 C           0.8389   -0.2522   20.1976 C.ar    1  UNL1        0.0293
     37 C           0.2964    0.7694   21.1528 C.ar    1  UNL1       -0.0020
@<TRIPOS>BOND
     1     2     1    1
     2     2    21    1
     3    21    22    1
     4    22    23    2
     5    22    24   am
     6    24    25    1
     7    25    26    1
     8    26    27    1
     9    27    28    1
    10    28    30    1
    11    30    31    1
    12    31    32   ar
    13    32    33   ar
    14    33    34   ar
    15    34    35    1
    16    34    36   ar
    17    36    37   ar
    18    28    29    1
    19     2     3    1
    20     3     4   am
    21     4     5    2
    22     4     6   am
    23     6     9    1
    24     9    10   ar
    25    10    11   ar
    26    11    12   ar
    27    12    13   ar
    28    13    15    1
    29    15    16   ar
    30    16    17   ar
    31    17    18   ar
    32    18    19   ar
    33    19    20    1
    34    13    14   ar
    35    29    24    1
    36    14     9   ar
    37    37    31   ar
    38    19    15   ar
    39     3     7    1
    40     6     8    1
@<TRIPOS>MOLECULE
*****
 37 40 0 0 0
SMALL
GASTEIGER

@<TRIPOS>ATOM
      1 C          -0.6398    5.0021   22.9965 C.3     1  UNL1        0.0218
      2 C          -0.8482    3.5548   23.3311 C.3     1  UNL1        0.0822
      3 N          -1.0338    2.5503   22.2327 N.am    1  UNL1       -0.2898
      4 C           0.1620    1.9644   21.5422 C.2     1  UNL1        0.3044
      5 O           1.5434    2.3832   21.9500 O.2     1  UNL1       -0.2525
      6 N          -0.0236    0.9599   20.4438 N.am    1  UNL1       -0.2683
      7 H          -1.9405    2.2754   21.9651 H       1  UNL1        0.1509
      8 H          -0.9303    0.6850   20.1762 H       1  UNL1        0.1564
      9 C           1.1722    0.3741   19.7533 C.ar    1  UNL1        0.0517
     10 C           1.8154    1.1088   18.6146 C.ar    1  UNL1        0.0147
     11 C           3.0112    0.5230   17.9241 C.ar    1  UNL1        0.0014
     12 C           3.5638   -0.7976   18.3721 C.ar    1  UNL1        0.0032
     13 C           2.9206   -1.5323   19.5107 C.ar    1  UNL1        0.0386
     14 C           1.7247   -0.9465   20.2013 C.ar    1  UNL1        0.0178
     15 C           3.4732   -2.8529   19.9587 C.ar    1  UNL1        0.1839
     16 N           3.3173   -4.1623   19.2435 N.ar    1  UNL1       -0.1081
     17 N           4.0265   -5.2146   20.0434 N.ar    1  UNL1       -0.0227
     18 N           4.6206   -4.5556   21.2529 N.ar    1  UNL1       -0.0429
     19 N           4.2786   -3.0961   21.2005 N.ar    1  UNL1       -0.2113
     20 C           4.6729   -2.0613   22.2124 C.3     1  UNL1        0.1573
     21 C          -0.8709    3.1121   24.7641 C.3     1  UNL1        0.1048
     22 C          -1.1766    4.1008   25.8498 C.2     1  UNL1        0.2273
     23 O          -0.0738    4.6183   26.7252 O.2     1  UNL1       -0.2748
     24 N          -2.5850    4.5722   26.0603 N.am    1  UNL1       -0.2795
     25 C          -2.8907    5.5610   27.1460 C.3     1  UNL1        0.0934
     26 C          -4.2990    6.0323   27.3564 C.3     1  UNL1        0.0216
     27 C          -5.4018    5.5148   26.4810 C.3     1  UNL1        0.0038
     28 C          -5.0961    4.5260   25.3953 C.3     1  UNL1        0.0243
     29 C          -3.6877    4.0547   25.1849 C.3     1  UNL1        0.0937
     30 C          -6.1988    4.0085   24.5200 C.3     1  UNL1        0.0280
     31 C          -6.0142    3.9575   23.0323 C.ar    1  UNL1       -0.0220
     32 C          -6.8789    4.7978   22.1400 C.ar    1  UNL1       -0.0020
     33 C          -6.6942    4.7468   20.6523 C.ar    1  UNL1        0.0293
     34 C          -5.6449    3.8555   20.0569 C.ar    1  UNL1        0.1401
     35 F          -5.4603    3.8046   18.5691 F       1  UNL1       -0.2042
     36 C          -4.7802    3.0152   20.9491 C.ar    1  UNL1        0.0293
     37 C          -4.9649    3.0662   22.4369 C.ar    1  UNL1       -0.0020
@<TRIPOS>BOND
     1     2     1    1
     2     2    21    1
     3    21    22    1
     4    22    23    2
     5    22    24   am
     6    24    25    1
     7    25    26    1
     8    26    27    1
     9    27    28    1
    10    28    30    1
    11    30    31    1
    12    31    32   ar
    13    32    33   ar
    14    33    34   ar
    15    34    35    1
    16    34    36   ar
    17    36    37   ar
    18    28    29    1
    19     2     3    1
    20     3     4   am
    21     4     5    2
    22     4     6   am
    23     6     9    1
    24     9    10   ar
    25    10    11   ar
    26    11    12   ar
    27    12    13   ar
    28    13    15    1
    29    15    16   ar
    30    16    17   ar
    31    17    18   ar
    32    18    19   ar
    33    19    20    1
    34    13    14   ar
    35    29    24    1
    36    14     9   ar
    37    37    31   ar
    38    19    15   ar
    39     3     7    1
    40     6     8    1
@<TRIPOS>MOLECULE
*****
 37 40 0 0 0
SMALL
GASTEIGER

@<TRIPOS>ATOM
      1 C           9.2971   -4.7917   31.1337 C.3     1  UNL1        0.0218
      2 C           7.9388   -4.7550   30.4984 C.3     1  UNL1        0.0822
      3 N           6.7149   -4.6074   31.3529 N.am    1  UNL1       -0.2898
      4 C           6.2412   -3.2422   31.7552 C.2     1  UNL1        0.3044
      5 O           6.9915   -2.0246   31.3028 O.2     1  UNL1       -0.2525
      6 N           5.0173   -3.0945   32.6097 N.am    1  UNL1       -0.2683
      7 H           6.2224   -5.4065   31.6498 H       1  UNL1        0.1509
      8 H           4.5249   -3.8936   32.9066 H       1  UNL1        0.1564
      9 C           4.5437   -1.7293   33.0119 C.ar    1  UNL1        0.0517
     10 C           4.8783   -1.1895   34.3709 C.ar    1  UNL1        0.0147
     11 C           4.4046    0.1757   34.7731 C.ar    1  UNL1        0.0014
     12 C           3.5964    1.0012   33.8164 C.ar    1  UNL1        0.0032
     13 C           3.2617    0.4615   32.4575 C.ar    1  UNL1        0.0386
     14 C           3.7354   -0.9038   32.0552 C.ar    1  UNL1        0.0178
     15 C           2.4535    1.2870   31.5008 C.ar    1  UNL1        0.1839
     16 N           0.9574    1.3935   31.4743 N.ar    1  UNL1       -0.1081
     17 N           0.5787    2.3232   30.3597 N.ar    1  UNL1       -0.0227
     18 N           1.8406    2.7913   29.6975 N.ar    1  UNL1       -0.0429
     19 N           2.9992    2.1509   30.4027 N.ar    1  UNL1       -0.2113
     20 C           4.4491    2.3410   30.0686 C.3     1  UNL1        0.1573
     21 C           7.8043   -4.8661   29.0085 C.3     1  UNL1        0.1048
     22 C           8.0729   -6.1749   28.3267 C.2     1  UNL1        0.2273
     23 O           8.2800   -7.4167   29.1421 O.2     1  UNL1       -0.2748
     24 N           8.1343   -6.2419   26.8294 N.am    1  UNL1       -0.2795
     25 C           8.4028   -7.5506   26.1476 C.3     1  UNL1        0.0934
     26 C           8.4642   -7.6176   24.6504 C.3     1  UNL1        0.0216
     27 C           8.2571   -6.3757   23.8350 C.3     1  UNL1        0.0038
     28 C           7.9885   -5.0669   24.5168 C.3     1  UNL1        0.0243
     29 C           7.9271   -5.0000   26.0140 C.3     1  UNL1        0.0937
     30 C           7.7814   -3.8251   23.7014 C.3     1  UNL1        0.0280
     31 C           6.7107   -3.7871   22.6516 C.ar    1  UNL1       -0.0220
     32 C           5.2736   -3.6294   23.0514 C.ar    1  UNL1       -0.0020
     33 C           4.2029   -3.5914   22.0015 C.ar    1  UNL1        0.0293
     34 C           4.5693   -3.7111   20.5519 C.ar    1  UNL1        0.1401
     35 F           3.4985   -3.6731   19.5021 F       1  UNL1       -0.2042
     36 C           6.0063   -3.8688   20.1521 C.ar    1  UNL1        0.0293
     37 C           7.0771   -3.9068   21.2019 C.ar    1  UNL1       -0.0020
@<TRIPOS>BOND
     1     2     1    1
     2     2    21    1
     3    21    22    1
     4    22    23    2
     5    22    24   am
     6    24    25    1
     7    25    26    1
     8    26    27    1
     9    27    28    1
    10    28    30    1
    11    30    31    1
    12    31    32   ar
    13    32    33   ar
    14    33    34   ar
    15    34    35    1
    16    34    36   ar
    17    36    37   ar
    18    28    29    1
    19     2     3    1
    20     3     4   am
    21     4     5    2
    22     4     6   am
    23     6     9    1
    24     9    10   ar
    25    10    11   ar
    26    11    12   ar
    27    12    13   ar
    28    13    15    1
    29    15    16   ar
    30    16    17   ar
    31    17    18   ar
    32    18    19   ar
    33    19    20    1
    34    13    14   ar
    35    29    24    1
    36    14     9   ar
    37    37    31   ar
    38    19    15   ar
    39     3     7    1
    40     6     8    1
