@<TRIPOS>MOLECULE
*****
 41 44 0 0 0
SMALL
GASTEIGER

@<TRIPOS>ATOM
      1 C           6.5649   -3.2056   25.1466 C.ar    1  UNL1        0.0597
      2 C           6.4969   -3.4491   23.6681 C.ar    1  UNL1        0.0423
      3 C           7.2557   -4.5914   23.0605 C.ar    1  UNL1        0.1504
      4 C           8.0826   -5.4902   23.9313 C.ar    1  UNL1        0.0744
      5 C           8.1506   -5.2467   25.4099 C.ar    1  UNL1        0.1416
      6 C           7.3918   -4.1044   26.0175 C.ar    1  UNL1        0.0416
      7 N           4.3708   -1.8344   25.3832 N.am    1  UNL1       -0.2644
      8 C           5.8060   -2.0633   25.7543 C.2     1  UNL1        0.2508
      9 O           6.4824   -1.1498   26.7331 O.2     1  UNL1       -0.2698
     10 H           3.9269   -2.4340   24.7408 H       1  UNL1        0.1566
     11 N           2.5421    0.7683   27.6075 N.ar    1  UNL1       -0.2357
     12 C           2.3461    1.3632   26.2445 C.ar    1  UNL1        0.0988
     13 C           3.0073    0.4606   25.2453 C.ar    1  UNL1        0.0565
     14 C           3.6119   -0.6921   25.9909 C.ar    1  UNL1        0.1557
     15 N           3.3244   -0.5019   27.4507 N.ar    1  UNL1       -0.1534
     16 C           2.0434    1.3428   28.9002 C.3     1  UNL1        0.2423
     17 P           0.7110    0.9201   29.4443 P.3     1  UNL1        0.3677
     18 O          -0.6214    0.4976   29.9884 O.2     1  UNL1       -0.2557
     19 O           1.3778   -0.1688   30.2314 O.3     1  UNL1       -0.2928
     20 C           3.5497   -0.9008   31.4548 C.3     1  UNL1        0.0352
     21 C           2.5358    0.1552   31.1280 C.3     1  UNL1        0.1515
     22 O           0.0443    2.0092   28.6572 O.3     1  UNL1       -0.2928
     23 C          -0.9956    1.6649   27.6324 C.3     1  UNL1        0.1515
     24 C          -1.2910    2.6194   26.5137 C.3     1  UNL1        0.0352
     25 O           7.1877   -4.8349   21.5819 O.3     1  UNL1       -0.4347
     26 C           6.3567   -3.9393   20.7117 C.ar    1  UNL1        0.2494
     27 C           6.9642   -2.7096   20.1044 C.ar    1  UNL1        0.1569
     28 N           6.1332   -1.8139   19.2342 N.ar    1  UNL1       -0.2328
     29 C           4.6946   -2.1480   18.9714 C.ar    1  UNL1        0.1540
     30 C           4.0872   -3.3776   19.5787 C.ar    1  UNL1        0.1258
     31 N           4.9182   -4.2733   20.4489 N.ar    1  UNL1       -0.2068
     32 C           3.8636   -1.2523   18.1012 C.2     1  UNL1        0.2683
     33 O           4.1890   -1.1102   16.6439 O.2     1  UNL1       -0.2682
     34 N           2.7071   -0.4987   18.6884 N.am    1  UNL1       -0.2747
     35 C           2.0958   -0.3895   20.0539 C.3     1  UNL1        0.0955
     36 C           1.0717    0.5670   19.5188 C.3     1  UNL1        0.0430
     37 C           1.6830    0.4578   18.1534 C.3     1  UNL1        0.0955
     38 O           8.9775   -6.1455   26.2807 O.3     1  UNL1       -0.4791
     39 C           8.3085   -7.0625   27.2612 C.3     1  UNL1        0.1661
     40 C           8.1332   -6.6355   28.6884 C.3     1  UNL1        0.0472
     41 C           7.8148   -8.4068   26.8145 C.3     1  UNL1        0.0472
@<TRIPOS>BOND
     1    20    21    1
     2    21    19    1
     3    19    17    1
     4    17    18    2
     5    17    16    1
     6    16    11    1
     7    11    12   ar
     8    12    13   ar
     9    13    14   ar
    10    14     7    1
    11     7     8   am
    12     8     9    2
    13     8     1    1
    14     1     2   ar
    15     2     3   ar
    16     3    25    1
    17    25    26    1
    18    26    27   ar
    19    27    28   ar
    20    28    29   ar
    21    29    32    1
    22    32    33    2
    23    32    34   am
    24    34    35    1
    25    35    36    1
    26    36    37    1
    27    29    30   ar
    28    30    31   ar
    29     3     4   ar
    30     4     5   ar
    31     5    38    1
    32    38    39    1
    33    39    40    1
    34    39    41    1
    35     5     6   ar
    36    14    15   ar
    37    17    22    1
    38    22    23    1
    39    23    24    1
    40    15    11   ar
    41     6     1   ar
    42    31    26   ar
    43    37    34    1
    44     7    10    1
@<TRIPOS>MOLECULE
*****
 41 44 0 0 0
SMALL
GASTEIGER

@<TRIPOS>ATOM
      1 C           6.6812   -3.3411   24.8462 C.ar    1  UNL1        0.0597
      2 C           6.6307   -3.5077   23.3564 C.ar    1  UNL1        0.0423
      3 C           7.4103   -4.6070   22.6978 C.ar    1  UNL1        0.1504
      4 C           8.2404   -5.5397   23.5290 C.ar    1  UNL1        0.0744
      5 C           8.2909   -5.3731   25.0189 C.ar    1  UNL1        0.1416
      6 C           7.5113   -4.2738   25.6775 C.ar    1  UNL1        0.0416
      7 N           4.4570   -2.0350   25.1580 N.am    1  UNL1       -0.2644
      8 C           5.9016   -2.2418   25.5049 C.2     1  UNL1        0.2508
      9 O           6.5666   -1.3493   26.5104 O.2     1  UNL1       -0.2698
     10 H           4.0205   -2.6208   24.4980 H       1  UNL1        0.1566
     11 N           2.6469    0.4725   27.5036 N.ar    1  UNL1       -0.2357
     12 C           2.3085    1.0395   26.1567 C.ar    1  UNL1        0.0988
     13 C           2.9454    0.1691   25.1141 C.ar    1  UNL1        0.0565
     14 C           3.6774   -0.9357   25.8167 C.ar    1  UNL1        0.1557
     15 N           3.4929   -0.7482   27.2934 N.ar    1  UNL1       -0.1534
     16 C           2.2152    1.0285   28.8280 C.3     1  UNL1        0.2423
     17 P           2.2932    0.1770   30.0605 P.3     1  UNL1        0.3677
     18 O           2.3712   -0.6745   31.2929 O.2     1  UNL1       -0.2557
     19 O           0.9910   -0.4716   29.6948 O.3     1  UNL1       -0.2928
     20 C          -1.4399   -0.2506   28.8052 C.3     1  UNL1        0.0352
     21 C          -0.2098    0.3751   29.3927 C.3     1  UNL1        0.1515
     22 O           3.5954    0.8256   30.4261 O.3     1  UNL1       -0.2928
     23 C           4.8493    0.0051   30.4929 C.3     1  UNL1        0.1515
     24 C           5.8325    0.2268   31.6038 C.3     1  UNL1        0.0352
     25 O           7.3597   -4.7736   21.2079 O.3     1  UNL1       -0.4347
     26 C           6.4737   -3.8872   20.3837 C.ar    1  UNL1        0.2494
     27 C           7.0048   -2.5949   19.8376 C.ar    1  UNL1        0.1569
     28 N           6.1188   -1.7086   19.0134 N.ar    1  UNL1       -0.2328
     29 C           4.7017   -2.1144   18.7354 C.ar    1  UNL1        0.1540
     30 C           4.1707   -3.4065   19.2815 C.ar    1  UNL1        0.1258
     31 N           5.0567   -4.2929   20.1057 N.ar    1  UNL1       -0.2068
     32 C           3.8156   -1.2280   17.9112 C.2     1  UNL1        0.2683
     33 O           4.0352   -1.1150   16.4317 O.2     1  UNL1       -0.2682
     34 N           2.7100   -0.4546   18.5666 N.am    1  UNL1       -0.2747
     35 C           2.2003   -0.3157   19.9705 C.3     1  UNL1        0.0955
     36 C           1.1464    0.6392   19.4934 C.3     1  UNL1        0.0430
     37 C           1.6561    0.5003   18.0895 C.3     1  UNL1        0.0955
     38 O           9.1210   -6.3058   25.8501 O.3     1  UNL1       -0.4791
     39 C           8.4834   -7.0945   26.9553 C.3     1  UNL1        0.1661
     40 C           7.7366   -8.3569   26.6414 C.3     1  UNL1        0.0472
     41 C           8.5927   -6.6208   28.3743 C.3     1  UNL1        0.0472
@<TRIPOS>BOND
     1    20    21    1
     2    21    19    1
     3    19    17    1
     4    17    18    2
     5    17    16    1
     6    16    11    1
     7    11    12   ar
     8    12    13   ar
     9    13    14   ar
    10    14     7    1
    11     7     8   am
    12     8     9    2
    13     8     1    1
    14     1     2   ar
    15     2     3   ar
    16     3    25    1
    17    25    26    1
    18    26    27   ar
    19    27    28   ar
    20    28    29   ar
    21    29    32    1
    22    32    33    2
    23    32    34   am
    24    34    35    1
    25    35    36    1
    26    36    37    1
    27    29    30   ar
    28    30    31   ar
    29     3     4   ar
    30     4     5   ar
    31     5    38    1
    32    38    39    1
    33    39    40    1
    34    39    41    1
    35     5     6   ar
    36    14    15   ar
    37    17    22    1
    38    22    23    1
    39    23    24    1
    40    15    11   ar
    41     6     1   ar
    42    31    26   ar
    43    37    34    1
    44     7    10    1
@<TRIPOS>MOLECULE
*****
 41 44 0 0 0
SMALL
GASTEIGER

@<TRIPOS>ATOM
      1 C           0.1758    2.0161   23.8720 C.ar    1  UNL1        0.0597
      2 C          -0.9088    3.0272   24.0983 C.ar    1  UNL1        0.0423
      3 C          -1.4466    3.2536   25.4801 C.ar    1  UNL1        0.1504
      4 C          -0.8998    2.4689   26.6356 C.ar    1  UNL1        0.0744
      5 C           0.1848    1.4578   26.4094 C.ar    1  UNL1        0.1416
      6 C           0.7226    1.2314   25.0276 C.ar    1  UNL1        0.0416
      7 N           2.1900    1.8711   22.2373 N.am    1  UNL1       -0.2644
      8 C           0.7137    1.7896   22.4902 C.2     1  UNL1        0.2508
      9 O          -0.2247    1.4816   21.3612 O.2     1  UNL1       -0.2698
     10 H           2.8059    2.0733   22.9782 H       1  UNL1        0.1566
     11 N           3.3157    0.5860   18.7520 N.ar    1  UNL1       -0.2357
     12 C           3.7954    2.0065   18.7060 C.ar    1  UNL1        0.0988
     13 C           3.4321    2.6608   20.0060 C.ar    1  UNL1        0.0565
     14 C           2.7278    1.6447   20.8554 C.ar    1  UNL1        0.1557
     15 N           2.6559    0.3624   20.0805 N.ar    1  UNL1       -0.1534
     16 C           3.4688   -0.4321   17.6613 C.3     1  UNL1        0.2423
     17 P           4.7018   -1.2841   17.5981 P.3     1  UNL1        0.3677
     18 O           5.9347   -2.1360   17.5350 O.2     1  UNL1       -0.2557
     19 O           4.0879   -2.2448   18.5729 O.3     1  UNL1       -0.2928
     20 C           4.1576   -4.8110   18.9727 C.3     1  UNL1        0.0352
     21 C           4.8393   -3.4749   18.9878 C.3     1  UNL1        0.1515
     22 O           5.3157   -0.3233   16.6233 O.3     1  UNL1       -0.2928
     23 C           6.6428    0.3068   16.9261 C.3     1  UNL1        0.1515
     24 C           7.1371    1.4516   16.0924 C.3     1  UNL1        0.0352
     25 O          -2.5312    4.2648   25.7064 O.3     1  UNL1       -0.4347
     26 C          -3.5817    4.4851   24.6586 C.ar    1  UNL1        0.2494
     27 C          -3.5730    5.7425   23.8406 C.ar    1  UNL1        0.1569
     28 N          -4.6235    5.9628   22.7928 N.ar    1  UNL1       -0.2328
     29 C          -5.6826    4.9257   22.5628 C.ar    1  UNL1        0.1540
     30 C          -5.6912    3.6684   23.3808 C.ar    1  UNL1        0.1258
     31 N          -4.6408    3.4481   24.4286 N.ar    1  UNL1       -0.2068
     32 C          -6.7330    5.1461   21.5150 C.2     1  UNL1        0.2683
     33 O          -7.9241    6.0065   21.8163 O.2     1  UNL1       -0.2682
     34 N          -6.5923    4.5059   20.1657 N.am    1  UNL1       -0.2747
     35 C          -5.5777    3.6120   19.5164 C.3     1  UNL1        0.0955
     36 C          -6.3934    3.6006   18.2576 C.3     1  UNL1        0.0430
     37 C          -7.4080    4.4945   18.9069 C.3     1  UNL1        0.0955
     38 O           0.7316    0.6731   27.5649 O.3     1  UNL1       -0.4791
     39 C          -0.0759    0.5256   28.8204 C.3     1  UNL1        0.1661
     40 C          -1.2148   -0.4494   28.8694 C.3     1  UNL1        0.0472
     41 C           0.2556    1.3530   30.0269 C.3     1  UNL1        0.0472
@<TRIPOS>BOND
     1    20    21    1
     2    21    19    1
     3    19    17    1
     4    17    18    2
     5    17    16    1
     6    16    11    1
     7    11    12   ar
     8    12    13   ar
     9    13    14   ar
    10    14     7    1
    11     7     8   am
    12     8     9    2
    13     8     1    1
    14     1     2   ar
    15     2     3   ar
    16     3    25    1
    17    25    26    1
    18    26    27   ar
    19    27    28   ar
    20    28    29   ar
    21    29    32    1
    22    32    33    2
    23    32    34   am
    24    34    35    1
    25    35    36    1
    26    36    37    1
    27    29    30   ar
    28    30    31   ar
    29     3     4   ar
    30     4     5   ar
    31     5    38    1
    32    38    39    1
    33    39    40    1
    34    39    41    1
    35     5     6   ar
    36    14    15   ar
    37    17    22    1
    38    22    23    1
    39    23    24    1
    40    15    11   ar
    41     6     1   ar
    42    31    26   ar
    43    37    34    1
    44     7    10    1
@<TRIPOS>MOLECULE
*****
 41 44 0 0 0
SMALL
GASTEIGER

@<TRIPOS>ATOM
      1 C           6.8031   -3.2867   25.0590 C.ar    1  UNL1        0.0597
      2 C           6.7520   -3.4586   23.5698 C.ar    1  UNL1        0.0423
      3 C           7.4643   -4.6093   22.9228 C.ar    1  UNL1        0.1504
      4 C           8.2277   -5.5880   23.7651 C.ar    1  UNL1        0.0744
      5 C           8.2788   -5.4160   25.2543 C.ar    1  UNL1        0.1416
      6 C           7.5665   -4.2654   25.9012 C.ar    1  UNL1        0.0416
      7 N           4.9311   -2.3914   26.6224 N.am    1  UNL1       -0.2644
      8 C           6.0908   -2.1360   25.7060 C.2     1  UNL1        0.2508
      9 O           6.5383   -0.7299   25.4367 O.2     1  UNL1       -0.2698
     10 H           4.6374   -3.3143   26.7992 H       1  UNL1        0.1566
     11 N           2.8727    0.7526   27.5940 N.ar    1  UNL1       -0.2357
     12 C           3.3727    0.3073   28.9363 C.ar    1  UNL1        0.0988
     13 C           4.2046   -0.9248   28.7357 C.ar    1  UNL1        0.0565
     14 C           4.2188   -1.2407   27.2694 C.ar    1  UNL1        0.1557
     15 N           3.3956   -0.2041   26.5638 N.ar    1  UNL1       -0.1534
     16 C           2.0027    1.9452   27.3285 C.3     1  UNL1        0.2423
     17 P           0.6079    1.7556   26.8101 P.3     1  UNL1        0.3677
     18 O          -0.7869    1.5660   26.2918 O.2     1  UNL1       -0.2557
     19 O           1.0724    2.1128   25.4293 O.3     1  UNL1       -0.2928
     20 C           1.9503    0.7142   23.4235 C.3     1  UNL1        0.0352
     21 C           0.8135    1.1774   24.2856 C.3     1  UNL1        0.1515
     22 O           0.1434    1.3984   28.1910 O.3     1  UNL1       -0.2928
     23 C          -0.4364    0.0413   28.4596 C.3     1  UNL1        0.1515
     24 C          -1.7386   -0.0862   29.1930 C.3     1  UNL1        0.0352
     25 O           7.4132   -4.7813   21.4336 O.3     1  UNL1       -0.4347
     26 C           6.5383   -3.8879   20.6050 C.ar    1  UNL1        0.2494
     27 C           7.0710   -2.5828   20.0920 C.ar    1  UNL1        0.1569
     28 N           6.1961   -1.6894   19.2635 N.ar    1  UNL1       -0.2328
     29 C           4.7886   -2.1012   18.9479 C.ar    1  UNL1        0.1540
     30 C           4.2561   -3.4062   19.4608 C.ar    1  UNL1        0.1258
     31 N           5.1309   -4.2996   20.2894 N.ar    1  UNL1       -0.2068
     32 C           3.9137   -1.2078   18.1193 C.2     1  UNL1        0.2683
     33 O           4.2465   -0.9594   16.6780 O.2     1  UNL1       -0.2682
     34 N           2.7060   -0.5628   18.7322 N.am    1  UNL1       -0.2747
     35 C           2.0734   -0.5729   20.0922 C.3     1  UNL1        0.0955
     36 C           0.9981    0.3493   19.5988 C.3     1  UNL1        0.0430
     37 C           1.6308    0.3594   18.2388 C.3     1  UNL1        0.0955
     38 O           9.0422   -6.3948   26.0965 O.3     1  UNL1       -0.4791
     39 C           8.3082   -7.4412   26.8815 C.3     1  UNL1        0.1661
     40 C           7.1291   -8.1435   26.2760 C.3     1  UNL1        0.0472
     41 C           8.7533   -7.7854   28.2720 C.3     1  UNL1        0.0472
@<TRIPOS>BOND
     1    20    21    1
     2    21    19    1
     3    19    17    1
     4    17    18    2
     5    17    16    1
     6    16    11    1
     7    11    12   ar
     8    12    13   ar
     9    13    14   ar
    10    14     7    1
    11     7     8   am
    12     8     9    2
    13     8     1    1
    14     1     2   ar
    15     2     3   ar
    16     3    25    1
    17    25    26    1
    18    26    27   ar
    19    27    28   ar
    20    28    29   ar
    21    29    32    1
    22    32    33    2
    23    32    34   am
    24    34    35    1
    25    35    36    1
    26    36    37    1
    27    29    30   ar
    28    30    31   ar
    29     3     4   ar
    30     4     5   ar
    31     5    38    1
    32    38    39    1
    33    39    40    1
    34    39    41    1
    35     5     6   ar
    36    14    15   ar
    37    17    22    1
    38    22    23    1
    39    23    24    1
    40    15    11   ar
    41     6     1   ar
    42    31    26   ar
    43    37    34    1
    44     7    10    1
@<TRIPOS>MOLECULE
*****
 41 44 0 0 0
SMALL
GASTEIGER

@<TRIPOS>ATOM
      1 C           3.5178   -0.2848   27.0230 C.ar    1  UNL1        0.0597
      2 C           4.5152   -0.9041   27.9567 C.ar    1  UNL1        0.0423
      3 C           4.2028   -1.0185   29.4193 C.ar    1  UNL1        0.1504
      4 C           2.8930   -0.5138   29.9482 C.ar    1  UNL1        0.0744
      5 C           1.8957    0.1055   29.0145 C.ar    1  UNL1        0.1416
      6 C           2.2081    0.2200   27.5519 C.ar    1  UNL1        0.0416
      7 N           2.9530   -0.8493   24.5507 N.am    1  UNL1       -0.2644
      8 C           3.8302   -0.1703   25.5603 C.2     1  UNL1        0.2508
      9 O           5.0198    0.6232   25.1073 O.2     1  UNL1       -0.2698
     10 H           2.1722   -1.3701   24.8480 H       1  UNL1        0.1566
     11 N           4.2958   -1.0628   20.9151 N.ar    1  UNL1       -0.2357
     12 C           3.1962   -0.0544   20.7592 C.ar    1  UNL1        0.0988
     13 C           2.5593    0.1482   22.1022 C.ar    1  UNL1        0.0565
     14 C           3.2654   -0.7348   23.0880 C.ar    1  UNL1        0.1557
     15 N           4.3385   -1.4832   22.3544 N.ar    1  UNL1       -0.1534
     16 C           5.1948   -1.5627   19.8235 C.3     1  UNL1        0.2423
     17 P           4.7780   -1.4298   18.3887 P.3     1  UNL1        0.3677
     18 O           4.3613   -1.2968   16.9539 O.2     1  UNL1       -0.2557
     19 O           3.8927   -2.6319   18.5344 O.3     1  UNL1       -0.2928
     20 C           3.6440   -5.0329   19.4952 C.3     1  UNL1        0.0352
     21 C           4.4902   -3.9679   18.8630 C.3     1  UNL1        0.1515
     22 O           5.6633   -0.2276   18.2431 O.3     1  UNL1       -0.2928
     23 C           5.6444    0.5681   16.9717 C.3     1  UNL1        0.1515
     24 C           6.9323    1.0277   16.3552 C.3     1  UNL1        0.0352
     25 O           5.2001   -1.6378   30.3530 O.3     1  UNL1       -0.4347
     26 C           5.2284   -1.2320   31.7968 C.ar    1  UNL1        0.2494
     27 C           6.2272   -0.2186   32.2716 C.ar    1  UNL1        0.1569
     28 N           6.2554    0.1872   33.7154 N.ar    1  UNL1       -0.2328
     29 C           5.2848   -0.4204   34.6844 C.ar    1  UNL1        0.1540
     30 C           4.2861   -1.4338   34.2096 C.ar    1  UNL1        0.1258
     31 N           4.2578   -1.8396   32.7658 N.ar    1  UNL1       -0.2068
     32 C           5.3131   -0.0146   36.1282 C.2     1  UNL1        0.2683
     33 O           6.3473   -0.5908   37.0491 O.2     1  UNL1       -0.2682
     34 N           4.3069    0.9675   36.6510 N.am    1  UNL1       -0.2747
     35 C           3.1617    1.7315   36.0553 C.3     1  UNL1        0.0955
     36 C           2.8841    2.3563   37.3905 C.3     1  UNL1        0.0430
     37 C           4.0293    1.5923   37.9861 C.3     1  UNL1        0.0955
     38 O           0.5860    0.6103   29.5435 O.3     1  UNL1       -0.4791
     39 C          -0.6507    0.5141   28.7001 C.3     1  UNL1        0.1661
     40 C          -1.0112    1.6320   27.7672 C.3     1  UNL1        0.0472
     41 C          -1.5269   -0.7002   28.7895 C.3     1  UNL1        0.0472
@<TRIPOS>BOND
     1    20    21    1
     2    21    19    1
     3    19    17    1
     4    17    18    2
     5    17    16    1
     6    16    11    1
     7    11    12   ar
     8    12    13   ar
     9    13    14   ar
    10    14     7    1
    11     7     8   am
    12     8     9    2
    13     8     1    1
    14     1     2   ar
    15     2     3   ar
    16     3    25    1
    17    25    26    1
    18    26    27   ar
    19    27    28   ar
    20    28    29   ar
    21    29    32    1
    22    32    33    2
    23    32    34   am
    24    34    35    1
    25    35    36    1
    26    36    37    1
    27    29    30   ar
    28    30    31   ar
    29     3     4   ar
    30     4     5   ar
    31     5    38    1
    32    38    39    1
    33    39    40    1
    34    39    41    1
    35     5     6   ar
    36    14    15   ar
    37    17    22    1
    38    22    23    1
    39    23    24    1
    40    15    11   ar
    41     6     1   ar
    42    31    26   ar
    43    37    34    1
    44     7    10    1
@<TRIPOS>MOLECULE
*****
 41 44 0 0 0
SMALL
GASTEIGER

@<TRIPOS>ATOM
      1 C           0.3229    1.8075   23.8029 C.ar    1  UNL1        0.0597
      2 C          -0.6933    2.8962   23.9815 C.ar    1  UNL1        0.0423
      3 C          -1.1634    3.2650   25.3573 C.ar    1  UNL1        0.1504
      4 C          -0.6173    2.5451   26.5546 C.ar    1  UNL1        0.0744
      5 C           0.3990    1.4564   26.3760 C.ar    1  UNL1        0.1416
      6 C           0.8691    1.0876   25.0002 C.ar    1  UNL1        0.0416
      7 N           2.2471    1.1656   22.1794 N.am    1  UNL1       -0.2644
      8 C           0.7931    1.4386   22.4270 C.2     1  UNL1        0.2508
      9 O          -0.1908    1.3429   21.2989 O.2     1  UNL1       -0.2698
     10 H           2.8928    1.2285   22.9199 H       1  UNL1        0.1566
     11 N           3.5419   -0.4792   18.9108 N.ar    1  UNL1       -0.2357
     12 C           3.3395    0.9377   18.4618 C.ar    1  UNL1        0.0988
     13 C           2.8297    1.7263   19.6316 C.ar    1  UNL1        0.0565
     14 C           2.7172    0.7968   20.8035 C.ar    1  UNL1        0.1557
     15 N           3.1574   -0.5663   20.3581 N.ar    1  UNL1       -0.1534
     16 C           4.0412   -1.6103   18.0617 C.3     1  UNL1        0.2423
     17 P           5.4747   -2.0422   18.1550 P.3     1  UNL1        0.3677
     18 O           6.9081   -2.4742   18.2484 O.2     1  UNL1       -0.2557
     19 O           5.8606   -0.9733   17.1760 O.3     1  UNL1       -0.2928
     20 C           7.1113    1.2614   16.7382 C.3     1  UNL1        0.0352
     21 C           6.9706   -0.0197   17.5056 C.3     1  UNL1        0.1515
     22 O           5.0888   -3.1112   19.1341 O.3     1  UNL1       -0.2928
     23 C           3.8967   -3.9807   18.8639 C.3     1  UNL1        0.1515
     24 C           3.5405   -5.0825   19.8174 C.3     1  UNL1        0.0352
     25 O          -2.1798    4.3537   25.5359 O.3     1  UNL1       -0.4347
     26 C          -3.2874    4.5168   24.5376 C.ar    1  UNL1        0.2494
     27 C          -3.4430    5.8108   23.7948 C.ar    1  UNL1        0.1569
     28 N          -4.5507    5.9739   22.7965 N.ar    1  UNL1       -0.2328
     29 C          -5.5026    4.8431   22.5410 C.ar    1  UNL1        0.1540
     30 C          -5.3469    3.5493   23.2838 C.ar    1  UNL1        0.1258
     31 N          -4.2393    3.3862   24.2821 N.ar    1  UNL1       -0.2068
     32 C          -6.6102    5.0062   21.5428 C.2     1  UNL1        0.2683
     33 O          -7.8336    5.7961   21.9023 O.2     1  UNL1       -0.2682
     34 N          -6.4944    4.3794   20.1849 N.am    1  UNL1       -0.2747
     35 C          -5.4609    3.5471   19.4855 C.3     1  UNL1        0.0955
     36 C          -6.3307    3.4930   18.2646 C.3     1  UNL1        0.0430
     37 C          -7.3642    4.3253   18.9640 C.3     1  UNL1        0.0955
     38 O           0.9451    0.7365   27.5733 O.3     1  UNL1       -0.4791
     39 C           0.1074    0.5938   28.8093 C.3     1  UNL1        0.1661
     40 C          -1.0013   -0.4157   28.8515 C.3     1  UNL1        0.0472
     41 C           0.3782    1.4607   30.0032 C.3     1  UNL1        0.0472
@<TRIPOS>BOND
     1    20    21    1
     2    21    19    1
     3    19    17    1
     4    17    18    2
     5    17    16    1
     6    16    11    1
     7    11    12   ar
     8    12    13   ar
     9    13    14   ar
    10    14     7    1
    11     7     8   am
    12     8     9    2
    13     8     1    1
    14     1     2   ar
    15     2     3   ar
    16     3    25    1
    17    25    26    1
    18    26    27   ar
    19    27    28   ar
    20    28    29   ar
    21    29    32    1
    22    32    33    2
    23    32    34   am
    24    34    35    1
    25    35    36    1
    26    36    37    1
    27    29    30   ar
    28    30    31   ar
    29     3     4   ar
    30     4     5   ar
    31     5    38    1
    32    38    39    1
    33    39    40    1
    34    39    41    1
    35     5     6   ar
    36    14    15   ar
    37    17    22    1
    38    22    23    1
    39    23    24    1
    40    15    11   ar
    41     6     1   ar
    42    31    26   ar
    43    37    34    1
    44     7    10    1
@<TRIPOS>MOLECULE
*****
 41 44 0 0 0
SMALL
GASTEIGER

@<TRIPOS>ATOM
      1 C           2.6886   -0.6718   21.7168 C.ar    1  UNL1        0.0597
      2 C           3.1641   -0.3348   23.0989 C.ar    1  UNL1        0.0423
      3 C           4.2690   -1.1316   23.7270 C.ar    1  UNL1        0.1504
      4 C           4.8983   -2.2653   22.9729 C.ar    1  UNL1        0.0744
      5 C           4.4228   -2.6022   21.5907 C.ar    1  UNL1        0.1416
      6 C           3.3180   -1.8055   20.9627 C.ar    1  UNL1        0.0416
      7 N           1.4850    1.6001   21.3423 N.am    1  UNL1       -0.2644
      8 C           1.5837    0.1250   21.0887 C.2     1  UNL1        0.2508
      9 O           0.5776   -0.5534   20.2070 O.2     1  UNL1       -0.2698
     10 H           2.1454    2.0453   21.9211 H       1  UNL1        0.1566
     11 N          -1.6807    3.6410   20.4050 N.ar    1  UNL1       -0.2357
     12 C          -0.9594    3.6048   19.0903 C.ar    1  UNL1        0.0988
     13 C           0.3144    2.8359   19.2814 C.ar    1  UNL1        0.0565
     14 C           0.3801    2.3968   20.7142 C.ar    1  UNL1        0.1557
     15 N          -0.8528    2.8944   21.4086 N.ar    1  UNL1       -0.1534
     16 C          -2.9984    4.3068   20.6696 C.3     1  UNL1        0.2423
     17 P          -4.2656    3.6951   20.1500 P.3     1  UNL1        0.3677
     18 O          -5.5328    3.0834   19.6304 O.2     1  UNL1       -0.2557
     19 O          -4.2134    4.6012   18.9558 O.3     1  UNL1       -0.2928
     20 C          -5.2092    5.0479   16.5981 C.3     1  UNL1        0.0352
     21 C          -5.4020    4.7145   18.0478 C.3     1  UNL1        0.1515
     22 O          -4.3178    2.7889   21.3442 O.3     1  UNL1       -0.2928
     23 C          -5.1331    3.1742   22.5430 C.3     1  UNL1        0.1515
     24 C          -4.5100    3.1673   23.9074 C.3     1  UNL1        0.0352
     25 O           4.7445   -0.7947   25.1092 O.3     1  UNL1       -0.4347
     26 C           3.7522   -0.4588   26.1827 C.ar    1  UNL1        0.2494
     27 C           3.6184   -1.3463   27.3846 C.ar    1  UNL1        0.1569
     28 N           2.6260   -1.0105   28.4581 N.ar    1  UNL1       -0.2328
     29 C           1.7674    0.2128   28.3297 C.ar    1  UNL1        0.1540
     30 C           1.9012    1.1002   27.1278 C.ar    1  UNL1        0.1258
     31 N           2.8936    0.7644   26.0543 N.ar    1  UNL1       -0.2068
     32 C           0.7750    0.5486   29.4032 C.2     1  UNL1        0.2683
     33 O          -0.5117   -0.2160   29.5008 O.2     1  UNL1       -0.2682
     34 N           1.0694    1.6492   30.3790 N.am    1  UNL1       -0.2747
     35 C           2.2080    2.6024   30.5909 C.3     1  UNL1        0.0955
     36 C           1.4857    3.2055   31.7591 C.3     1  UNL1        0.0430
     37 C           0.3471    2.2522   31.5472 C.3     1  UNL1        0.0955
     38 O           5.0521   -3.7359   20.8366 O.3     1  UNL1       -0.4791
     39 C           4.7157   -3.9535   19.3912 C.3     1  UNL1        0.1661
     40 C           5.4156   -3.1571   18.3301 C.3     1  UNL1        0.0472
     41 C           3.6794   -4.9676   19.0067 C.3     1  UNL1        0.0472
@<TRIPOS>BOND
     1    20    21    1
     2    21    19    1
     3    19    17    1
     4    17    18    2
     5    17    16    1
     6    16    11    1
     7    11    12   ar
     8    12    13   ar
     9    13    14   ar
    10    14     7    1
    11     7     8   am
    12     8     9    2
    13     8     1    1
    14     1     2   ar
    15     2     3   ar
    16     3    25    1
    17    25    26    1
    18    26    27   ar
    19    27    28   ar
    20    28    29   ar
    21    29    32    1
    22    32    33    2
    23    32    34   am
    24    34    35    1
    25    35    36    1
    26    36    37    1
    27    29    30   ar
    28    30    31   ar
    29     3     4   ar
    30     4     5   ar
    31     5    38    1
    32    38    39    1
    33    39    40    1
    34    39    41    1
    35     5     6   ar
    36    14    15   ar
    37    17    22    1
    38    22    23    1
    39    23    24    1
    40    15    11   ar
    41     6     1   ar
    42    31    26   ar
    43    37    34    1
    44     7    10    1
@<TRIPOS>MOLECULE
*****
 41 44 0 0 0
SMALL
GASTEIGER

@<TRIPOS>ATOM
      1 C           3.3519   -0.3179   27.0963 C.ar    1  UNL1        0.0597
      2 C           4.3956   -0.8956   28.0056 C.ar    1  UNL1        0.0423
      3 C           4.1365   -0.9905   29.4799 C.ar    1  UNL1        0.1504
      4 C           2.8336   -0.5077   30.0450 C.ar    1  UNL1        0.0744
      5 C           1.7898    0.0700   29.1358 C.ar    1  UNL1        0.1416
      6 C           2.0490    0.1649   27.6614 C.ar    1  UNL1        0.0416
      7 N           2.4631   -0.2356   24.6563 N.am    1  UNL1       -0.2644
      8 C           3.6110   -0.2230   25.6219 C.2     1  UNL1        0.2508
      9 O           5.0179   -0.1155   25.1130 O.2     1  UNL1       -0.2698
     10 H           1.5397   -0.3062   24.9903 H       1  UNL1        0.1566
     11 N           3.2917   -0.7247   20.8960 N.ar    1  UNL1       -0.2357
     12 C           2.9501    0.7355   20.9300 C.ar    1  UNL1        0.0988
     13 C           2.5981    1.0965   22.3428 C.ar    1  UNL1        0.0565
     14 C           2.7222   -0.1407   23.1819 C.ar    1  UNL1        0.1557
     15 N           3.1508   -1.2662   22.2878 N.ar    1  UNL1       -0.1534
     16 C           3.7020   -1.5062   19.6833 C.3     1  UNL1        0.2423
     17 P           5.1512   -1.8077   19.4402 P.3     1  UNL1        0.3677
     18 O           6.6003   -2.1094   19.1972 O.2     1  UNL1       -0.2557
     19 O           5.2456   -0.6201   18.5289 O.3     1  UNL1       -0.2928
     20 C           6.7484    0.6795   16.8548 C.3     1  UNL1        0.0352
     21 C           6.2303   -0.6194   17.3974 C.3     1  UNL1        0.1515
     22 O           5.0567   -2.9955   20.3516 O.3     1  UNL1       -0.2928
     23 C           4.1874   -4.1596   19.9788 C.3     1  UNL1        0.1515
     24 C           4.5296   -4.9988   18.7835 C.3     1  UNL1        0.0352
     25 O           5.1803   -1.5681   30.3893 O.3     1  UNL1       -0.4347
     26 C           5.2171   -1.1724   31.8356 C.ar    1  UNL1        0.2494
     27 C           4.5473   -2.0327   32.8659 C.ar    1  UNL1        0.1569
     28 N           4.5840   -1.6369   34.3122 N.ar    1  UNL1       -0.2328
     29 C           5.2906   -0.3809   34.7284 C.ar    1  UNL1        0.1540
     30 C           5.9604    0.4793   33.6982 C.ar    1  UNL1        0.1258
     31 N           5.9237    0.0836   32.2518 N.ar    1  UNL1       -0.2068
     32 C           5.3274    0.0149   36.1748 C.2     1  UNL1        0.2683
     33 O           6.3468   -0.5919   37.0927 O.2     1  UNL1       -0.2682
     34 N           4.3447    1.0175   36.7032 N.am    1  UNL1       -0.2747
     35 C           3.2187    1.8126   36.1117 C.3     1  UNL1        0.0955
     36 C           2.9551    2.4354   37.4506 C.3     1  UNL1        0.0430
     37 C           4.0811    1.6403   38.0422 C.3     1  UNL1        0.0955
     38 O           0.4869    0.5528   29.7009 O.3     1  UNL1       -0.4791
     39 C          -0.7585    0.4982   28.8668 C.3     1  UNL1        0.1661
     40 C          -1.6923   -0.6694   28.9889 C.3     1  UNL1        0.0472
     41 C          -1.0703    1.6111   27.9106 C.3     1  UNL1        0.0472
@<TRIPOS>BOND
     1    20    21    1
     2    21    19    1
     3    19    17    1
     4    17    18    2
     5    17    16    1
     6    16    11    1
     7    11    12   ar
     8    12    13   ar
     9    13    14   ar
    10    14     7    1
    11     7     8   am
    12     8     9    2
    13     8     1    1
    14     1     2   ar
    15     2     3   ar
    16     3    25    1
    17    25    26    1
    18    26    27   ar
    19    27    28   ar
    20    28    29   ar
    21    29    32    1
    22    32    33    2
    23    32    34   am
    24    34    35    1
    25    35    36    1
    26    36    37    1
    27    29    30   ar
    28    30    31   ar
    29     3     4   ar
    30     4     5   ar
    31     5    38    1
    32    38    39    1
    33    39    40    1
    34    39    41    1
    35     5     6   ar
    36    14    15   ar
    37    17    22    1
    38    22    23    1
    39    23    24    1
    40    15    11   ar
    41     6     1   ar
    42    31    26   ar
    43    37    34    1
    44     7    10    1
@<TRIPOS>MOLECULE
*****
 41 44 0 0 0
SMALL
GASTEIGER

@<TRIPOS>ATOM
      1 C           0.1254    2.0061   23.4981 C.ar    1  UNL1        0.0597
      2 C          -0.0852    1.7510   24.9612 C.ar    1  UNL1        0.0423
      3 C          -1.1723    2.4740   25.6997 C.ar    1  UNL1        0.1504
      4 C          -2.0489    3.4521   24.9751 C.ar    1  UNL1        0.0744
      5 C          -1.8383    3.7071   23.5120 C.ar    1  UNL1        0.1416
      6 C          -0.7512    2.9841   22.7736 C.ar    1  UNL1        0.0416
      7 N           1.0545    0.9817   21.2987 N.am    1  UNL1       -0.2644
      8 C           1.2125    1.2830   22.7596 C.2     1  UNL1        0.2508
      9 O           2.4577    0.8614   23.4819 O.2     1  UNL1       -0.2698
     10 H           0.2373    1.2585   20.8246 H       1  UNL1        0.1566
     11 N           3.4538   -1.5030   19.5280 N.ar    1  UNL1       -0.2357
     12 C           4.1754   -0.2046   19.3192 C.ar    1  UNL1        0.0988
     13 C           3.3644    0.8842   19.9571 C.ar    1  UNL1        0.0565
     14 C           2.1417    0.2587   20.5601 C.ar    1  UNL1        0.1557
     15 N           2.1969   -1.2166   20.2949 N.ar    1  UNL1       -0.1534
     16 C           3.9091   -2.8510   19.0533 C.3     1  UNL1        0.2423
     17 P           5.0703   -3.5280   19.7193 P.3     1  UNL1        0.3677
     18 O           6.2314   -4.2049   20.3853 O.2     1  UNL1       -0.2557
     19 O           4.1713   -3.9725   20.8348 O.3     1  UNL1       -0.2928
     20 C           4.3044   -2.4016   22.8998 C.3     1  UNL1        0.0352
     21 C           4.5705   -3.7322   22.2606 C.3     1  UNL1        0.1515
     22 O           5.9692   -3.0834   18.6037 O.3     1  UNL1       -0.2928
     23 C           7.3261   -2.5231   18.9119 C.3     1  UNL1        0.1515
     24 C           7.6367   -1.0911   18.5913 C.3     1  UNL1        0.0352
     25 O          -1.3829    2.2190   27.1628 O.3     1  UNL1       -0.4347
     26 C          -0.3024    1.5667   27.9735 C.ar    1  UNL1        0.2494
     27 C          -0.5649    0.2581   28.6582 C.ar    1  UNL1        0.1569
     28 N           0.5155   -0.3941   29.4689 N.ar    1  UNL1       -0.2328
     29 C           1.8585    0.2622   29.5949 C.ar    1  UNL1        0.1540
     30 C           2.1209    1.5707   28.9102 C.ar    1  UNL1        0.1258
     31 N           1.0405    2.2230   28.0995 N.ar    1  UNL1       -0.2068
     32 C           2.9389   -0.3900   30.4056 C.2     1  UNL1        0.2683
     33 O           2.7268   -0.6487   31.8678 O.2     1  UNL1       -0.2682
     34 N           4.2315   -0.7836   29.7540 N.am    1  UNL1       -0.2747
     35 C           4.7909   -0.6900   28.3654 C.3     1  UNL1        0.0955
     36 C           6.0594   -1.3401   28.8327 C.3     1  UNL1        0.0430
     37 C           5.4999   -1.4337   30.2213 C.3     1  UNL1        0.0955
     38 O          -2.7149    4.6852   22.7875 O.3     1  UNL1       -0.4791
     39 C          -4.1989    4.4715   22.7416 C.3     1  UNL1        0.1661
     40 C          -4.7571    3.2090   22.1546 C.3     1  UNL1        0.0472
     41 C          -5.1248    5.5203   23.2829 C.3     1  UNL1        0.0472
@<TRIPOS>BOND
     1    20    21    1
     2    21    19    1
     3    19    17    1
     4    17    18    2
     5    17    16    1
     6    16    11    1
     7    11    12   ar
     8    12    13   ar
     9    13    14   ar
    10    14     7    1
    11     7     8   am
    12     8     9    2
    13     8     1    1
    14     1     2   ar
    15     2     3   ar
    16     3    25    1
    17    25    26    1
    18    26    27   ar
    19    27    28   ar
    20    28    29   ar
    21    29    32    1
    22    32    33    2
    23    32    34   am
    24    34    35    1
    25    35    36    1
    26    36    37    1
    27    29    30   ar
    28    30    31   ar
    29     3     4   ar
    30     4     5   ar
    31     5    38    1
    32    38    39    1
    33    39    40    1
    34    39    41    1
    35     5     6   ar
    36    14    15   ar
    37    17    22    1
    38    22    23    1
    39    23    24    1
    40    15    11   ar
    41     6     1   ar
    42    31    26   ar
    43    37    34    1
    44     7    10    1
