@<TRIPOS>MOLECULE
*****
 29 32 0 0 0
SMALL
GASTEIGER

@<TRIPOS>ATOM
      1 N           2.7850   -0.4809   20.4885 N.pl3   1  UNL1       -0.3018
      2 C           1.3730   -0.8431   20.1349 C.3     1  UNL1        0.1124
      3 C           0.2750    0.1644   20.3059 C.3     1  UNL1        0.1149
      4 N           0.5889    1.5342   20.8306 N.pl3   1  UNL1       -0.2777
      5 C           2.0009    1.8964   21.1842 C.3     1  UNL1        0.0953
      6 C           2.3149    3.2661   21.7088 C.3     1  UNL1        0.0233
      7 C           3.0990    0.8888   21.0132 C.3     1  UNL1        0.1107
      8 C          -0.5091    2.5417   21.0016 C.ar    1  UNL1        0.2035
      9 N          -1.2485    2.6314   22.3036 N.ar    1  UNL1       -0.2133
     10 C          -2.3465    3.6389   22.4746 C.ar    1  UNL1        0.1065
     11 C          -2.7052    4.5567   21.3435 C.ar    1  UNL1        0.0815
     12 C          -1.9658    4.4669   20.0415 C.ar    1  UNL1        0.2646
     13 O          -2.3244    5.3846   18.9105 O.2     1  UNL1       -0.2668
     14 N          -0.8677    3.4593   19.8706 N.ar    1  UNL1       -0.2667
     15 C          -0.1283    3.3695   18.5686 C.3     1  UNL1        0.1363
     16 C          -3.0860    3.7287   23.7766 C.ar    1  UNL1        0.1024
     17 C          -2.3338    3.6599   25.0725 C.ar    1  UNL1        0.0414
     18 C          -3.0732    3.7497   26.3745 C.ar    1  UNL1        0.1023
     19 N          -4.5648    3.9083   26.3805 N.ar    1  UNL1       -0.2224
     20 C          -5.3170    3.9771   25.0846 C.ar    1  UNL1        0.1989
     21 N          -4.5776    3.8873   23.7826 N.ar    1  UNL1       -0.2224
     22 C           4.7347   -1.4673   19.0830 C.ar    1  UNL1        0.1519
     23 C           5.8327   -2.4748   18.9120 C.ar    1  UNL1        0.0382
     24 C           6.0790   -3.5035   19.9756 C.ar    1  UNL1        0.0032
     25 C           5.2273   -3.5246   21.2101 C.ar    1  UNL1        0.0015
     26 C           4.1293   -2.5171   21.3811 C.ar    1  UNL1        0.0176
     27 C           3.8830   -1.4884   20.3175 C.ar    1  UNL1        0.0824
     28 C           3.8242   -0.8333   16.7337 C.3     1  UNL1        0.2525
     29 O           4.4884   -0.4386   18.0194 O.3     1  UNL1       -0.4702
@<TRIPOS>BOND
     1    28    29    1
     2    29    22    1
     3    22    23   ar
     4    23    24   ar
     5    24    25   ar
     6    25    26   ar
     7    26    27   ar
     8    27     1    1
     9     1     2    1
    10     2     3    1
    11     3     4    1
    12     4     8    1
    13     8     9   ar
    14     9    10   ar
    15    10    16    1
    16    16    17   ar
    17    17    18   ar
    18    18    19   ar
    19    19    20   ar
    20    20    21   ar
    21    10    11   ar
    22    11    12   ar
    23    12    13    2
    24    12    14   ar
    25    14    15    1
    26     4     5    1
    27     5     6    1
    28     5     7    1
    29    27    22   ar
    30     7     1    1
    31    14     8   ar
    32    21    16   ar
@<TRIPOS>MOLECULE
*****
 29 32 0 0 0
SMALL
GASTEIGER

@<TRIPOS>ATOM
      1 N           0.7463    1.5779   29.3989 N.pl3   1  UNL1       -0.3018
      2 C          -0.3688    0.7385   28.8495 C.3     1  UNL1        0.1124
      3 C          -1.2983    1.3075   27.8189 C.3     1  UNL1        0.1149
      4 N          -1.1126    2.7161   27.3376 N.pl3   1  UNL1       -0.2777
      5 C           0.0026    3.5555   27.8869 C.3     1  UNL1        0.0953
      6 C           0.1883    4.9640   27.4056 C.3     1  UNL1        0.0233
      7 C           0.9321    2.9864   28.9176 C.3     1  UNL1        0.1107
      8 C          -2.0421    3.2851   26.3070 C.ar    1  UNL1        0.2035
      9 N          -3.3193    3.9468   26.7325 N.ar    1  UNL1       -0.2133
     10 C          -4.2487    4.5158   25.7019 C.ar    1  UNL1        0.1065
     11 C          -3.9011    4.4233   24.2456 C.ar    1  UNL1        0.0815
     12 C          -2.6239    3.7617   23.8201 C.ar    1  UNL1        0.2646
     13 O          -2.2762    3.6691   22.3639 O.2     1  UNL1       -0.2668
     14 N          -1.6944    3.1926   24.8508 N.ar    1  UNL1       -0.2667
     15 C          -0.4172    2.5310   24.4252 C.3     1  UNL1        0.1363
     16 C          -5.5259    5.1774   26.1275 C.ar    1  UNL1        0.1024
     17 C          -6.5865    5.4837   25.1119 C.ar    1  UNL1        0.0414
     18 C          -7.8636    6.1453   25.5375 C.ar    1  UNL1        0.1023
     19 N          -8.0802    6.5007   26.9786 N.ar    1  UNL1       -0.2224
     20 C          -7.0196    6.1944   27.9942 C.ar    1  UNL1        0.1989
     21 N          -5.7425    5.5328   27.5686 N.ar    1  UNL1       -0.2224
     22 C           1.8674    1.7155   31.7386 C.ar    1  UNL1        0.1519
     23 C           2.7968    1.1464   32.7692 C.ar    1  UNL1        0.0382
     24 C           3.5348   -0.1295   32.4907 C.ar    1  UNL1        0.0032
     25 C           3.3432   -0.8362   31.1816 C.ar    1  UNL1        0.0015
     26 C           2.4138   -0.2671   30.1510 C.ar    1  UNL1        0.0176
     27 C           1.6758    1.0088   30.4295 C.ar    1  UNL1        0.0824
     28 C           1.2758    3.6672   33.3482 C.3     1  UNL1        0.2525
     29 O           1.1294    2.9914   32.0171 O.3     1  UNL1       -0.4702
@<TRIPOS>BOND
     1    28    29    1
     2    29    22    1
     3    22    23   ar
     4    23    24   ar
     5    24    25   ar
     6    25    26   ar
     7    26    27   ar
     8    27     1    1
     9     1     2    1
    10     2     3    1
    11     3     4    1
    12     4     8    1
    13     8     9   ar
    14     9    10   ar
    15    10    16    1
    16    16    17   ar
    17    17    18   ar
    18    18    19   ar
    19    19    20   ar
    20    20    21   ar
    21    10    11   ar
    22    11    12   ar
    23    12    13    2
    24    12    14   ar
    25    14    15    1
    26     4     5    1
    27     5     6    1
    28     5     7    1
    29    27    22   ar
    30     7     1    1
    31    14     8   ar
    32    21    16   ar
@<TRIPOS>MOLECULE
*****
 29 32 0 0 0
SMALL
GASTEIGER

@<TRIPOS>ATOM
      1 N          -0.1819    2.4667   26.2742 N.pl3   1  UNL1       -0.3018
      2 C           1.0107    3.2392   26.7547 C.3     1  UNL1        0.1124
      3 C           1.7137    2.8271   28.0140 C.3     1  UNL1        0.1149
      4 N           1.2240    1.6424   28.7930 N.pl3   1  UNL1       -0.2777
      5 C           0.0314    0.8698   28.3125 C.3     1  UNL1        0.0953
      6 C          -0.4583   -0.3149   29.0914 C.3     1  UNL1        0.0233
      7 C          -0.6716    1.2820   27.0531 C.3     1  UNL1        0.1107
      8 C           1.9270    1.2303   30.0523 C.ar    1  UNL1        0.2035
      9 N           2.9713    0.1543   30.0106 N.ar    1  UNL1       -0.2133
     10 C           3.6743   -0.2578   31.2699 C.ar    1  UNL1        0.1065
     11 C           3.3329    0.4060   32.5710 C.ar    1  UNL1        0.0815
     12 C           2.2886    1.4819   32.6128 C.ar    1  UNL1        0.2646
     13 O           1.9472    2.1457   33.9138 O.2     1  UNL1       -0.2668
     14 N           1.5856    1.8941   31.3533 N.ar    1  UNL1       -0.2667
     15 C           0.5412    2.9700   31.3951 C.3     1  UNL1        0.1363
     16 C           4.7186   -1.3337   31.2282 C.ar    1  UNL1        0.1024
     17 C           4.9782   -2.1744   32.4430 C.ar    1  UNL1        0.0414
     18 C           6.0226   -3.2504   32.4012 C.ar    1  UNL1        0.1023
     19 N           6.8073   -3.4856   31.1447 N.ar    1  UNL1       -0.2224
     20 C           6.5477   -2.6448   29.9299 C.ar    1  UNL1        0.1989
     21 N           5.5034   -1.5689   29.9716 N.ar    1  UNL1       -0.2224
     22 C          -2.2773    3.4329   25.0800 C.ar    1  UNL1        0.1519
     23 C          -2.9801    3.8450   23.8207 C.ar    1  UNL1        0.0382
     24 C          -2.2907    3.7032   22.4961 C.ar    1  UNL1        0.0032
     25 C          -0.8983    3.1491   22.4309 C.ar    1  UNL1        0.0015
     26 C          -0.1954    2.7370   23.6903 C.ar    1  UNL1        0.0176
     27 C          -0.8849    2.8789   25.0148 C.ar    1  UNL1        0.0824
     28 C          -4.3604    4.1256   26.4695 C.3     1  UNL1        0.2525
     29 O          -2.9667    3.5748   26.4046 O.3     1  UNL1       -0.4702
@<TRIPOS>BOND
     1    28    29    1
     2    29    22    1
     3    22    23   ar
     4    23    24   ar
     5    24    25   ar
     6    25    26   ar
     7    26    27   ar
     8    27     1    1
     9     1     2    1
    10     2     3    1
    11     3     4    1
    12     4     8    1
    13     8     9   ar
    14     9    10   ar
    15    10    16    1
    16    16    17   ar
    17    17    18   ar
    18    18    19   ar
    19    19    20   ar
    20    20    21   ar
    21    10    11   ar
    22    11    12   ar
    23    12    13    2
    24    12    14   ar
    25    14    15    1
    26     4     5    1
    27     5     6    1
    28     5     7    1
    29    27    22   ar
    30     7     1    1
    31    14     8   ar
    32    21    16   ar
@<TRIPOS>MOLECULE
*****
 29 32 0 0 0
SMALL
GASTEIGER

@<TRIPOS>ATOM
      1 N           5.2111   -1.9084   21.2568 N.pl3   1  UNL1       -0.3018
      2 C           4.4106   -2.9507   21.9800 C.3     1  UNL1        0.1124
      3 C           4.9630   -3.5970   23.2157 C.3     1  UNL1        0.1149
      4 N           6.3160   -3.2010   23.7284 N.pl3   1  UNL1       -0.2777
      5 C           7.1165   -2.1588   23.0052 C.3     1  UNL1        0.0953
      6 C           8.4694   -1.7628   23.5178 C.3     1  UNL1        0.0233
      7 C           6.5640   -1.5124   21.7694 C.3     1  UNL1        0.1107
      8 C           6.8685   -3.8473   24.9641 C.ar    1  UNL1        0.2035
      9 N           6.4899   -3.3235   26.3177 N.ar    1  UNL1       -0.2133
     10 C           7.0424   -3.9697   27.5534 C.ar    1  UNL1        0.1065
     11 C           7.9734   -5.1400   27.4356 C.ar    1  UNL1        0.0815
     12 C           8.3520   -5.6638   26.0819 C.ar    1  UNL1        0.2646
     13 O           9.2830   -6.8339   25.9641 O.2     1  UNL1       -0.2668
     14 N           7.7995   -5.0174   24.8462 N.ar    1  UNL1       -0.2667
     15 C           8.1780   -5.5413   23.4926 C.3     1  UNL1        0.1363
     16 C           6.6638   -3.4459   28.9070 C.ar    1  UNL1        0.1024
     17 C           6.9283   -4.2710   30.1314 C.ar    1  UNL1        0.0414
     18 C           6.5498   -3.7471   31.4850 C.ar    1  UNL1        0.1023
     19 N           5.9067   -2.3982   31.6143 N.ar    1  UNL1       -0.2224
     20 C           5.6421   -1.5730   30.3898 C.ar    1  UNL1        0.1989
     21 N           6.0207   -2.0969   29.0362 N.ar    1  UNL1       -0.2224
     22 C           4.7733   -1.9563   18.6963 C.ar    1  UNL1        0.1519
     23 C           4.2208   -1.3100   17.4606 C.ar    1  UNL1        0.0382
     24 C           3.5535    0.0305   17.5497 C.ar    1  UNL1        0.0032
     25 C           3.4388    0.7247   18.8744 C.ar    1  UNL1        0.0015
     26 C           3.9913    0.0784   20.1101 C.ar    1  UNL1        0.0176
     27 C           4.6585   -1.2621   20.0211 C.ar    1  UNL1        0.0824
     28 C           4.6248   -4.5499   18.7255 C.3     1  UNL1        0.2525
     29 O           5.4406   -3.2967   18.6073 O.3     1  UNL1       -0.4702
@<TRIPOS>BOND
     1    28    29    1
     2    29    22    1
     3    22    23   ar
     4    23    24   ar
     5    24    25   ar
     6    25    26   ar
     7    26    27   ar
     8    27     1    1
     9     1     2    1
    10     2     3    1
    11     3     4    1
    12     4     8    1
    13     8     9   ar
    14     9    10   ar
    15    10    16    1
    16    16    17   ar
    17    17    18   ar
    18    18    19   ar
    19    19    20   ar
    20    20    21   ar
    21    10    11   ar
    22    11    12   ar
    23    12    13    2
    24    12    14   ar
    25    14    15    1
    26     4     5    1
    27     5     6    1
    28     5     7    1
    29    27    22   ar
    30     7     1    1
    31    14     8   ar
    32    21    16   ar
@<TRIPOS>MOLECULE
*****
 29 32 0 0 0
SMALL
GASTEIGER

@<TRIPOS>ATOM
      1 N           2.7020   -0.5408   19.4161 N.pl3   1  UNL1       -0.3018
      2 C           2.3483    0.3865   18.2914 C.3     1  UNL1        0.1124
      3 C           1.4880    1.5874   18.5518 C.3     1  UNL1        0.1149
      4 N           0.9814    1.8609   19.9370 N.pl3   1  UNL1       -0.2777
      5 C           1.3351    0.9335   21.0616 C.3     1  UNL1        0.0953
      6 C           0.8285    1.2070   22.4467 C.3     1  UNL1        0.0233
      7 C           2.1954   -0.2674   20.8012 C.3     1  UNL1        0.1107
      8 C           0.1211    3.0617   20.1974 C.ar    1  UNL1        0.2035
      9 N          -1.3638    2.9771   20.0022 N.ar    1  UNL1       -0.2133
     10 C          -2.2240    4.1779   20.2626 C.ar    1  UNL1        0.1065
     11 C          -1.5995    5.4635   20.7182 C.ar    1  UNL1        0.0815
     12 C          -0.1147    5.5480   20.9134 C.ar    1  UNL1        0.2646
     13 O           0.5099    6.8335   21.3690 O.2     1  UNL1       -0.2668
     14 N           0.7456    4.3471   20.6529 N.ar    1  UNL1       -0.2667
     15 C           2.2305    4.4317   20.8481 C.3     1  UNL1        0.1363
     16 C          -3.7089    4.0934   20.0675 C.ar    1  UNL1        0.1024
     17 C          -4.6345    4.4343   21.1975 C.ar    1  UNL1        0.0414
     18 C          -6.1193    4.3498   21.0023 C.ar    1  UNL1        0.1023
     19 N          -6.6786    3.9242   19.6772 N.ar    1  UNL1       -0.2224
     20 C          -5.7530    3.5832   18.5471 C.ar    1  UNL1        0.1989
     21 N          -4.2681    3.6678   18.7422 N.ar    1  UNL1       -0.2224
     22 C           4.9658   -1.5649   18.6566 C.ar    1  UNL1        0.1519
     23 C           5.8260   -2.7657   18.3961 C.ar    1  UNL1        0.0382
     24 C           5.2829   -4.1434   18.6347 C.ar    1  UNL1        0.0032
     25 C           3.8794   -4.3203   19.1337 C.ar    1  UNL1        0.0015
     26 C           3.0192   -3.1194   19.3941 C.ar    1  UNL1        0.0176
     27 C           3.5623   -1.7417   19.1556 C.ar    1  UNL1        0.0824
     28 C           5.9092    0.2321   17.0346 C.3     1  UNL1        0.2525
     29 O           5.5090   -0.1872   18.4181 O.3     1  UNL1       -0.4702
@<TRIPOS>BOND
     1    28    29    1
     2    29    22    1
     3    22    23   ar
     4    23    24   ar
     5    24    25   ar
     6    25    26   ar
     7    26    27   ar
     8    27     1    1
     9     1     2    1
    10     2     3    1
    11     3     4    1
    12     4     8    1
    13     8     9   ar
    14     9    10   ar
    15    10    16    1
    16    16    17   ar
    17    17    18   ar
    18    18    19   ar
    19    19    20   ar
    20    20    21   ar
    21    10    11   ar
    22    11    12   ar
    23    12    13    2
    24    12    14   ar
    25    14    15    1
    26     4     5    1
    27     5     6    1
    28     5     7    1
    29    27    22   ar
    30     7     1    1
    31    14     8   ar
    32    21    16   ar
@<TRIPOS>MOLECULE
*****
 29 32 0 0 0
SMALL
GASTEIGER

@<TRIPOS>ATOM
      1 N           2.9408    0.2347   30.4105 N.pl3   1  UNL1       -0.3018
      2 C           3.7605    1.1113   29.5107 C.3     1  UNL1        0.1124
      3 C           3.1799    1.6157   28.2229 C.3     1  UNL1        0.1149
      4 N           1.7795    1.2435   27.8349 N.pl3   1  UNL1       -0.2777
      5 C           0.9598    0.3669   28.7346 C.3     1  UNL1        0.0953
      6 C          -0.4405   -0.0053   28.3466 C.3     1  UNL1        0.0233
      7 C           1.5405   -0.1375   30.0225 C.3     1  UNL1        0.1107
      8 C           1.1990    1.7479   26.5471 C.ar    1  UNL1        0.2035
      9 N           1.4640    1.0134   25.2663 N.ar    1  UNL1       -0.2133
     10 C           0.8834    1.5178   23.9785 C.ar    1  UNL1        0.1065
     11 C           0.0378    2.7568   23.9714 C.ar    1  UNL1        0.0815
     12 C          -0.2272    3.4913   25.2522 C.ar    1  UNL1        0.2646
     13 O          -1.0728    4.7302   25.2451 O.2     1  UNL1       -0.2668
     14 N           0.3534    2.9868   26.5400 N.ar    1  UNL1       -0.2667
     15 C           0.0884    3.7213   27.8207 C.3     1  UNL1        0.1363
     16 C           1.1484    0.7833   22.6978 C.ar    1  UNL1        0.1024
     17 C           2.3599   -0.0922   22.5722 C.ar    1  UNL1        0.0414
     18 C           2.6249   -0.8267   21.2914 C.ar    1  UNL1        0.1023
     19 N           1.6784   -0.6857   20.1363 N.ar    1  UNL1       -0.2224
     20 C           0.4669    0.1899   20.2619 C.ar    1  UNL1        0.1989
     21 N           0.2019    0.9244   21.5426 N.ar    1  UNL1       -0.2224
     22 C           3.5883    0.6323   32.8950 C.ar    1  UNL1        0.1519
     23 C           4.1690    0.1278   34.1828 C.ar    1  UNL1        0.0382
     24 C           4.6827   -1.2785   34.2739 C.ar    1  UNL1        0.0032
     25 C           4.6157   -2.1804   33.0773 C.ar    1  UNL1        0.0015
     26 C           4.0351   -1.6760   31.7895 C.ar    1  UNL1        0.0176
     27 C           3.5214   -0.2697   31.6984 C.ar    1  UNL1        0.0824
     28 C           1.6192    2.3216   33.0311 C.3     1  UNL1        0.2525
     29 O           3.0746    2.0386   32.8039 O.3     1  UNL1       -0.4702
@<TRIPOS>BOND
     1    28    29    1
     2    29    22    1
     3    22    23   ar
     4    23    24   ar
     5    24    25   ar
     6    25    26   ar
     7    26    27   ar
     8    27     1    1
     9     1     2    1
    10     2     3    1
    11     3     4    1
    12     4     8    1
    13     8     9   ar
    14     9    10   ar
    15    10    16    1
    16    16    17   ar
    17    17    18   ar
    18    18    19   ar
    19    19    20   ar
    20    20    21   ar
    21    10    11   ar
    22    11    12   ar
    23    12    13    2
    24    12    14   ar
    25    14    15    1
    26     4     5    1
    27     5     6    1
    28     5     7    1
    29    27    22   ar
    30     7     1    1
    31    14     8   ar
    32    21    16   ar
@<TRIPOS>MOLECULE
*****
 29 32 0 0 0
SMALL
GASTEIGER

@<TRIPOS>ATOM
      1 N           5.0570   -1.4433   21.4276 N.pl3   1  UNL1       -0.3018
      2 C           4.0357   -2.0340   22.3540 C.3     1  UNL1        0.1124
      3 C           4.4319   -2.4509   23.7393 C.3     1  UNL1        0.1149
      4 N           5.8494   -2.2770   24.1984 N.pl3   1  UNL1       -0.2777
      5 C           6.8706   -1.6863   23.2720 C.3     1  UNL1        0.0953
      6 C           8.2880   -1.5125   23.7310 C.3     1  UNL1        0.0233
      7 C           6.4744   -1.2695   21.8866 C.3     1  UNL1        0.1107
      8 C           6.2455   -2.6939   25.5837 C.ar    1  UNL1        0.2035
      9 N           6.7629   -4.0800   25.8307 N.ar    1  UNL1       -0.2133
     10 C           7.1591   -4.4969   27.2161 C.ar    1  UNL1        0.1065
     11 C           7.0379   -3.5276   28.3545 C.ar    1  UNL1        0.0815
     12 C           6.5205   -2.1415   28.1075 C.ar    1  UNL1        0.2646
     13 O           6.3993   -1.1722   29.2458 O.2     1  UNL1       -0.2668
     14 N           6.1243   -1.7247   26.7220 N.ar    1  UNL1       -0.2667
     15 C           5.6069   -0.3386   26.4750 C.3     1  UNL1        0.1363
     16 C           7.6764   -5.8830   27.4631 C.ar    1  UNL1        0.1024
     17 C           7.3006   -7.0002   26.5355 C.ar    1  UNL1        0.0414
     18 C           7.8180   -8.3863   26.7825 C.ar    1  UNL1        0.1023
     19 N           8.7112   -8.6552   27.9572 N.ar    1  UNL1       -0.2224
     20 C           9.0871   -7.5380   28.8849 C.ar    1  UNL1        0.1989
     21 N           8.5697   -6.1518   28.6379 N.ar    1  UNL1       -0.2224
     22 C           4.6178   -2.0401   18.9374 C.ar    1  UNL1        0.1519
     23 C           4.2215   -1.6232   17.5521 C.ar    1  UNL1        0.0382
     24 C           3.8683   -0.1927   17.2716 C.ar    1  UNL1        0.0032
     25 C           3.9113    0.8210   18.3763 C.ar    1  UNL1        0.0015
     26 C           4.3075    0.4041   19.7616 C.ar    1  UNL1        0.0176
     27 C           4.6607   -1.0264   20.0422 C.ar    1  UNL1        0.0824
     28 C           3.8858   -4.4941   19.3759 C.3     1  UNL1        0.2525
     29 O           4.9710   -3.4707   19.2180 O.3     1  UNL1       -0.4702
@<TRIPOS>BOND
     1    28    29    1
     2    29    22    1
     3    22    23   ar
     4    23    24   ar
     5    24    25   ar
     6    25    26   ar
     7    26    27   ar
     8    27     1    1
     9     1     2    1
    10     2     3    1
    11     3     4    1
    12     4     8    1
    13     8     9   ar
    14     9    10   ar
    15    10    16    1
    16    16    17   ar
    17    17    18   ar
    18    18    19   ar
    19    19    20   ar
    20    20    21   ar
    21    10    11   ar
    22    11    12   ar
    23    12    13    2
    24    12    14   ar
    25    14    15    1
    26     4     5    1
    27     5     6    1
    28     5     7    1
    29    27    22   ar
    30     7     1    1
    31    14     8   ar
    32    21    16   ar
@<TRIPOS>MOLECULE
*****
 29 32 0 0 0
SMALL
GASTEIGER

@<TRIPOS>ATOM
      1 N           2.6683   -0.0455   20.8940 N.pl3   1  UNL1       -0.3018
      2 C           1.3808   -0.5861   20.3462 C.3     1  UNL1        0.1124
      3 C           0.1946    0.3182   20.1880 C.3     1  UNL1        0.1149
      4 N           0.2958    1.7632   20.5778 N.pl3   1  UNL1       -0.2777
      5 C           1.5832    2.3038   21.1256 C.3     1  UNL1        0.0953
      6 C           1.6844    3.7487   21.5153 C.3     1  UNL1        0.0233
      7 C           2.7695    1.3995   21.2838 C.3     1  UNL1        0.1107
      8 C          -0.8905    2.6674   20.4196 C.ar    1  UNL1        0.2035
      9 N          -1.8749    2.8163   21.5415 N.ar    1  UNL1       -0.2133
     10 C          -3.0612    3.7206   21.3834 C.ar    1  UNL1        0.1065
     11 C          -3.2630    4.4760   20.1033 C.ar    1  UNL1        0.0815
     12 C          -2.2786    4.3272   18.9813 C.ar    1  UNL1        0.2646
     13 O          -2.4804    5.0826   17.7013 O.2     1  UNL1       -0.2668
     14 N          -1.0923    3.4228   19.1395 N.ar    1  UNL1       -0.2667
     15 C          -0.1078    3.2740   18.0176 C.3     1  UNL1        0.1363
     16 C          -4.0456    3.8694   22.5053 C.ar    1  UNL1        0.1024
     17 C          -3.6082    3.6425   23.9220 C.ar    1  UNL1        0.0414
     18 C          -4.5927    3.7914   25.0439 C.ar    1  UNL1        0.1023
     19 N          -6.0146    4.1672   24.7491 N.ar    1  UNL1       -0.2224
     20 C          -6.4521    4.3942   23.3323 C.ar    1  UNL1        0.1989
     21 N          -5.4676    4.2453   22.2104 N.ar    1  UNL1       -0.2224
     22 C           4.1395   -1.5881   22.3793 C.ar    1  UNL1        0.1519
     23 C           5.3257   -2.4924   22.5374 C.ar    1  UNL1        0.0382
     24 C           6.2271   -2.7584   21.3683 C.ar    1  UNL1        0.0032
     25 C           5.9422   -2.1202   20.0412 C.ar    1  UNL1        0.0015
     26 C           4.7560   -1.2159   19.8831 C.ar    1  UNL1        0.0176
     27 C           3.8546   -0.9498   21.0522 C.ar    1  UNL1        0.0824
     28 C           3.8096   -0.7958   24.8316 C.3     1  UNL1        0.2525
     29 O           3.2381   -1.3220   23.5484 O.3     1  UNL1       -0.4702
@<TRIPOS>BOND
     1    28    29    1
     2    29    22    1
     3    22    23   ar
     4    23    24   ar
     5    24    25   ar
     6    25    26   ar
     7    26    27   ar
     8    27     1    1
     9     1     2    1
    10     2     3    1
    11     3     4    1
    12     4     8    1
    13     8     9   ar
    14     9    10   ar
    15    10    16    1
    16    16    17   ar
    17    17    18   ar
    18    18    19   ar
    19    19    20   ar
    20    20    21   ar
    21    10    11   ar
    22    11    12   ar
    23    12    13    2
    24    12    14   ar
    25    14    15    1
    26     4     5    1
    27     5     6    1
    28     5     7    1
    29    27    22   ar
    30     7     1    1
    31    14     8   ar
    32    21    16   ar
@<TRIPOS>MOLECULE
*****
 29 32 0 0 0
SMALL
GASTEIGER

@<TRIPOS>ATOM
      1 N          -0.7642    2.8060   26.7609 N.pl3   1  UNL1       -0.3018
      2 C           0.3428    3.6714   27.2857 C.3     1  UNL1        0.1124
      3 C           1.1276    3.2382   28.4884 C.3     1  UNL1        0.1149
      4 N           0.8053    1.9395   29.1664 N.pl3   1  UNL1       -0.2777
      5 C          -0.3018    1.0741   28.6416 C.3     1  UNL1        0.0953
      6 C          -0.6241   -0.2246   29.3195 C.3     1  UNL1        0.0233
      7 C          -1.0865    1.5073   27.4388 C.3     1  UNL1        0.1107
      8 C           1.5900    1.5063   30.3691 C.ar    1  UNL1        0.2035
      9 N           2.6349    0.4382   30.2379 N.ar    1  UNL1       -0.2133
     10 C           3.4196    0.0050   31.4406 C.ar    1  UNL1        0.1065
     11 C           3.1595    0.6399   32.7745 C.ar    1  UNL1        0.0815
     12 C           2.1146    1.7081   32.9056 C.ar    1  UNL1        0.2646
     13 O           1.8544    2.3431   34.2394 O.2     1  UNL1       -0.2668
     14 N           1.3298    2.1413   31.7029 N.ar    1  UNL1       -0.2667
     15 C           0.2849    3.2094   31.8340 C.3     1  UNL1        0.1363
     16 C           4.4646   -1.0632   31.3095 C.ar    1  UNL1        0.1024
     17 C           5.2165   -1.2227   30.0215 C.ar    1  UNL1        0.0414
     18 C           6.2614   -2.2909   29.8904 C.ar    1  UNL1        0.1023
     19 N           6.5544   -3.1995   31.0473 N.ar    1  UNL1       -0.2224
     20 C           5.8024   -3.0400   32.3354 C.ar    1  UNL1        0.1989
     21 N           4.7575   -1.9719   32.4665 N.ar    1  UNL1       -0.2224
     22 C          -0.9287    3.1725   24.1941 C.ar    1  UNL1        0.1519
     23 C          -1.7134    3.6058   22.9914 C.ar    1  UNL1        0.0382
     24 C          -3.1184    4.1057   23.1529 C.ar    1  UNL1        0.0032
     25 C          -3.7387    4.1724   24.5170 C.ar    1  UNL1        0.0015
     26 C          -2.9540    3.7391   25.7196 C.ar    1  UNL1        0.0176
     27 C          -1.5490    3.2392   25.5582 C.ar    1  UNL1        0.0824
     28 C           0.7394    1.2010   23.9108 C.3     1  UNL1        0.2525
     29 O           0.4763    2.6726   24.0327 O.3     1  UNL1       -0.4702
@<TRIPOS>BOND
     1    28    29    1
     2    29    22    1
     3    22    23   ar
     4    23    24   ar
     5    24    25   ar
     6    25    26   ar
     7    26    27   ar
     8    27     1    1
     9     1     2    1
    10     2     3    1
    11     3     4    1
    12     4     8    1
    13     8     9   ar
    14     9    10   ar
    15    10    16    1
    16    16    17   ar
    17    17    18   ar
    18    18    19   ar
    19    19    20   ar
    20    20    21   ar
    21    10    11   ar
    22    11    12   ar
    23    12    13    2
    24    12    14   ar
    25    14    15    1
    26     4     5    1
    27     5     6    1
    28     5     7    1
    29    27    22   ar
    30     7     1    1
    31    14     8   ar
    32    21    16   ar
