@<TRIPOS>MOLECULE
*****
 25 25 0 0 0
SMALL
GASTEIGER

@<TRIPOS>ATOM
      1 C         -10.4852  -17.7985   22.7062 C.2     1  UNL1        0.2140
      2 C          -9.7767  -16.8812   21.7541 C.2     1  UNL1        0.2140
      3 C          -8.6824  -15.9840   22.2514 C.2     1  UNL1        0.2282
      4 O          -7.9738  -15.0666   21.2993 O.2     1  UNL1       -0.2836
      5 C          -8.2966  -16.0040   23.7008 C.2     1  UNL1        0.0191
      6 C          -9.0051  -16.9213   24.6529 C.2     1  UNL1        0.0195
      7 C          -8.6193  -16.9413   26.1023 C.3     1  UNL1        0.0343
      8 C         -10.0994  -17.8185   24.1556 C.2     1  UNL1        0.2282
      9 O         -10.8080  -18.7359   25.1077 O.2     1  UNL1       -0.2836
     10 C         -11.2394  -20.0026   21.5560 C.3     1  UNL1        0.2528
     11 O         -11.5796  -18.6958   22.2089 O.2     1  UNL1       -0.4652
     12 O         -10.1625  -16.8612   20.3047 O.2     1  UNL1       -0.4652
     13 C         -11.2864  -15.9834   19.8398 C.3     1  UNL1        0.2528
     14 C          -7.2022  -15.1067   24.1981 C.3     1  UNL1        0.0295
     15 C          -5.7671  -15.4657   23.9500 C.3     1  UNL1        0.0048
     16 C          -5.4090  -16.8456   23.4836 C.3     1  UNL1        0.0003
     17 C          -4.0053  -17.3502   23.6422 C.3     1  UNL1        0.0000
     18 C          -3.1958  -17.7083   22.4312 C.3     1  UNL1        0.0000
     19 C          -2.9409  -19.1485   22.0985 C.3     1  UNL1        0.0000
     20 C          -3.0098  -19.6127   20.6738 C.3     1  UNL1        0.0001
     21 C          -4.3295  -19.9977   20.0734 C.3     1  UNL1        0.0026
     22 C          -5.4869  -20.3410   20.9637 C.3     1  UNL1        0.0317
     23 C          -6.6463  -19.3970   21.0842 C.3     1  UNL1        0.1372
     24 O          -6.7171  -18.1806   20.2093 O.3     1  UNL1       -0.3820
     25 H          -5.9922  -17.5771   20.4354 H       1  UNL1        0.2104
@<TRIPOS>BOND
     1    10    11    1
     2    11     1    1
     3     1     2    2
     4     2    12    1
     5    12    13    1
     6     2     3    1
     7     3     4    2
     8     3     5    1
     9     5    14    1
    10    14    15    1
    11    15    16    1
    12    16    17    1
    13    17    18    1
    14    18    19    1
    15    19    20    1
    16    20    21    1
    17    21    22    1
    18    22    23    1
    19    23    24    1
    20     5     6    2
    21     6     7    1
    22     6     8    1
    23     8     9    2
    24     8     1    1
    25    24    25    1
@<TRIPOS>MOLECULE
*****
 25 25 0 0 0
SMALL
GASTEIGER

@<TRIPOS>ATOM
      1 C         -10.2833  -17.8188   22.8437 C.2     1  UNL1        0.2140
      2 C          -9.6276  -16.9090   21.8476 C.2     1  UNL1        0.2140
      3 C          -8.5626  -15.9516   22.2938 C.2     1  UNL1        0.2282
      4 O          -7.9068  -15.0418   21.2976 O.2     1  UNL1       -0.2836
      5 C          -8.1532  -15.9041   23.7360 C.2     1  UNL1        0.0191
      6 C          -8.8089  -16.8139   24.7321 C.2     1  UNL1        0.0195
      7 C          -8.3996  -16.7663   26.1744 C.3     1  UNL1        0.0343
      8 C          -9.8740  -17.7713   24.2859 C.2     1  UNL1        0.2282
      9 O         -10.5297  -18.6811   25.2821 O.2     1  UNL1       -0.2836
     10 C         -10.9922  -19.9375   21.5175 C.3     1  UNL1        0.2528
     11 O         -11.3484  -18.7762   22.3975 O.2     1  UNL1       -0.4652
     12 O         -10.0370  -16.9566   20.4053 O.2     1  UNL1       -0.4652
     13 C         -11.2156  -16.1578   19.9334 C.3     1  UNL1        0.2528
     14 C          -7.0882  -14.9467   24.1822 C.3     1  UNL1        0.0295
     15 C          -5.6426  -15.2697   23.9460 C.3     1  UNL1        0.0048
     16 C          -5.1430  -16.6687   24.1539 C.3     1  UNL1        0.0003
     17 C          -4.1659  -17.2678   23.1862 C.3     1  UNL1        0.0000
     18 C          -4.4090  -18.6381   22.6266 C.3     1  UNL1        0.0000
     19 C          -3.2648  -19.4383   22.0785 C.3     1  UNL1        0.0000
     20 C          -3.1929  -19.7356   20.6101 C.3     1  UNL1        0.0001
     21 C          -3.3614  -18.6289   19.6116 C.3     1  UNL1        0.0026
     22 C          -2.2160  -17.7076   19.3127 C.3     1  UNL1        0.0317
     23 C          -0.8116  -18.1307   19.6265 C.3     1  UNL1        0.1372
     24 O          -0.2403  -17.8814   20.9909 O.3     1  UNL1       -0.3820
     25 H          -0.1586  -16.9261   21.1376 H       1  UNL1        0.2104
@<TRIPOS>BOND
     1    10    11    1
     2    11     1    1
     3     1     2    2
     4     2    12    1
     5    12    13    1
     6     2     3    1
     7     3     4    2
     8     3     5    1
     9     5    14    1
    10    14    15    1
    11    15    16    1
    12    16    17    1
    13    17    18    1
    14    18    19    1
    15    19    20    1
    16    20    21    1
    17    21    22    1
    18    22    23    1
    19    23    24    1
    20     5     6    2
    21     6     7    1
    22     6     8    1
    23     8     9    2
    24     8     1    1
    25    24    25    1
@<TRIPOS>MOLECULE
*****
 25 25 0 0 0
SMALL
GASTEIGER

@<TRIPOS>ATOM
      1 C         -10.0346  -18.1001   22.4596 C.2     1  UNL1        0.2140
      2 C          -8.6720  -17.7245   22.9615 C.2     1  UNL1        0.2140
      3 C          -7.4525  -18.0993   22.1726 C.2     1  UNL1        0.2282
      4 O          -6.0898  -17.7236   22.6746 O.2     1  UNL1       -0.2836
      5 C          -7.5957  -18.8497   20.8817 C.2     1  UNL1        0.0191
      6 C          -8.9583  -19.2253   20.3798 C.2     1  UNL1        0.0195
      7 C          -9.1016  -19.9758   19.0889 C.3     1  UNL1        0.0343
      8 C         -10.1778  -18.8505   21.1687 C.2     1  UNL1        0.2282
      9 O         -11.5406  -19.2262   20.6667 O.2     1  UNL1       -0.2836
     10 C         -11.7122  -18.5966   24.3803 C.3     1  UNL1        0.2528
     11 O         -11.2541  -17.7254   23.2485 O.2     1  UNL1       -0.4652
     12 O          -8.5287  -16.9740   24.2524 O.2     1  UNL1       -0.4652
     13 C          -8.1984  -15.5110   24.2367 C.3     1  UNL1        0.2528
     14 C          -6.3762  -19.2244   20.0928 C.3     1  UNL1        0.0295
     15 C          -5.6474  -20.4992   20.3989 C.3     1  UNL1        0.0048
     16 C          -4.1951  -20.6354   20.0491 C.3     1  UNL1        0.0003
     17 C          -3.2256  -19.5591   20.4386 C.3     1  UNL1        0.0000
     18 C          -2.4932  -19.6462   21.7447 C.3     1  UNL1        0.0000
     19 C          -2.4225  -18.4494   22.6462 C.3     1  UNL1        0.0000
     20 C          -2.7276  -17.0840   22.1054 C.3     1  UNL1        0.0001
     21 C          -1.6453  -16.2774   21.4509 C.3     1  UNL1        0.0026
     22 C          -1.0619  -16.7261   20.1438 C.3     1  UNL1        0.0317
     23 C           0.2169  -17.5098   20.1229 C.3     1  UNL1        0.1372
     24 O           0.2086  -18.9473   19.6946 O.3     1  UNL1       -0.3820
     25 H          -0.2936  -19.4731   20.3367 H       1  UNL1        0.2104
@<TRIPOS>BOND
     1    10    11    1
     2    11     1    1
     3     1     2    2
     4     2    12    1
     5    12    13    1
     6     2     3    1
     7     3     4    2
     8     3     5    1
     9     5    14    1
    10    14    15    1
    11    15    16    1
    12    16    17    1
    13    17    18    1
    14    18    19    1
    15    19    20    1
    16    20    21    1
    17    21    22    1
    18    22    23    1
    19    23    24    1
    20     5     6    2
    21     6     7    1
    22     6     8    1
    23     8     9    2
    24     8     1    1
    25    24    25    1
@<TRIPOS>MOLECULE
*****
 25 25 0 0 0
SMALL
GASTEIGER

@<TRIPOS>ATOM
      1 C         -10.8468  -17.6042   20.5929 C.2     1  UNL1        0.2140
      2 C          -9.6503  -18.4226   20.9783 C.2     1  UNL1        0.2140
      3 C          -9.6194  -19.1290   22.3012 C.2     1  UNL1        0.2282
      4 O          -8.4228  -19.9475   22.6866 O.2     1  UNL1       -0.2836
      5 C         -10.7850  -19.0171   23.2387 C.2     1  UNL1        0.0191
      6 C         -11.9815  -18.1987   22.8532 C.2     1  UNL1        0.0195
      7 C         -13.1471  -18.0866   23.7907 C.3     1  UNL1        0.0343
      8 C         -12.0124  -17.4922   21.5303 C.2     1  UNL1        0.2282
      9 O         -13.2089  -16.6738   21.1449 O.2     1  UNL1       -0.2836
     10 C         -11.0066  -15.4042   19.2202 C.3     1  UNL1        0.2528
     11 O         -10.8777  -16.8978   19.2700 O.2     1  UNL1       -0.4652
     12 O          -8.4847  -18.5346   20.0409 O.2     1  UNL1       -0.4652
     13 C          -8.2760  -19.7923   19.2505 C.3     1  UNL1        0.2528
     14 C         -10.7541  -19.7235   24.5615 C.3     1  UNL1        0.0295
     15 C          -9.9299  -19.1722   25.6871 C.3     1  UNL1        0.0048
     16 C          -9.4884  -17.7389   25.6613 C.3     1  UNL1        0.0003
     17 C          -8.7861  -17.1491   26.8483 C.3     1  UNL1        0.0000
     18 C          -8.5353  -15.6716   26.9135 C.3     1  UNL1        0.0000
     19 C          -7.1794  -15.1572   27.2966 C.3     1  UNL1        0.0000
     20 C          -5.9461  -15.8234   26.7626 C.3     1  UNL1        0.0001
     21 C          -5.1521  -15.1679   25.6717 C.3     1  UNL1        0.0026
     22 C          -5.4458  -15.4861   24.2355 C.3     1  UNL1        0.0317
     23 C          -6.8265  -15.2766   23.6881 C.3     1  UNL1        0.1372
     24 O          -7.5911  -14.0341   24.0369 O.3     1  UNL1       -0.3820
     25 H          -7.7910  -14.0332   24.9861 H       1  UNL1        0.2104
@<TRIPOS>BOND
     1    10    11    1
     2    11     1    1
     3     1     2    2
     4     2    12    1
     5    12    13    1
     6     2     3    1
     7     3     4    2
     8     3     5    1
     9     5    14    1
    10    14    15    1
    11    15    16    1
    12    16    17    1
    13    17    18    1
    14    18    19    1
    15    19    20    1
    16    20    21    1
    17    21    22    1
    18    22    23    1
    19    23    24    1
    20     5     6    2
    21     6     7    1
    22     6     8    1
    23     8     9    2
    24     8     1    1
    25    24    25    1
@<TRIPOS>MOLECULE
*****
 25 25 0 0 0
SMALL
GASTEIGER

@<TRIPOS>ATOM
      1 C          -4.2324  -18.1292   22.4407 C.2     1  UNL1        0.2140
      2 C          -5.4393  -17.3405   22.8544 C.2     1  UNL1        0.2140
      3 C          -6.8131  -17.8396   22.5173 C.2     1  UNL1        0.2282
      4 O          -8.0201  -17.0508   22.9310 O.2     1  UNL1       -0.2836
      5 C          -6.9800  -19.1274   21.7666 C.2     1  UNL1        0.0191
      6 C          -5.7730  -19.9162   21.3530 C.2     1  UNL1        0.0195
      7 C          -5.9398  -21.2041   20.6023 C.3     1  UNL1        0.0343
      8 C          -4.3992  -19.4170   21.6900 C.2     1  UNL1        0.2282
      9 O          -3.1922  -20.2058   21.2763 O.2     1  UNL1       -0.2836
     10 C          -2.2312  -16.5458   21.9527 C.3     1  UNL1        0.2528
     11 O          -2.8586  -17.6300   22.7778 O.2     1  UNL1       -0.4652
     12 O          -5.2726  -16.0525   23.6051 O.2     1  UNL1       -0.4652
     13 C          -5.2580  -16.0552   25.1050 C.3     1  UNL1        0.2528
     14 C          -8.3537  -19.6266   21.4296 C.3     1  UNL1        0.0295
     15 C          -9.0789  -19.0787   20.2363 C.3     1  UNL1        0.0048
     16 C         -10.5471  -18.7835   20.3214 C.3     1  UNL1        0.0003
     17 C         -11.0525  -17.4018   20.0285 C.3     1  UNL1        0.0000
     18 C         -12.3004  -16.9028   20.6947 C.3     1  UNL1        0.0000
     19 C         -12.3199  -16.6766   22.1774 C.3     1  UNL1        0.0000
     20 C         -13.0656  -17.6232   23.0707 C.3     1  UNL1        0.0001
     21 C         -12.3277  -18.4073   24.1151 C.3     1  UNL1        0.0026
     22 C         -10.9482  -18.9231   23.8305 C.3     1  UNL1        0.0317
     23 C         -10.0439  -19.3105   24.9627 C.3     1  UNL1        0.1372
     24 O         -10.1101  -20.6953   25.5354 O.3     1  UNL1       -0.3820
     25 H         -10.9709  -20.8277   25.9626 H       1  UNL1        0.2104
@<TRIPOS>BOND
     1    10    11    1
     2    11     1    1
     3     1     2    2
     4     2    12    1
     5    12    13    1
     6     2     3    1
     7     3     4    2
     8     3     5    1
     9     5    14    1
    10    14    15    1
    11    15    16    1
    12    16    17    1
    13    17    18    1
    14    18    19    1
    15    19    20    1
    16    20    21    1
    17    21    22    1
    18    22    23    1
    19    23    24    1
    20     5     6    2
    21     6     7    1
    22     6     8    1
    23     8     9    2
    24     8     1    1
    25    24    25    1
@<TRIPOS>MOLECULE
*****
 25 25 0 0 0
SMALL
GASTEIGER

@<TRIPOS>ATOM
      1 C          -4.6755  -17.8801   22.7339 C.2     1  UNL1        0.2140
      2 C          -5.8689  -17.0233   23.0365 C.2     1  UNL1        0.2140
      3 C          -7.2190  -17.4029   22.5044 C.2     1  UNL1        0.2282
      4 O          -8.4124  -16.5460   22.8070 O.2     1  UNL1       -0.2836
      5 C          -7.3756  -18.6393   21.6696 C.2     1  UNL1        0.0191
      6 C          -6.1822  -19.4961   21.3671 C.2     1  UNL1        0.0195
      7 C          -6.3389  -20.7325   20.5323 C.3     1  UNL1        0.0343
      8 C          -4.8321  -19.1165   21.8992 C.2     1  UNL1        0.2282
      9 O          -3.6387  -19.9734   21.5966 O.2     1  UNL1       -0.2836
     10 C          -2.3678  -16.7333   22.4033 C.3     1  UNL1        0.2528
     11 O          -3.3254  -17.5005   23.2660 O.2     1  UNL1       -0.4652
     12 O          -5.7122  -15.7869   23.8712 O.2     1  UNL1       -0.4652
     13 C          -5.9325  -15.8498   25.3536 C.3     1  UNL1        0.2528
     14 C          -8.7257  -19.0188   21.1375 C.3     1  UNL1        0.0295
     15 C          -9.6918  -19.7667   22.0078 C.3     1  UNL1        0.0048
     16 C          -9.3279  -20.0900   23.4266 C.3     1  UNL1        0.0003
     17 C         -10.3089  -19.8281   24.5308 C.3     1  UNL1        0.0000
     18 C         -11.0195  -18.5092   24.6055 C.3     1  UNL1        0.0000
     19 C         -12.4373  -18.3932   24.1297 C.3     1  UNL1        0.0000
     20 C         -12.7503  -17.6108   22.8888 C.3     1  UNL1        0.0001
     21 C         -12.0766  -16.2933   22.6430 C.3     1  UNL1        0.0026
     22 C         -11.4377  -16.0139   21.3149 C.3     1  UNL1        0.0317
     23 C         -12.1323  -16.4186   20.0486 C.3     1  UNL1        0.1372
     24 O         -12.3835  -15.4031   18.9735 O.3     1  UNL1       -0.3820
     25 H         -13.0109  -14.7379   19.2973 H       1  UNL1        0.2104
@<TRIPOS>BOND
     1    10    11    1
     2    11     1    1
     3     1     2    2
     4     2    12    1
     5    12    13    1
     6     2     3    1
     7     3     4    2
     8     3     5    1
     9     5    14    1
    10    14    15    1
    11    15    16    1
    12    16    17    1
    13    17    18    1
    14    18    19    1
    15    19    20    1
    16    20    21    1
    17    21    22    1
    18    22    23    1
    19    23    24    1
    20     5     6    2
    21     6     7    1
    22     6     8    1
    23     8     9    2
    24     8     1    1
    25    24    25    1
@<TRIPOS>MOLECULE
*****
 25 25 0 0 0
SMALL
GASTEIGER

@<TRIPOS>ATOM
      1 C          -3.2721  -19.3368   21.1576 C.2     1  UNL1        0.2140
      2 C          -3.7235  -18.2402   22.0761 C.2     1  UNL1        0.2140
      3 C          -5.1857  -18.0426   22.3464 C.2     1  UNL1        0.2282
      4 O          -5.6371  -16.9459   23.2649 O.2     1  UNL1       -0.2836
      5 C          -6.1964  -18.9416   21.6982 C.2     1  UNL1        0.0191
      6 C          -5.7450  -20.0382   20.7797 C.2     1  UNL1        0.0195
      7 C          -6.7557  -20.9373   20.1315 C.3     1  UNL1        0.0343
      8 C          -4.2828  -20.2358   20.5094 C.2     1  UNL1        0.2282
      9 O          -3.8314  -21.3324   19.5909 O.2     1  UNL1       -0.2836
     10 C          -1.1039  -18.6528   19.9002 C.3     1  UNL1        0.2528
     11 O          -1.8100  -19.5343   20.8872 O.2     1  UNL1       -0.4652
     12 O          -2.7128  -17.3411   22.7243 O.2     1  UNL1       -0.4652
     13 C          -2.2295  -16.1158   22.0067 C.3     1  UNL1        0.2528
     14 C          -7.6586  -18.7440   21.9686 C.3     1  UNL1        0.0295
     15 C          -8.3649  -19.6265   22.9546 C.3     1  UNL1        0.0048
     16 C          -9.8277  -19.9145   22.7899 C.3     1  UNL1        0.0003
     17 C         -10.4877  -19.7075   21.4588 C.3     1  UNL1        0.0000
     18 C         -11.6741  -18.7970   21.3434 C.3     1  UNL1        0.0000
     19 C         -12.1151  -17.9863   22.5259 C.3     1  UNL1        0.0000
     20 C         -11.7198  -16.5434   22.6354 C.3     1  UNL1        0.0001
     21 C         -10.2771  -16.1723   22.8112 C.3     1  UNL1        0.0026
     22 C          -9.6421  -16.2519   24.1679 C.3     1  UNL1        0.0317
     23 C          -8.2519  -15.7291   24.3771 C.3     1  UNL1        0.1372
     24 O          -7.9591  -14.2727   24.1692 O.3     1  UNL1       -0.3820
     25 H          -8.0771  -14.0497   23.2326 H       1  UNL1        0.2104
@<TRIPOS>BOND
     1    10    11    1
     2    11     1    1
     3     1     2    2
     4     2    12    1
     5    12    13    1
     6     2     3    1
     7     3     4    2
     8     3     5    1
     9     5    14    1
    10    14    15    1
    11    15    16    1
    12    16    17    1
    13    17    18    1
    14    18    19    1
    15    19    20    1
    16    20    21    1
    17    21    22    1
    18    22    23    1
    19    23    24    1
    20     5     6    2
    21     6     7    1
    22     6     8    1
    23     8     9    2
    24     8     1    1
    25    24    25    1
@<TRIPOS>MOLECULE
*****
 25 25 0 0 0
SMALL
GASTEIGER

@<TRIPOS>ATOM
      1 C          -4.0478  -17.6233   22.7404 C.2     1  UNL1        0.2140
      2 C          -5.2196  -16.8846   23.3157 C.2     1  UNL1        0.2140
      3 C          -6.6094  -17.4142   23.1204 C.2     1  UNL1        0.2282
      4 O          -7.7813  -16.6754   23.6957 O.2     1  UNL1       -0.2836
      5 C          -6.8273  -18.6825   22.3498 C.2     1  UNL1        0.0191
      6 C          -5.6555  -19.4212   21.7745 C.2     1  UNL1        0.0195
      7 C          -5.8733  -20.6896   21.0038 C.3     1  UNL1        0.0343
      8 C          -4.2657  -18.8916   21.9698 C.2     1  UNL1        0.2282
      9 O          -3.0938  -19.6304   21.3944 O.2     1  UNL1       -0.2836
     10 C          -2.0315  -16.2260   21.8847 C.3     1  UNL1        0.2528
     11 O          -2.6581  -17.0937   22.9356 O.2     1  UNL1       -0.4652
     12 O          -5.0018  -15.6162   24.0863 O.2     1  UNL1       -0.4652
     13 C          -5.1802  -15.6034   25.5756 C.3     1  UNL1        0.2528
     14 C          -8.2170  -19.2121   22.1545 C.3     1  UNL1        0.0295
     15 C          -8.8657  -20.0311   23.2308 C.3     1  UNL1        0.0048
     16 C         -10.3279  -19.8651   23.5212 C.3     1  UNL1        0.0003
     17 C         -11.2872  -19.5826   22.4031 C.3     1  UNL1        0.0000
     18 C         -11.0020  -20.0952   21.0226 C.3     1  UNL1        0.0000
     19 C         -11.0890  -19.1691   19.8459 C.3     1  UNL1        0.0000
     20 C         -10.5825  -17.7618   19.9599 C.3     1  UNL1        0.0001
     21 C         -11.5499  -16.6155   19.9754 C.3     1  UNL1        0.0026
     22 C         -12.5075  -16.4577   21.1191 C.3     1  UNL1        0.0317
     23 C         -12.0159  -15.9583   22.4453 C.3     1  UNL1        0.1372
     24 O         -10.5499  -15.9876   22.7613 O.3     1  UNL1       -0.3820
     25 H         -10.2485  -16.9081   22.8127 H       1  UNL1        0.2104
@<TRIPOS>BOND
     1    10    11    1
     2    11     1    1
     3     1     2    2
     4     2    12    1
     5    12    13    1
     6     2     3    1
     7     3     4    2
     8     3     5    1
     9     5    14    1
    10    14    15    1
    11    15    16    1
    12    16    17    1
    13    17    18    1
    14    18    19    1
    15    19    20    1
    16    20    21    1
    17    21    22    1
    18    22    23    1
    19    23    24    1
    20     5     6    2
    21     6     7    1
    22     6     8    1
    23     8     9    2
    24     8     1    1
    25    24    25    1
@<TRIPOS>MOLECULE
*****
 25 25 0 0 0
SMALL
GASTEIGER

@<TRIPOS>ATOM
      1 C          -4.7061  -19.4671   22.0728 C.2     1  UNL1        0.2140
      2 C          -4.6141  -18.1024   22.6883 C.2     1  UNL1        0.2140
      3 C          -5.8502  -17.2686   22.8520 C.2     1  UNL1        0.2282
      4 O          -5.7582  -15.9037   23.4676 O.2     1  UNL1       -0.2836
      5 C          -7.1783  -17.7995   22.4001 C.2     1  UNL1        0.0191
      6 C          -7.2703  -19.1643   21.7846 C.2     1  UNL1        0.0195
      7 C          -8.5984  -19.6953   21.3327 C.3     1  UNL1        0.0343
      8 C          -6.0342  -19.9981   21.6209 C.2     1  UNL1        0.2282
      9 O          -6.1262  -21.3629   21.0053 O.2     1  UNL1       -0.2836
     10 C          -2.4999  -19.9957   20.8065 C.3     1  UNL1        0.2528
     11 O          -3.4700  -20.3010   21.9091 O.2     1  UNL1       -0.4652
     12 O          -3.2859  -17.5714   23.1402 O.2     1  UNL1       -0.4652
     13 C          -2.5698  -16.5428   22.3162 C.3     1  UNL1        0.2528
     14 C          -8.4144  -16.9657   22.5638 C.3     1  UNL1        0.0295
     15 C          -8.7375  -16.3569   23.8960 C.3     1  UNL1        0.0048
     16 C          -9.5590  -17.1220   24.8909 C.3     1  UNL1        0.0003
     17 C          -9.8858  -18.5648   24.6422 C.3     1  UNL1        0.0000
     18 C         -11.2964  -18.9720   24.3351 C.3     1  UNL1        0.0000
     19 C         -12.2786  -17.9549   23.8344 C.3     1  UNL1        0.0000
     20 C         -12.8704  -18.0953   22.4633 C.3     1  UNL1        0.0001
     21 C         -12.0792  -17.6792   21.2587 C.3     1  UNL1        0.0026
     22 C         -11.7297  -16.2350   21.0532 C.3     1  UNL1        0.0317
     23 C         -11.2948  -15.7537   19.7007 C.3     1  UNL1        0.1372
     24 O         -12.3197  -15.4332   18.6534 O.3     1  UNL1       -0.3820
     25 H         -12.7833  -16.2452   18.3954 H       1  UNL1        0.2104
@<TRIPOS>BOND
     1    10    11    1
     2    11     1    1
     3     1     2    2
     4     2    12    1
     5    12    13    1
     6     2     3    1
     7     3     4    2
     8     3     5    1
     9     5    14    1
    10    14    15    1
    11    15    16    1
    12    16    17    1
    13    17    18    1
    14    18    19    1
    15    19    20    1
    16    20    21    1
    17    21    22    1
    18    22    23    1
    19    23    24    1
    20     5     6    2
    21     6     7    1
    22     6     8    1
    23     8     9    2
    24     8     1    1
    25    24    25    1
