@<TRIPOS>MOLECULE
*****
 19 21 0 0 0
SMALL
GASTEIGER

@<TRIPOS>ATOM
      1 C         -10.9444  -17.3595   23.0677 C.3     1  UNL1        0.0313
      2 C         -12.1695  -18.1879   22.8171 C.3     1  UNL1        0.0222
      3 C         -12.8921  -17.6025   21.6402 C.3     1  UNL1        0.0689
      4 N         -12.1136  -16.4123   21.1634 N.3     1  UNL1       -0.2972
      5 C         -10.9098  -16.2621   22.0456 C.3     1  UNL1        0.0723
      6 H         -12.6921  -15.5743   21.2216 H       1  UNL1        0.1233
      7 C          -9.6708  -16.7331   23.5532 C.2     1  UNL1       -0.0390
      8 C          -8.6933  -16.1620   22.5693 C.2     1  UNL1       -0.0066
      9 C          -7.4197  -15.5355   23.0548 C.2     1  UNL1        0.0182
     10 C          -7.1238  -15.4803   24.5242 C.2     1  UNL1        0.0777
     11 N          -5.9599  -14.9295   25.2936 N.2     1  UNL1       -0.2442
     12 C          -6.2181  -15.1603   26.7531 C.2     1  UNL1        0.0985
     13 C          -7.5416  -15.8537   26.8857 C.2     1  UNL1        0.0182
     14 C          -8.1013  -16.0515   25.5082 C.2     1  UNL1        0.0011
     15 C          -9.3749  -16.6778   25.0226 C.3     1  UNL1        0.0499
     16 C         -10.7127  -18.3259   24.1912 C.3     1  UNL1        0.0051
     17 C         -10.5990  -19.7941   23.9061 C.3     1  UNL1        0.0004
     18 C          -8.2768  -19.9808   22.7560 C.3     1  UNL1        0.0000
     19 C          -9.2471  -20.4361   23.8054 C.3     1  UNL1        0.0000
@<TRIPOS>BOND
     1    18    19    1
     2    19    17    1
     3    17    16    1
     4    16     1    1
     5     1     7    1
     6     7     8    2
     7     8     9    1
     8     9    10    2
     9    10    11    1
    10    11    12    2
    11    12    13    1
    12    13    14    2
    13    14    15    1
    14     1     2    1
    15     2     3    1
    16     3     4    1
    17     4     5    1
    18     5     1    1
    19    15     7    1
    20    14    10    1
    21     4     6    1
@<TRIPOS>MOLECULE
*****
 19 21 0 0 0
SMALL
GASTEIGER

@<TRIPOS>ATOM
      1 C         -11.4618  -17.4172   23.3660 C.3     1  UNL1        0.0313
      2 C         -12.9497  -17.3152   23.2055 C.3     1  UNL1        0.0222
      3 C         -13.5875  -18.2453   24.1944 C.3     1  UNL1        0.0689
      4 N         -12.4939  -18.9222   24.9662 N.3     1  UNL1       -0.2972
      5 C         -11.1801  -18.4105   24.4543 C.3     1  UNL1        0.0723
      6 H         -12.5485  -19.9317   24.8310 H       1  UNL1        0.1233
      7 C          -9.9675  -17.3069   23.2961 C.2     1  UNL1       -0.0390
      8 C          -9.1728  -18.3416   22.5560 C.2     1  UNL1       -0.0066
      9 C          -7.6785  -18.2312   22.4861 C.2     1  UNL1        0.0182
     10 C          -6.9789  -17.0861   23.1564 C.2     1  UNL1        0.0777
     11 N          -5.5287  -16.7166   23.2573 N.2     1  UNL1       -0.2442
     12 C          -5.4271  -15.4534   24.0599 C.2     1  UNL1        0.0985
     13 C          -6.8145  -15.0423   24.4550 C.2     1  UNL1        0.0182
     14 C          -7.7736  -16.0514   23.8966 C.2     1  UNL1        0.0011
     15 C          -9.2679  -16.1618   23.9664 C.3     1  UNL1        0.0499
     16 C         -11.4311  -16.4010   22.2633 C.3     1  UNL1        0.0051
     17 C         -12.1294  -16.6811   20.9656 C.3     1  UNL1        0.0004
     18 C         -10.9329  -18.5501   19.6145 C.3     1  UNL1        0.0000
     19 C         -11.3388  -17.1141   19.7667 C.3     1  UNL1        0.0000
@<TRIPOS>BOND
     1    18    19    1
     2    19    17    1
     3    17    16    1
     4    16     1    1
     5     1     7    1
     6     7     8    2
     7     8     9    1
     8     9    10    2
     9    10    11    1
    10    11    12    2
    11    12    13    1
    12    13    14    2
    13    14    15    1
    14     1     2    1
    15     2     3    1
    16     3     4    1
    17     4     5    1
    18     5     1    1
    19    15     7    1
    20    14    10    1
    21     4     6    1
@<TRIPOS>MOLECULE
*****
 19 21 0 0 0
SMALL
GASTEIGER

@<TRIPOS>ATOM
      1 C          -9.9861  -19.0331   21.3824 C.3     1  UNL1        0.0313
      2 C         -10.5295  -19.4845   20.0592 C.3     1  UNL1        0.0222
      3 C          -9.3822  -19.5906   19.0988 C.3     1  UNL1        0.0689
      4 N          -8.1297  -19.2047   19.8284 N.3     1  UNL1       -0.2972
      5 C          -8.5028  -18.8602   21.2397 C.3     1  UNL1        0.0723
      6 H          -7.7009  -18.3970   19.3767 H       1  UNL1        0.1233
      7 C          -9.7419  -18.5989   22.7973 C.2     1  UNL1       -0.0390
      8 C         -10.1324  -19.4951   23.9349 C.2     1  UNL1       -0.0066
      9 C          -9.8882  -19.0609   25.3498 C.2     1  UNL1        0.0182
     10 C          -9.2536  -17.7304   25.6270 C.2     1  UNL1        0.0777
     11 N          -8.8917  -17.0383   26.9077 N.2     1  UNL1       -0.2442
     12 C          -8.2776  -15.7143   26.5615 C.2     1  UNL1        0.0985
     13 C          -8.2599  -15.5881   25.0669 C.2     1  UNL1        0.0182
     14 C          -8.8631  -16.8341   24.4894 C.2     1  UNL1        0.0011
     15 C          -9.1073  -17.2684   23.0745 C.3     1  UNL1        0.0499
     16 C         -11.4181  -19.1152   21.8209 C.3     1  UNL1        0.0051
     17 C         -12.3511  -17.9715   21.5535 C.3     1  UNL1        0.0004
     18 C         -13.6056  -17.9380   23.8284 C.3     1  UNL1        0.0000
     19 C         -12.9460  -17.2055   22.6977 C.3     1  UNL1        0.0000
@<TRIPOS>BOND
     1    18    19    1
     2    19    17    1
     3    17    16    1
     4    16     1    1
     5     1     7    1
     6     7     8    2
     7     8     9    1
     8     9    10    2
     9    10    11    1
    10    11    12    2
    11    12    13    1
    12    13    14    2
    13    14    15    1
    14     1     2    1
    15     2     3    1
    16     3     4    1
    17     4     5    1
    18     5     1    1
    19    15     7    1
    20    14    10    1
    21     4     6    1
@<TRIPOS>MOLECULE
*****
 19 21 0 0 0
SMALL
GASTEIGER

@<TRIPOS>ATOM
      1 C         -11.0208  -17.8841   23.2952 C.3     1  UNL1        0.0313
      2 C         -12.5041  -17.6608   23.2881 C.3     1  UNL1        0.0222
      3 C         -13.0993  -18.4656   24.4052 C.3     1  UNL1        0.0689
      4 N         -11.9839  -19.1863   25.1027 N.3     1  UNL1       -0.2972
      5 C         -10.6994  -18.8270   24.4167 C.3     1  UNL1        0.0723
      6 H         -12.1354  -20.1936   25.0484 H       1  UNL1        0.1233
      7 C          -9.5400  -17.9116   23.0574 C.2     1  UNL1       -0.0390
      8 C          -8.7141  -16.6892   23.3281 C.2     1  UNL1       -0.0066
      9 C          -7.2333  -16.7167   23.0904 C.2     1  UNL1        0.0182
     10 C          -6.5785  -17.9667   22.5819 C.2     1  UNL1        0.0777
     11 N          -5.1506  -18.2904   22.2558 N.2     1  UNL1       -0.2442
     12 C          -5.0941  -19.7130   21.7836 C.2     1  UNL1        0.0985
     13 C          -6.4870  -20.2685   21.8178 C.2     1  UNL1        0.0182
     14 C          -7.4044  -19.1892   22.3112 C.2     1  UNL1        0.0011
     15 C          -8.8852  -19.1617   22.5490 C.3     1  UNL1        0.0499
     16 C         -11.0327  -16.9471   22.1240 C.3     1  UNL1        0.0051
     17 C         -11.9172  -17.2300   20.9461 C.3     1  UNL1        0.0004
     18 C         -10.5605  -18.9465   19.5449 C.3     1  UNL1        0.0000
     19 C         -11.3139  -17.6528   19.6395 C.3     1  UNL1        0.0000
@<TRIPOS>BOND
     1    18    19    1
     2    19    17    1
     3    17    16    1
     4    16     1    1
     5     1     7    1
     6     7     8    2
     7     8     9    1
     8     9    10    2
     9    10    11    1
    10    11    12    2
    11    12    13    1
    12    13    14    2
    13    14    15    1
    14     1     2    1
    15     2     3    1
    16     3     4    1
    17     4     5    1
    18     5     1    1
    19    15     7    1
    20    14    10    1
    21     4     6    1
@<TRIPOS>MOLECULE
*****
 19 21 0 0 0
SMALL
GASTEIGER

@<TRIPOS>ATOM
      1 C         -10.5327  -18.0693   21.7738 C.3     1  UNL1        0.0313
      2 C         -11.9451  -17.8965   22.2484 C.3     1  UNL1        0.0222
      3 C         -12.2145  -16.4265   22.3765 C.3     1  UNL1        0.0689
      4 N         -10.9685  -15.6907   21.9811 N.3     1  UNL1       -0.2972
      5 C          -9.9291  -16.7060   21.6086 C.3     1  UNL1        0.0723
      6 H         -10.6367  -15.1266   22.7634 H       1  UNL1        0.1233
      7 C          -9.1876  -18.5480   21.3137 C.2     1  UNL1       -0.0390
      8 C          -9.0569  -19.2772   20.0095 C.2     1  UNL1       -0.0066
      9 C          -7.7118  -19.7559   19.5494 C.2     1  UNL1        0.0182
     10 C          -6.4975  -19.5053   20.3936 C.2     1  UNL1        0.0777
     11 N          -5.0518  -19.8559   20.2015 N.2     1  UNL1       -0.2442
     12 C          -4.2890  -19.3434   21.3870 C.2     1  UNL1        0.0985
     13 C          -5.2634  -18.6760   22.3119 C.2     1  UNL1        0.0182
     14 C          -6.6283  -18.7761   21.6979 C.2     1  UNL1        0.0011
     15 C          -7.9734  -18.2974   22.1579 C.3     1  UNL1        0.0499
     16 C         -10.8550  -19.5326   21.8428 C.3     1  UNL1        0.0051
     17 C         -11.1737  -20.1689   23.1633 C.3     1  UNL1        0.0004
     18 C          -9.9526  -19.1485   25.2171 C.3     1  UNL1        0.0000
     19 C         -10.1184  -20.2615   24.2253 C.3     1  UNL1        0.0000
@<TRIPOS>BOND
     1    18    19    1
     2    19    17    1
     3    17    16    1
     4    16     1    1
     5     1     7    1
     6     7     8    2
     7     8     9    1
     8     9    10    2
     9    10    11    1
    10    11    12    2
    11    12    13    1
    12    13    14    2
    13    14    15    1
    14     1     2    1
    15     2     3    1
    16     3     4    1
    17     4     5    1
    18     5     1    1
    19    15     7    1
    20    14    10    1
    21     4     6    1
@<TRIPOS>MOLECULE
*****
 19 21 0 0 0
SMALL
GASTEIGER

@<TRIPOS>ATOM
      1 C          -6.5565  -16.5996   23.6142 C.3     1  UNL1        0.0313
      2 C          -5.1755  -16.2146   24.0551 C.3     1  UNL1        0.0222
      3 C          -4.1980  -17.1078   23.3503 C.3     1  UNL1        0.0689
      4 N          -4.9749  -18.0449   22.4738 N.3     1  UNL1       -0.2972
      5 C          -6.4326  -17.7309   22.6369 C.3     1  UNL1        0.0723
      6 H          -4.7953  -19.0093   22.7532 H       1  UNL1        0.1233
      7 C          -8.0278  -16.7551   23.3667 C.2     1  UNL1       -0.0390
      8 C          -8.8934  -17.4285   24.3899 C.2     1  UNL1       -0.0066
      9 C         -10.3647  -17.5839   24.1424 C.2     1  UNL1        0.0182
     10 C         -10.9703  -17.0658   22.8717 C.2     1  UNL1        0.0777
     11 N         -12.3782  -17.0748   22.3542 N.2     1  UNL1       -0.2442
     12 C         -12.3826  -16.4068   21.0112 C.2     1  UNL1        0.0985
     13 C         -10.9775  -15.9850   20.6986 C.2     1  UNL1        0.0182
     14 C         -10.1046  -16.3923   21.8484 C.2     1  UNL1        0.0011
     15 C          -8.6334  -16.2369   22.0960 C.3     1  UNL1        0.0499
     16 C          -6.9880  -15.5010   24.5397 C.3     1  UNL1        0.0051
     17 C          -6.2333  -15.2523   25.8119 C.3     1  UNL1        0.0004
     18 C          -8.3402  -15.2952   27.3315 C.3     1  UNL1        0.0000
     19 C          -6.8750  -15.5488   27.1349 C.3     1  UNL1        0.0000
@<TRIPOS>BOND
     1    18    19    1
     2    19    17    1
     3    17    16    1
     4    16     1    1
     5     1     7    1
     6     7     8    2
     7     8     9    1
     8     9    10    2
     9    10    11    1
    10    11    12    2
    11    12    13    1
    12    13    14    2
    13    14    15    1
    14     1     2    1
    15     2     3    1
    16     3     4    1
    17     4     5    1
    18     5     1    1
    19    15     7    1
    20    14    10    1
    21     4     6    1
@<TRIPOS>MOLECULE
*****
 19 21 0 0 0
SMALL
GASTEIGER

@<TRIPOS>ATOM
      1 C          -9.9422  -17.4035   21.6253 C.3     1  UNL1        0.0313
      2 C         -10.6349  -18.2518   20.6004 C.3     1  UNL1        0.0222
      3 C         -11.4368  -17.3456   19.7140 C.3     1  UNL1        0.0689
      4 N         -11.2397  -15.9372   20.1910 N.3     1  UNL1       -0.2972
      5 C         -10.3160  -15.9729   21.3723 C.3     1  UNL1        0.0723
      6 H         -12.1365  -15.5358   20.4649 H       1  UNL1        0.1233
      7 C          -9.1361  -16.8290   22.7524 C.2     1  UNL1       -0.0390
      8 C          -9.8276  -16.2712   23.9609 C.2     1  UNL1       -0.0066
      9 C          -9.0215  -15.6967   25.0880 C.2     1  UNL1        0.0182
     10 C          -7.5238  -15.6800   25.0064 C.2     1  UNL1        0.0777
     11 N          -6.4725  -15.1831   25.9539 N.2     1  UNL1       -0.2442
     12 C          -5.1313  -15.4337   25.3309 C.2     1  UNL1        0.0985
     13 C          -5.3536  -16.0856   23.9984 C.2     1  UNL1        0.0182
     14 C          -6.8323  -16.2378   23.7978 C.2     1  UNL1        0.0011
     15 C          -7.6384  -16.8123   22.6708 C.3     1  UNL1        0.0499
     16 C          -9.3999  -18.7138   22.1140 C.3     1  UNL1        0.0051
     17 C         -10.3311  -19.8603   22.3752 C.3     1  UNL1        0.0004
     18 C          -9.9488  -19.7585   24.9430 C.3     1  UNL1        0.0000
     19 C         -10.8039  -20.1396   23.7710 C.3     1  UNL1        0.0000
@<TRIPOS>BOND
     1    18    19    1
     2    19    17    1
     3    17    16    1
     4    16     1    1
     5     1     7    1
     6     7     8    2
     7     8     9    1
     8     9    10    2
     9    10    11    1
    10    11    12    2
    11    12    13    1
    12    13    14    2
    13    14    15    1
    14     1     2    1
    15     2     3    1
    16     3     4    1
    17     4     5    1
    18     5     1    1
    19    15     7    1
    20    14    10    1
    21     4     6    1
@<TRIPOS>MOLECULE
*****
 19 21 0 0 0
SMALL
GASTEIGER

@<TRIPOS>ATOM
      1 C          -8.4291  -18.0960   22.8027 C.3     1  UNL1        0.0313
      2 C          -9.7651  -17.8027   23.4184 C.3     1  UNL1        0.0222
      3 C          -9.7943  -16.3503   23.7922 C.3     1  UNL1        0.0689
      4 N          -8.4764  -15.7460   23.4074 N.3     1  UNL1       -0.2972
      5 C          -7.6327  -16.8249   22.7959 C.3     1  UNL1        0.0723
      6 H          -8.0127  -15.3712   24.2350 H       1  UNL1        0.1233
      7 C          -7.2061  -18.6806   22.1603 C.2     1  UNL1       -0.0390
      8 C          -7.3452  -19.6233   21.0020 C.2     1  UNL1       -0.0066
      9 C          -6.1222  -20.2079   20.3596 C.2     1  UNL1        0.0182
     10 C          -4.7601  -19.8496   20.8756 C.2     1  UNL1        0.0777
     11 N          -3.3837  -20.2652   20.4482 N.2     1  UNL1       -0.2442
     12 C          -2.3938  -19.5792   21.3424 C.2     1  UNL1        0.0985
     13 C          -3.1585  -18.7396   22.3225 C.2     1  UNL1        0.0182
     14 C          -4.6210  -18.9068   22.0339 C.2     1  UNL1        0.0011
     15 C          -5.8440  -18.3223   22.6762 C.3     1  UNL1        0.0499
     16 C          -8.9698  -19.4893   22.6751 C.3     1  UNL1        0.0051
     17 C         -10.4486  -19.7122   22.5594 C.3     1  UNL1        0.0004
     18 C         -10.7316  -19.1977   20.0285 C.3     1  UNL1        0.0000
     19 C         -11.0559  -20.0389   21.2273 C.3     1  UNL1        0.0000
@<TRIPOS>BOND
     1    18    19    1
     2    19    17    1
     3    17    16    1
     4    16     1    1
     5     1     7    1
     6     7     8    2
     7     8     9    1
     8     9    10    2
     9    10    11    1
    10    11    12    2
    11    12    13    1
    12    13    14    2
    13    14    15    1
    14     1     2    1
    15     2     3    1
    16     3     4    1
    17     4     5    1
    18     5     1    1
    19    15     7    1
    20    14    10    1
    21     4     6    1
@<TRIPOS>MOLECULE
*****
 19 21 0 0 0
SMALL
GASTEIGER

@<TRIPOS>ATOM
      1 C          -9.8795  -17.4308   21.3974 C.3     1  UNL1        0.0313
      2 C         -10.7632  -17.7608   20.2312 C.3     1  UNL1        0.0222
      3 C         -10.2566  -19.0285   19.6098 C.3     1  UNL1        0.0689
      4 N          -9.0597  -19.4821   20.3920 N.3     1  UNL1       -0.2972
      5 C          -8.8266  -18.4946   21.4967 C.3     1  UNL1        0.0723
      6 H          -8.2423  -19.5197   19.7831 H       1  UNL1        0.1233
      7 C          -9.1854  -16.8532   22.5952 C.2     1  UNL1       -0.0390
      8 C          -8.1724  -15.7609   22.4207 C.2     1  UNL1       -0.0066
      9 C          -7.4783  -15.1833   23.6185 C.2     1  UNL1        0.0182
     10 C          -7.7973  -15.6981   24.9908 C.2     1  UNL1        0.0777
     11 N          -7.2783  -15.3261   26.3481 N.2     1  UNL1       -0.2442
     12 C          -7.9706  -16.1885   27.3614 C.2     1  UNL1        0.0985
     13 C          -8.9175  -17.0936   26.6304 C.2     1  UNL1        0.0182
     14 C          -8.8104  -16.7905   25.1653 C.2     1  UNL1        0.0011
     15 C          -9.5044  -17.3680   23.9674 C.3     1  UNL1        0.0499
     16 C         -10.7871  -16.2463   21.5484 C.3     1  UNL1        0.0051
     17 C         -12.2725  -16.4437   21.6184 C.3     1  UNL1        0.0004
     18 C         -13.2569  -17.9676   23.4782 C.3     1  UNL1        0.0000
     19 C         -12.9466  -16.5986   22.9494 C.3     1  UNL1        0.0000
@<TRIPOS>BOND
     1    18    19    1
     2    19    17    1
     3    17    16    1
     4    16     1    1
     5     1     7    1
     6     7     8    2
     7     8     9    1
     8     9    10    2
     9    10    11    1
    10    11    12    2
    11    12    13    1
    12    13    14    2
    13    14    15    1
    14     1     2    1
    15     2     3    1
    16     3     4    1
    17     4     5    1
    18     5     1    1
    19    15     7    1
    20    14    10    1
    21     4     6    1
