@<TRIPOS>MOLECULE
*****
 39 43 0 0 0
SMALL
GASTEIGER

@<TRIPOS>ATOM
      1 C           2.1088    1.1361   29.3975 C.3     1  UNL1        0.0251
      2 C           1.8657   -0.2144   30.0034 C.3     1  UNL1        0.0217
      3 C           2.9623   -0.9066   30.7572 C.3     1  UNL1        0.0727
      4 N           4.3019   -0.2483   30.9052 N.3     1  UNL1       -0.2689
      5 C           4.5450    1.1022   30.2993 C.3     1  UNL1        0.0727
      6 C           3.4485    1.7944   29.5455 C.3     1  UNL1        0.0217
      7 C          -1.1810    3.2129   27.1361 C.ar    1  UNL1        0.0537
      8 C          -1.0830    1.7163   27.1116 C.ar    1  UNL1        0.0042
      9 C           0.0135    1.0240   27.8654 C.ar    1  UNL1       -0.0041
     10 C           1.0122    1.8284   28.6437 C.ar    1  UNL1       -0.0224
     11 C           0.9142    3.3250   28.6681 C.ar    1  UNL1       -0.0041
     12 C          -0.1824    4.0172   27.9143 C.ar    1  UNL1        0.0042
     13 N          -3.7065    3.7217   26.8000 N.am    1  UNL1       -0.2794
     14 C          -2.2777    3.9051   26.3822 C.2     1  UNL1        0.2495
     15 O          -1.9453    4.7808   25.2105 O.2     1  UNL1       -0.2698
     16 H          -3.9246    3.1470   27.5690 H       1  UNL1        0.1552
     17 N          -4.9467    6.2173   27.9109 N.pl3   1  UNL1       -0.3560
     18 C          -5.4232    5.6617   26.6016 C.ar    1  UNL1        0.0552
     19 C          -6.5198    6.3539   25.8477 C.ar    1  UNL1        0.0153
     20 C          -6.9964    5.7983   24.5385 C.ar    1  UNL1        0.0013
     21 C          -6.3763    4.5505   23.9830 C.ar    1  UNL1        0.0014
     22 C          -5.2797    3.8584   24.7369 C.ar    1  UNL1        0.0159
     23 C          -4.8032    4.4140   26.0462 C.ar    1  UNL1        0.0636
     24 H          -5.3537    7.0363   28.2754 H       1  UNL1        0.1424
     25 H          -4.2269    5.7630   28.4057 H       1  UNL1        0.1424
     26 C           5.3986   -0.9406   31.6590 C.3     1  UNL1        0.0991
     27 C           6.0048   -2.1995   31.1135 C.ar    1  UNL1       -0.0061
     28 C           6.3310   -3.3361   32.0365 C.ar    1  UNL1       -0.0028
     29 C           6.9372   -4.5950   31.4909 C.ar    1  UNL1        0.0042
     30 C           7.2173   -4.7173   30.0223 C.ar    1  UNL1        0.0533
     31 C           6.8911   -3.5808   29.0994 C.ar    1  UNL1        0.0042
     32 C           6.2849   -2.3219   29.6450 C.ar    1  UNL1       -0.0028
     33 C           7.8235   -5.9762   29.4767 C.2     1  UNL1        0.2458
     34 O           8.8128   -6.7491   30.2975 O.2     1  UNL1       -0.2701
     35 N           7.4403   -6.4622   28.1103 N.am    1  UNL1       -0.3025
     36 H           6.7910   -5.9549   27.5716 H       1  UNL1        0.1497
     37 C           8.0465   -7.7211   27.5647 C.3     1  UNL1        0.0720
     38 C           8.8459   -8.4267   26.5097 C.3     1  UNL1        0.0213
     39 C           8.2972   -9.1958   27.6748 C.3     1  UNL1        0.0213
@<TRIPOS>BOND
     1    17    18    1
     2    18    19   ar
     3    19    20   ar
     4    20    21   ar
     5    21    22   ar
     6    22    23   ar
     7    23    13    1
     8    13    14   am
     9    14    15    2
    10    14     7    1
    11     7     8   ar
    12     8     9   ar
    13     9    10   ar
    14    10     1    1
    15     1     2    1
    16     2     3    1
    17     3     4    1
    18     4    26    1
    19    26    27    1
    20    27    28   ar
    21    28    29   ar
    22    29    30   ar
    23    30    33    1
    24    33    34    2
    25    33    35   am
    26    35    37    1
    27    37    38    1
    28    38    39    1
    29    30    31   ar
    30    31    32   ar
    31     4     5    1
    32     5     6    1
    33    10    11   ar
    34    11    12   ar
    35    23    18   ar
    36    12     7   ar
    37     6     1    1
    38    32    27   ar
    39    39    37    1
    40    17    24    1
    41    17    25    1
    42    13    16    1
    43    35    36    1
@<TRIPOS>MOLECULE
*****
 39 43 0 0 0
SMALL
GASTEIGER

@<TRIPOS>ATOM
      1 C           7.1786   -2.1322   29.4036 C.3     1  UNL1        0.0251
      2 C           7.7618   -0.7864   29.7177 C.3     1  UNL1        0.0217
      3 C           7.9869   -0.3809   31.1442 C.3     1  UNL1        0.0727
      4 N           7.6287   -1.3212   32.2566 N.3     1  UNL1       -0.2689
      5 C           7.0454   -2.6670   31.9425 C.3     1  UNL1        0.0727
      6 C           6.8204   -3.0725   30.5160 C.3     1  UNL1        0.0217
      7 C           6.5035   -3.3486   25.1240 C.ar    1  UNL1        0.0537
      8 C           5.8078   -2.1412   25.6793 C.ar    1  UNL1        0.0042
      9 C           6.0328   -1.7358   27.1058 C.ar    1  UNL1       -0.0041
     10 C           6.9535   -2.5376   27.9770 C.ar    1  UNL1       -0.0224
     11 C           7.6493   -3.7450   27.4218 C.ar    1  UNL1       -0.0041
     12 C           7.4243   -4.1504   25.9953 C.ar    1  UNL1        0.0042
     13 N           5.3278   -2.9752   22.8375 N.am    1  UNL1       -0.2794
     14 C           6.2785   -3.7540   23.6975 C.2     1  UNL1        0.2495
     15 O           7.0042   -4.9383   23.1310 O.2     1  UNL1       -0.2698
     16 H           4.8516   -2.1979   23.2093 H       1  UNL1        0.1552
     17 N           6.9339   -1.7040   20.6455 N.pl3   1  UNL1       -0.3560
     18 C           5.9058   -2.7451   20.3149 C.ar    1  UNL1        0.0552
     19 C           5.6808   -3.1505   18.8885 C.ar    1  UNL1        0.0153
     20 C           4.6527   -4.1916   18.5579 C.ar    1  UNL1        0.0013
     21 C           3.8496   -4.8272   19.6539 C.ar    1  UNL1        0.0014
     22 C           4.0747   -4.4217   21.0803 C.ar    1  UNL1        0.0159
     23 C           5.1028   -3.3807   21.4109 C.ar    1  UNL1        0.0636
     24 H           7.4610   -1.2869   19.9262 H       1  UNL1        0.1424
     25 H           7.0816   -1.4379   21.5818 H       1  UNL1        0.1424
     26 C           7.8537   -0.9158   33.6831 C.3     1  UNL1        0.0991
     27 C           6.7108   -0.3974   34.5047 C.ar    1  UNL1       -0.0061
     28 C           5.3974   -0.0858   33.8503 C.ar    1  UNL1       -0.0028
     29 C           4.2545    0.4326   34.6719 C.ar    1  UNL1        0.0042
     30 C           4.4249    0.6394   36.1478 C.ar    1  UNL1        0.0533
     31 C           5.7382    0.3277   36.8021 C.ar    1  UNL1        0.0042
     32 C           6.8811   -0.1906   35.9806 C.ar    1  UNL1       -0.0028
     33 C           3.2819    1.1578   36.9694 C.2     1  UNL1        0.2458
     34 O           2.4011    2.2443   36.4277 O.2     1  UNL1       -0.2701
     35 N           3.0199    0.5895   38.3327 N.am    1  UNL1       -0.3025
     36 H           3.5980   -0.1236   38.6882 H       1  UNL1        0.1497
     37 C           1.8769    1.1079   39.1543 C.3     1  UNL1        0.0720
     38 C           1.0901    2.2605   39.7040 C.3     1  UNL1        0.0213
     39 C           0.6843    0.8532   40.0275 C.3     1  UNL1        0.0213
@<TRIPOS>BOND
     1    17    18    1
     2    18    19   ar
     3    19    20   ar
     4    20    21   ar
     5    21    22   ar
     6    22    23   ar
     7    23    13    1
     8    13    14   am
     9    14    15    2
    10    14     7    1
    11     7     8   ar
    12     8     9   ar
    13     9    10   ar
    14    10     1    1
    15     1     2    1
    16     2     3    1
    17     3     4    1
    18     4    26    1
    19    26    27    1
    20    27    28   ar
    21    28    29   ar
    22    29    30   ar
    23    30    33    1
    24    33    34    2
    25    33    35   am
    26    35    37    1
    27    37    38    1
    28    38    39    1
    29    30    31   ar
    30    31    32   ar
    31     4     5    1
    32     5     6    1
    33    10    11   ar
    34    11    12   ar
    35    23    18   ar
    36    12     7   ar
    37     6     1    1
    38    32    27   ar
    39    39    37    1
    40    17    24    1
    41    17    25    1
    42    13    16    1
    43    35    36    1
@<TRIPOS>MOLECULE
*****
 39 43 0 0 0
SMALL
GASTEIGER

@<TRIPOS>ATOM
      1 C           0.2631    1.6924   20.2628 C.3     1  UNL1        0.0251
      2 C           0.4722    0.2532   20.6302 C.3     1  UNL1        0.0217
      3 C           1.5650   -0.5373   19.9739 C.3     1  UNL1        0.0727
      4 N           2.4487    0.1114   18.9501 N.3     1  UNL1       -0.2689
      5 C           2.2397    1.5506   18.5827 C.3     1  UNL1        0.0727
      6 C           1.1469    2.3411   19.2390 C.3     1  UNL1        0.0217
      7 C          -3.0155    4.0639   22.2318 C.ar    1  UNL1        0.0537
      8 C          -1.8202    3.6317   23.0284 C.ar    1  UNL1        0.0042
      9 C          -0.7273    2.8413   22.3721 C.ar    1  UNL1       -0.0041
     10 C          -0.8298    2.4829   20.9192 C.ar    1  UNL1       -0.0224
     11 C          -2.0251    2.9150   20.1225 C.ar    1  UNL1       -0.0041
     12 C          -3.1179    3.7055   20.7789 C.ar    1  UNL1        0.0042
     13 N          -4.9248    4.2379   23.9852 N.am    1  UNL1       -0.2794
     14 C          -4.1084    4.8544   22.8882 C.2     1  UNL1        0.2495
     15 O          -4.3847    6.2613   22.4475 O.2     1  UNL1       -0.2698
     16 H          -4.7434    3.3145   24.2744 H       1  UNL1        0.1552
     17 N          -7.7496    3.9931   23.0049 N.pl3   1  UNL1       -0.3560
     18 C          -7.4300    4.9060   24.1514 C.ar    1  UNL1        0.0552
     19 C          -8.5228    5.6965   24.8078 C.ar    1  UNL1        0.0153
     20 C          -8.2032    6.6094   25.9543 C.ar    1  UNL1        0.0013
     21 C          -6.7909    6.7319   26.4444 C.ar    1  UNL1        0.0014
     22 C          -5.6981    5.9414   25.7881 C.ar    1  UNL1        0.0159
     23 C          -6.0177    5.0285   24.6416 C.ar    1  UNL1        0.0636
     24 H          -8.6765    3.9128   22.6832 H       1  UNL1        0.1424
     25 H          -7.0323    3.4743   22.5741 H       1  UNL1        0.1424
     26 C           3.5416   -0.6791   18.2937 C.3     1  UNL1        0.0991
     27 C           4.4028   -1.5929   19.1142 C.ar    1  UNL1       -0.0061
     28 C           5.5017   -1.0259   19.9634 C.ar    1  UNL1       -0.0028
     29 C           6.3629   -1.9396   20.7840 C.ar    1  UNL1        0.0042
     30 C           6.1253   -3.4205   20.7553 C.ar    1  UNL1        0.0533
     31 C           5.0265   -3.9875   19.9061 C.ar    1  UNL1        0.0042
     32 C           4.1653   -3.0737   19.0856 C.ar    1  UNL1       -0.0028
     33 C           6.9865   -4.3343   21.5758 C.2     1  UNL1        0.2458
     34 O           8.0056   -5.2071   20.9053 O.2     1  UNL1       -0.2701
     35 N           6.8287   -4.3752   23.0670 N.am    1  UNL1       -0.3025
     36 H           6.1598   -3.8023   23.5071 H       1  UNL1        0.1497
     37 C           7.6899   -5.2890   23.8875 C.3     1  UNL1        0.0720
     38 C           8.1221   -6.6748   24.2653 C.3     1  UNL1        0.0213
     39 C           8.7494   -5.4859   24.9309 C.3     1  UNL1        0.0213
@<TRIPOS>BOND
     1    17    18    1
     2    18    19   ar
     3    19    20   ar
     4    20    21   ar
     5    21    22   ar
     6    22    23   ar
     7    23    13    1
     8    13    14   am
     9    14    15    2
    10    14     7    1
    11     7     8   ar
    12     8     9   ar
    13     9    10   ar
    14    10     1    1
    15     1     2    1
    16     2     3    1
    17     3     4    1
    18     4    26    1
    19    26    27    1
    20    27    28   ar
    21    28    29   ar
    22    29    30   ar
    23    30    33    1
    24    33    34    2
    25    33    35   am
    26    35    37    1
    27    37    38    1
    28    38    39    1
    29    30    31   ar
    30    31    32   ar
    31     4     5    1
    32     5     6    1
    33    10    11   ar
    34    11    12   ar
    35    23    18   ar
    36    12     7   ar
    37     6     1    1
    38    32    27   ar
    39    39    37    1
    40    17    24    1
    41    17    25    1
    42    13    16    1
    43    35    36    1
@<TRIPOS>MOLECULE
*****
 39 43 0 0 0
SMALL
GASTEIGER

@<TRIPOS>ATOM
      1 C           1.2278    1.0484   27.4544 C.3     1  UNL1        0.0251
      2 C           0.8067    0.2258   28.6359 C.3     1  UNL1        0.0217
      3 C           1.8392   -0.4760   29.4673 C.3     1  UNL1        0.0727
      4 N           3.2927   -0.3553   29.1172 N.3     1  UNL1       -0.2689
      5 C           3.7138    0.4673   27.9356 C.3     1  UNL1        0.0727
      6 C           2.6813    1.1691   27.1042 C.3     1  UNL1        0.0217
      7 C          -1.8699    3.1541   24.9603 C.ar    1  UNL1        0.0537
      8 C          -0.7414    2.4234   24.2950 C.ar    1  UNL1        0.0042
      9 C           0.2911    1.7216   25.1263 C.ar    1  UNL1       -0.0041
     10 C           0.1952    1.7503   26.6229 C.ar    1  UNL1       -0.0224
     11 C          -0.9333    2.4810   27.2882 C.ar    1  UNL1       -0.0041
     12 C          -1.9659    3.1829   26.4569 C.ar    1  UNL1        0.0042
     13 N          -4.1960    3.1699   23.8029 N.am    1  UNL1       -0.2794
     14 C          -2.9025    3.8560   24.1289 C.2     1  UNL1        0.2495
     15 O          -2.6416    5.2440   23.6234 O.2     1  UNL1       -0.2698
     16 H          -4.3672    2.2590   24.1347 H       1  UNL1        0.1552
     17 N          -4.3122    2.6981   20.8425 N.pl3   1  UNL1       -0.3560
     18 C          -5.2866    3.6359   21.4914 C.ar    1  UNL1        0.0552
     19 C          -6.3192    4.3378   20.6600 C.ar    1  UNL1        0.0153
     20 C          -7.2936    5.2756   21.3089 C.ar    1  UNL1        0.0013
     21 C          -7.2355    5.5115   22.7890 C.ar    1  UNL1        0.0014
     22 C          -6.2030    4.8097   23.6203 C.ar    1  UNL1        0.0159
     23 C          -5.2285    3.8718   22.9715 C.ar    1  UNL1        0.0636
     24 H          -4.3503    2.5433   19.8710 H       1  UNL1        0.1424
     25 H          -3.6345    2.2374   21.3882 H       1  UNL1        0.1424
     26 C           4.3253   -1.0572   29.9486 C.3     1  UNL1        0.0991
     27 C           4.4404   -0.7556   31.4134 C.ar    1  UNL1       -0.0061
     28 C           4.3660   -1.8686   32.4164 C.ar    1  UNL1       -0.0028
     29 C           4.4810   -1.5670   33.8813 C.ar    1  UNL1        0.0042
     30 C           4.6704   -0.1524   34.3431 C.ar    1  UNL1        0.0533
     31 C           4.7448    0.9604   33.3402 C.ar    1  UNL1        0.0042
     32 C           4.6298    0.6588   31.8753 C.ar    1  UNL1       -0.0028
     33 C           4.7855    0.1492   35.8080 C.2     1  UNL1        0.2458
     34 O           5.7833   -0.5896   36.6497 O.2     1  UNL1       -0.2701
     35 N           3.9027    1.1896   36.4311 N.am    1  UNL1       -0.3025
     36 H           3.2478    1.6745   35.8786 H       1  UNL1        0.1497
     37 C           4.0177    1.4912   37.8960 C.3     1  UNL1        0.0720
     38 C           3.4874    1.3663   39.2935 C.3     1  UNL1        0.0213
     39 C           4.7473    2.1385   39.0356 C.3     1  UNL1        0.0213
@<TRIPOS>BOND
     1    17    18    1
     2    18    19   ar
     3    19    20   ar
     4    20    21   ar
     5    21    22   ar
     6    22    23   ar
     7    23    13    1
     8    13    14   am
     9    14    15    2
    10    14     7    1
    11     7     8   ar
    12     8     9   ar
    13     9    10   ar
    14    10     1    1
    15     1     2    1
    16     2     3    1
    17     3     4    1
    18     4    26    1
    19    26    27    1
    20    27    28   ar
    21    28    29   ar
    22    29    30   ar
    23    30    33    1
    24    33    34    2
    25    33    35   am
    26    35    37    1
    27    37    38    1
    28    38    39    1
    29    30    31   ar
    30    31    32   ar
    31     4     5    1
    32     5     6    1
    33    10    11   ar
    34    11    12   ar
    35    23    18   ar
    36    12     7   ar
    37     6     1    1
    38    32    27   ar
    39    39    37    1
    40    17    24    1
    41    17    25    1
    42    13    16    1
    43    35    36    1
@<TRIPOS>MOLECULE
*****
 39 43 0 0 0
SMALL
GASTEIGER

@<TRIPOS>ATOM
      1 C           7.1667   -3.0103   30.8240 C.3     1  UNL1        0.0251
      2 C           6.6384   -4.3811   30.5207 C.3     1  UNL1        0.0217
      3 C           7.1178   -5.1176   29.3051 C.3     1  UNL1        0.0727
      4 N           8.1255   -4.4833   28.3928 N.3     1  UNL1       -0.2689
      5 C           8.6538   -3.1126   28.6962 C.3     1  UNL1        0.0727
      6 C           8.1744   -2.3761   29.9117 C.3     1  UNL1        0.0217
      7 C           5.7284   -0.8008   34.4709 C.ar    1  UNL1        0.0537
      8 C           4.8119   -1.7524   33.7605 C.ar    1  UNL1        0.0042
      9 C           5.2913   -2.4889   32.5449 C.ar    1  UNL1       -0.0041
     10 C           6.6872   -2.2738   32.0397 C.ar    1  UNL1       -0.0224
     11 C           7.6037   -1.3223   32.7501 C.ar    1  UNL1       -0.0041
     12 C           7.1243   -0.5858   33.9657 C.ar    1  UNL1        0.0042
     13 N           4.1604    0.9601   35.5620 N.am    1  UNL1       -0.2794
     14 C           5.2489   -0.0643   35.6865 C.2     1  UNL1        0.2495
     15 O           5.8581   -0.3523   37.0267 O.2     1  UNL1       -0.2698
     16 H           3.7606    1.1491   34.6824 H       1  UNL1        0.1552
     17 N           5.1280    3.7471   36.1061 N.pl3   1  UNL1       -0.3560
     18 C           4.1647    3.0901   37.0497 C.ar    1  UNL1        0.0552
     19 C           3.6852    3.8265   38.2653 C.ar    1  UNL1        0.0153
     20 C           2.7220    3.1694   39.2089 C.ar    1  UNL1        0.0013
     21 C           2.2382    1.7759   38.9368 C.ar    1  UNL1        0.0014
     22 C           2.7176    1.0395   37.7212 C.ar    1  UNL1        0.0159
     23 C           3.6809    1.6966   36.7777 C.ar    1  UNL1        0.0636
     24 H           5.4455    4.6618   36.2846 H       1  UNL1        0.1424
     25 H           5.4427    3.2638   35.3082 H       1  UNL1        0.1424
     26 C           8.6050   -5.2198   27.1772 C.3     1  UNL1        0.0991
     27 C           8.0133   -4.9140   25.8331 C.ar    1  UNL1       -0.0061
     28 C           6.7785   -4.0683   25.7321 C.ar    1  UNL1       -0.0028
     29 C           6.1869   -3.7625   24.3881 C.ar    1  UNL1        0.0042
     30 C           6.8301   -4.3024   23.1451 C.ar    1  UNL1        0.0533
     31 C           8.0648   -5.1480   23.2462 C.ar    1  UNL1        0.0042
     32 C           8.6564   -5.4538   24.5902 C.ar    1  UNL1       -0.0028
     33 C           6.2384   -3.9966   21.8010 C.2     1  UNL1        0.2458
     34 O           7.1354   -3.6806   20.6411 O.2     1  UNL1       -0.2701
     35 N           4.7497   -4.0068   21.6170 N.am    1  UNL1       -0.3025
     36 H           4.1610   -4.2142   22.3783 H       1  UNL1        0.1497
     37 C           4.1581   -3.7010   20.2729 C.3     1  UNL1        0.0720
     38 C           3.4472   -4.1554   19.0328 C.3     1  UNL1        0.0213
     39 C           3.8443   -2.7170   19.1852 C.3     1  UNL1        0.0213
@<TRIPOS>BOND
     1    17    18    1
     2    18    19   ar
     3    19    20   ar
     4    20    21   ar
     5    21    22   ar
     6    22    23   ar
     7    23    13    1
     8    13    14   am
     9    14    15    2
    10    14     7    1
    11     7     8   ar
    12     8     9   ar
    13     9    10   ar
    14    10     1    1
    15     1     2    1
    16     2     3    1
    17     3     4    1
    18     4    26    1
    19    26    27    1
    20    27    28   ar
    21    28    29   ar
    22    29    30   ar
    23    30    33    1
    24    33    34    2
    25    33    35   am
    26    35    37    1
    27    37    38    1
    28    38    39    1
    29    30    31   ar
    30    31    32   ar
    31     4     5    1
    32     5     6    1
    33    10    11   ar
    34    11    12   ar
    35    23    18   ar
    36    12     7   ar
    37     6     1    1
    38    32    27   ar
    39    39    37    1
    40    17    24    1
    41    17    25    1
    42    13    16    1
    43    35    36    1
@<TRIPOS>MOLECULE
*****
 39 43 0 0 0
SMALL
GASTEIGER

@<TRIPOS>ATOM
      1 C           1.4217    1.4196   27.8736 C.3     1  UNL1        0.0251
      2 C           1.0827    0.2600   28.7626 C.3     1  UNL1        0.0217
      3 C           2.1355   -0.3401   29.6467 C.3     1  UNL1        0.0727
      4 N           3.5272    0.2194   29.6416 N.3     1  UNL1       -0.2689
      5 C           3.8662    1.3790   28.7526 C.3     1  UNL1        0.0727
      6 C           2.8134    1.9791   27.8685 C.3     1  UNL1        0.0217
      7 C          -1.7367    3.2200   25.2216 C.ar    1  UNL1        0.0537
      8 C          -0.5832    2.4766   24.6158 C.ar    1  UNL1        0.0042
      9 C           0.4696    1.8765   25.4998 C.ar    1  UNL1       -0.0041
     10 C           0.3689    2.0198   26.9895 C.ar    1  UNL1       -0.0224
     11 C          -0.7846    2.7631   27.5953 C.ar    1  UNL1       -0.0041
     12 C          -1.8374    3.3632   26.7113 C.ar    1  UNL1        0.0042
     13 N          -3.8237    2.9407   23.6996 N.am    1  UNL1       -0.2794
     14 C          -2.7895    3.8201   24.3375 C.2     1  UNL1        0.2495
     15 O          -2.8081    5.2997   24.0914 O.2     1  UNL1       -0.2698
     16 H          -3.8115    1.9696   23.8611 H       1  UNL1        0.1552
     17 N          -3.6096    2.6752   20.7190 N.pl3   1  UNL1       -0.3560
     18 C          -4.7695    3.4081   21.3253 C.ar    1  UNL1        0.0552
     19 C          -5.8222    4.0082   20.4413 C.ar    1  UNL1        0.0153
     20 C          -6.9821    4.7410   21.0476 C.ar    1  UNL1        0.0013
     21 C          -7.0893    4.8738   22.5379 C.ar    1  UNL1        0.0014
     22 C          -6.0365    4.2737   23.4218 C.ar    1  UNL1        0.0159
     23 C          -4.8766    3.5408   22.8156 C.ar    1  UNL1        0.0636
     24 H          -3.5393    2.5881   19.7409 H       1  UNL1        0.1424
     25 H          -2.9186    2.2813   21.2992 H       1  UNL1        0.1424
     26 C           4.5800   -0.3807   30.5257 C.3     1  UNL1        0.0991
     27 C           5.3320   -1.5983   30.0762 C.ar    1  UNL1       -0.0061
     28 C           5.4391   -1.9164   28.6142 C.ar    1  UNL1       -0.0028
     29 C           6.1911   -3.1340   28.1647 C.ar    1  UNL1        0.0042
     30 C           6.8359   -4.0335   29.1772 C.ar    1  UNL1        0.0533
     31 C           6.7287   -3.7155   30.6391 C.ar    1  UNL1        0.0042
     32 C           5.9767   -2.4979   31.0886 C.ar    1  UNL1       -0.0028
     33 C           7.5878   -5.2511   28.7277 C.2     1  UNL1        0.2458
     34 O           8.9318   -5.5625   29.3166 O.2     1  UNL1       -0.2701
     35 N           6.9958   -6.1573   27.6893 N.am    1  UNL1       -0.3025
     36 H           6.1137   -5.9530   27.3027 H       1  UNL1        0.1497
     37 C           7.7477   -7.3749   27.2398 C.3     1  UNL1        0.0720
     38 C           8.3673   -8.7060   27.5469 C.3     1  UNL1        0.0213
     39 C           8.4304   -8.1528   26.1541 C.3     1  UNL1        0.0213
@<TRIPOS>BOND
     1    17    18    1
     2    18    19   ar
     3    19    20   ar
     4    20    21   ar
     5    21    22   ar
     6    22    23   ar
     7    23    13    1
     8    13    14   am
     9    14    15    2
    10    14     7    1
    11     7     8   ar
    12     8     9   ar
    13     9    10   ar
    14    10     1    1
    15     1     2    1
    16     2     3    1
    17     3     4    1
    18     4    26    1
    19    26    27    1
    20    27    28   ar
    21    28    29   ar
    22    29    30   ar
    23    30    33    1
    24    33    34    2
    25    33    35   am
    26    35    37    1
    27    37    38    1
    28    38    39    1
    29    30    31   ar
    30    31    32   ar
    31     4     5    1
    32     5     6    1
    33    10    11   ar
    34    11    12   ar
    35    23    18   ar
    36    12     7   ar
    37     6     1    1
    38    32    27   ar
    39    39    37    1
    40    17    24    1
    41    17    25    1
    42    13    16    1
    43    35    36    1
@<TRIPOS>MOLECULE
*****
 39 43 0 0 0
SMALL
GASTEIGER

@<TRIPOS>ATOM
      1 C           7.2435   -1.1055   30.0317 C.3     1  UNL1        0.0251
      2 C           7.2032   -2.2764   30.9684 C.3     1  UNL1        0.0217
      3 C           7.5512   -2.0915   32.4156 C.3     1  UNL1        0.0727
      4 N           7.9396   -0.7356   32.9262 N.3     1  UNL1       -0.2689
      5 C           7.9800    0.4353   31.9895 C.3     1  UNL1        0.0727
      6 C           7.6319    0.2503   30.5423 C.3     1  UNL1        0.0217
      7 C           6.1992   -1.6606   25.6899 C.ar    1  UNL1        0.0537
      8 C           7.5897   -1.9533   26.1702 C.ar    1  UNL1        0.0042
      9 C           7.9378   -1.7683   27.6174 C.ar    1  UNL1       -0.0041
     10 C           6.8954   -1.2906   28.5844 C.ar    1  UNL1       -0.0224
     11 C           5.5049   -0.9978   28.1041 C.ar    1  UNL1       -0.0041
     12 C           5.1568   -1.1828   26.6568 C.ar    1  UNL1        0.0042
     13 N           4.5761   -2.5370   23.8603 N.am    1  UNL1       -0.2794
     14 C           5.8511   -1.8456   24.2426 C.2     1  UNL1        0.2495
     15 O           6.7781   -1.3391   23.1776 O.2     1  UNL1       -0.2698
     16 H           3.9677   -2.8694   24.5593 H       1  UNL1        0.1552
     17 N           3.0878   -0.3877   22.3887 N.pl3   1  UNL1       -0.3560
     18 C           3.4839   -1.6474   21.6772 C.ar    1  UNL1        0.0552
     19 C           3.1358   -1.8325   20.2300 C.ar    1  UNL1        0.0153
     20 C           3.5319   -3.0922   19.5185 C.ar    1  UNL1        0.0013
     21 C           4.2760   -4.1668   20.2542 C.ar    1  UNL1        0.0014
     22 C           4.6241   -3.9818   21.7014 C.ar    1  UNL1        0.0159
     23 C           4.2280   -2.7221   22.4129 C.ar    1  UNL1        0.0636
     24 H           2.5994    0.3176   21.9058 H       1  UNL1        0.1424
     25 H           3.3162   -0.2663   23.3386 H       1  UNL1        0.1424
     26 C           8.2877   -0.5506   34.3735 C.3     1  UNL1        0.0991
     27 C           7.2316   -0.1262   35.3506 C.ar    1  UNL1       -0.0061
     28 C           7.6073    0.6824   36.5569 C.ar    1  UNL1       -0.0028
     29 C           6.5512    1.1067   37.5339 C.ar    1  UNL1        0.0042
     30 C           5.1194    0.7224   37.3046 C.ar    1  UNL1        0.0533
     31 C           4.7438   -0.0861   36.0984 C.ar    1  UNL1        0.0042
     32 C           5.7999   -0.5105   35.1214 C.ar    1  UNL1       -0.0028
     33 C           4.0634    1.1468   38.2817 C.2     1  UNL1        0.2458
     34 O           4.4252    2.0242   39.4432 O.2     1  UNL1       -0.2701
     35 N           2.6453    0.6937   38.0972 N.am    1  UNL1       -0.3025
     36 H           2.4078    0.1178   37.3348 H       1  UNL1        0.1497
     37 C           1.5892    1.1180   39.0742 C.3     1  UNL1        0.0720
     38 C           0.5920    2.1325   39.5500 C.3     1  UNL1        0.0213
     39 C           0.7573    0.8386   40.2906 C.3     1  UNL1        0.0213
@<TRIPOS>BOND
     1    17    18    1
     2    18    19   ar
     3    19    20   ar
     4    20    21   ar
     5    21    22   ar
     6    22    23   ar
     7    23    13    1
     8    13    14   am
     9    14    15    2
    10    14     7    1
    11     7     8   ar
    12     8     9   ar
    13     9    10   ar
    14    10     1    1
    15     1     2    1
    16     2     3    1
    17     3     4    1
    18     4    26    1
    19    26    27    1
    20    27    28   ar
    21    28    29   ar
    22    29    30   ar
    23    30    33    1
    24    33    34    2
    25    33    35   am
    26    35    37    1
    27    37    38    1
    28    38    39    1
    29    30    31   ar
    30    31    32   ar
    31     4     5    1
    32     5     6    1
    33    10    11   ar
    34    11    12   ar
    35    23    18   ar
    36    12     7   ar
    37     6     1    1
    38    32    27   ar
    39    39    37    1
    40    17    24    1
    41    17    25    1
    42    13    16    1
    43    35    36    1
@<TRIPOS>MOLECULE
*****
 39 43 0 0 0
SMALL
GASTEIGER

@<TRIPOS>ATOM
      1 C           6.1919   -2.9107   27.5571 C.3     1  UNL1        0.0251
      2 C           6.0572   -1.7267   28.4681 C.3     1  UNL1        0.0217
      3 C           6.2947   -1.8827   29.9409 C.3     1  UNL1        0.0727
      4 N           6.6668   -3.2228   30.5027 N.3     1  UNL1       -0.2689
      5 C           6.8014   -4.4068   29.5917 C.3     1  UNL1        0.0727
      6 C           6.5639   -4.2508   28.1189 C.3     1  UNL1        0.0217
      7 C           5.4795   -2.4426   23.1386 C.ar    1  UNL1        0.0537
      8 C           4.9004   -1.4486   24.1011 C.ar    1  UNL1        0.0042
      9 C           5.1378   -1.6046   25.5739 C.ar    1  UNL1       -0.0041
     10 C           5.9544   -2.7547   26.0842 C.ar    1  UNL1       -0.0224
     11 C           6.5335   -3.7487   25.1217 C.ar    1  UNL1       -0.0041
     12 C           6.2961   -3.5927   23.6489 C.ar    1  UNL1        0.0042
     13 N           5.0422   -0.9207   21.0788 N.am    1  UNL1       -0.2794
     14 C           5.2420   -2.2865   21.6657 C.2     1  UNL1        0.2495
     15 O           5.2044   -3.4964   20.7797 O.2     1  UNL1       -0.2698
     16 H           5.0669   -0.1266   21.6603 H       1  UNL1        0.1552
     17 N           2.2577   -1.1155   19.9794 N.pl3   1  UNL1       -0.3560
     18 C           3.4125   -0.8620   19.0562 C.ar    1  UNL1        0.0552
     19 C           3.1751   -0.7060   17.5834 C.ar    1  UNL1        0.0153
     20 C           4.3299   -0.4525   16.6603 C.ar    1  UNL1        0.0013
     21 C           5.7221   -0.3550   17.2100 C.ar    1  UNL1        0.0014
     22 C           5.9595   -0.5111   18.6828 C.ar    1  UNL1        0.0159
     23 C           4.8047   -0.7646   19.6059 C.ar    1  UNL1        0.0636
     24 H           1.3439   -1.1795   19.6186 H       1  UNL1        0.1424
     25 H           2.4135   -1.2180   20.9460 H       1  UNL1        0.1424
     26 C           6.9042   -3.3789   31.9756 C.3     1  UNL1        0.0991
     27 C           6.3189   -2.3889   32.9387 C.ar    1  UNL1       -0.0061
     28 C           4.8621   -2.4555   33.2898 C.ar    1  UNL1       -0.0028
     29 C           4.2768   -1.4656   34.2529 C.ar    1  UNL1        0.0042
     30 C           5.1484   -0.4091   34.8648 C.ar    1  UNL1        0.0533
     31 C           6.6051   -0.3426   34.5136 C.ar    1  UNL1        0.0042
     32 C           7.1904   -1.3325   33.5506 C.ar    1  UNL1       -0.0028
     33 C           4.5631    0.5808   35.8279 C.2     1  UNL1        0.2458
     34 O           4.5967    2.0463   35.5101 O.2     1  UNL1       -0.2701
     35 N           3.9441    0.1051   37.1088 N.am    1  UNL1       -0.3025
     36 H           3.9220   -0.8568   37.3174 H       1  UNL1        0.1497
     37 C           3.3588    1.0950   38.0719 C.3     1  UNL1        0.0720
     38 C           2.2153    1.5563   38.9261 C.3     1  UNL1        0.0213
     39 C           3.4885    2.3483   38.8857 C.3     1  UNL1        0.0213
@<TRIPOS>BOND
     1    17    18    1
     2    18    19   ar
     3    19    20   ar
     4    20    21   ar
     5    21    22   ar
     6    22    23   ar
     7    23    13    1
     8    13    14   am
     9    14    15    2
    10    14     7    1
    11     7     8   ar
    12     8     9   ar
    13     9    10   ar
    14    10     1    1
    15     1     2    1
    16     2     3    1
    17     3     4    1
    18     4    26    1
    19    26    27    1
    20    27    28   ar
    21    28    29   ar
    22    29    30   ar
    23    30    33    1
    24    33    34    2
    25    33    35   am
    26    35    37    1
    27    37    38    1
    28    38    39    1
    29    30    31   ar
    30    31    32   ar
    31     4     5    1
    32     5     6    1
    33    10    11   ar
    34    11    12   ar
    35    23    18   ar
    36    12     7   ar
    37     6     1    1
    38    32    27   ar
    39    39    37    1
    40    17    24    1
    41    17    25    1
    42    13    16    1
    43    35    36    1
@<TRIPOS>MOLECULE
*****
 39 43 0 0 0
SMALL
GASTEIGER

@<TRIPOS>ATOM
      1 C           1.2040    2.6208   28.1219 C.3     1  UNL1        0.0251
      2 C           1.7406    3.5820   27.1030 C.3     1  UNL1        0.0217
      3 C           1.2938    3.4874   25.6743 C.3     1  UNL1        0.0727
      4 N           0.3105    2.4315   25.2644 N.3     1  UNL1       -0.2689
      5 C          -0.2261    1.4702   26.2832 C.3     1  UNL1        0.0727
      6 C           0.2207    1.5649   27.7120 C.3     1  UNL1        0.0217
      7 C           2.5444    2.9049   32.4082 C.ar    1  UNL1        0.0537
      8 C           1.3137    2.1224   32.0575 C.ar    1  UNL1        0.0042
      9 C           0.8669    2.0276   30.6288 C.ar    1  UNL1       -0.0041
     10 C           1.6508    2.7155   29.5507 C.ar    1  UNL1       -0.0224
     11 C           2.8815    3.4980   29.9013 C.ar    1  UNL1       -0.0041
     12 C           3.3283    3.5927   31.3301 C.ar    1  UNL1        0.0042
     13 N           2.3526    2.1330   34.8815 N.am    1  UNL1       -0.2794
     14 C           2.9912    2.9996   33.8370 C.2     1  UNL1        0.2495
     15 O           4.0767    3.9609   34.2212 O.2     1  UNL1       -0.2698
     16 H           1.6402    1.5020   34.6293 H       1  UNL1        0.1552
     17 N           4.4052    0.2189   35.9414 N.pl3   1  UNL1       -0.3560
     18 C           3.8257    1.2706   36.8402 C.ar    1  UNL1        0.0552
     19 C           4.2724    1.3653   38.2690 C.ar    1  UNL1        0.0153
     20 C           3.6929    2.4171   39.1679 C.ar    1  UNL1        0.0013
     21 C           2.6666    3.3741   38.6380 C.ar    1  UNL1        0.0014
     22 C           2.2199    3.2794   37.2092 C.ar    1  UNL1        0.0159
     23 C           2.7994    2.2276   36.3104 C.ar    1  UNL1        0.0636
     24 H           5.0788   -0.4093   36.2892 H       1  UNL1        0.1424
     25 H           4.1120    0.1567   35.0036 H       1  UNL1        0.1424
     26 C          -0.1363    2.3368   23.8355 C.3     1  UNL1        0.0991
     27 C           0.6175    1.4713   22.8698 C.ar    1  UNL1       -0.0061
     28 C           1.8002    0.6772   23.3397 C.ar    1  UNL1       -0.0028
     29 C           2.5540   -0.1883   22.3740 C.ar    1  UNL1        0.0042
     30 C           2.1252   -0.2598   20.9383 C.ar    1  UNL1        0.0533
     31 C           0.9425    0.5343   20.4685 C.ar    1  UNL1        0.0042
     32 C           0.1887    1.3998   21.4342 C.ar    1  UNL1       -0.0028
     33 C           2.8790   -1.1253   19.9726 C.2     1  UNL1        0.2458
     34 O           3.0447   -0.6899   18.5468 O.2     1  UNL1       -0.2701
     35 N           3.4672   -2.4262   20.4328 N.am    1  UNL1       -0.3025
     36 H           3.3584   -2.7120   21.3686 H       1  UNL1        0.1497
     37 C           4.2210   -3.2917   19.4670 C.3     1  UNL1        0.0720
     38 C           5.2874   -3.4507   18.4243 C.3     1  UNL1        0.0213
     39 C           4.4602   -4.6319   18.8372 C.3     1  UNL1        0.0213
@<TRIPOS>BOND
     1    17    18    1
     2    18    19   ar
     3    19    20   ar
     4    20    21   ar
     5    21    22   ar
     6    22    23   ar
     7    23    13    1
     8    13    14   am
     9    14    15    2
    10    14     7    1
    11     7     8   ar
    12     8     9   ar
    13     9    10   ar
    14    10     1    1
    15     1     2    1
    16     2     3    1
    17     3     4    1
    18     4    26    1
    19    26    27    1
    20    27    28   ar
    21    28    29   ar
    22    29    30   ar
    23    30    33    1
    24    33    34    2
    25    33    35   am
    26    35    37    1
    27    37    38    1
    28    38    39    1
    29    30    31   ar
    30    31    32   ar
    31     4     5    1
    32     5     6    1
    33    10    11   ar
    34    11    12   ar
    35    23    18   ar
    36    12     7   ar
    37     6     1    1
    38    32    27   ar
    39    39    37    1
    40    17    24    1
    41    17    25    1
    42    13    16    1
    43    35    36    1
