@<TRIPOS>MOLECULE
*****
 36 40 0 0 0
SMALL
GASTEIGER

@<TRIPOS>ATOM
      1 C           4.2798   -1.5917   24.8838 C.ar    1  UNL1        0.1614
      2 C           3.7081   -0.8984   26.0848 C.ar    1  UNL1        0.1373
      3 N           4.2633   -1.1814   27.4492 N.ar    1  UNL1       -0.2207
      4 C           5.3903   -2.1577   27.6127 C.ar    1  UNL1        0.1785
      5 N           6.1373   -2.6349   28.8228 N.ar    1  UNL1       -0.2236
      6 C           7.1707   -3.6231   28.3697 C.ar    1  UNL1        0.1066
      7 C           7.0625   -3.7567   26.8796 C.ar    1  UNL1        0.0911
      8 C           5.9621   -2.8510   26.4118 C.ar    1  UNL1        0.0999
      9 N           5.4069   -2.5680   25.0473 N.ar    1  UNL1       -0.3347
     10 H           5.7822   -3.0231   24.2591 H       1  UNL1        0.1675
     11 C           2.5724   -0.2336   21.6736 C.ar    1  UNL1        0.0801
     12 N           2.9163   -0.1072   23.1282 N.ar    1  UNL1       -0.1682
     13 N           3.7246   -1.3087   23.5194 N.ar    1  UNL1       -0.2128
     14 C           3.8803   -2.1776   22.3066 C.ar    1  UNL1        0.0856
     15 C           4.5785   -3.4880   22.0937 C.ar    1  UNL1        0.0192
     16 C           4.5646   -4.1339   20.7400 C.ar    1  UNL1        0.0015
     17 C           3.8525   -3.4694   19.5992 C.ar    1  UNL1        0.0001
     18 C           3.1543   -2.1590   19.8121 C.ar    1  UNL1        0.0027
     19 C           3.1682   -1.5131   21.1659 C.ar    1  UNL1        0.0330
     20 C          -0.6250    3.6903   18.4519 C.3     1  UNL1        0.0896
     21 N           0.1743    2.7094   19.2573 N.3     1  UNL1       -0.2715
     22 C           1.5547    2.3240   18.8147 C.3     1  UNL1        0.0725
     23 C           2.3541    1.3430   19.6202 C.3     1  UNL1        0.0233
     24 C           1.7731    0.7474   20.8682 C.3     1  UNL1        0.0448
     25 C           0.3926    1.1328   21.3108 C.3     1  UNL1        0.0233
     26 C          -0.4068    2.1138   20.5053 C.3     1  UNL1        0.0725
     27 C           7.9064   -4.6407   26.0100 C.2     1  UNL1        0.2488
     28 O           9.4005   -4.6166   26.1417 O.2     1  UNL1       -0.2700
     29 N           7.2564   -5.5489   25.0087 N.am    1  UNL1       -0.3015
     30 H           6.2759   -5.5648   24.9222 H       1  UNL1        0.1497
     31 C           8.1004   -6.4329   24.1391 C.3     1  UNL1        0.0841
     32 C           7.9871   -7.5354   25.1499 C.3     1  UNL1        0.0222
     33 C           8.2138   -5.3305   23.1283 C.3     1  UNL1        0.0222
     34 C           8.9444   -7.3170   23.2696 C.3     1  UNL1        0.1549
     35 O           8.7140   -7.3521   21.7878 O.3     1  UNL1       -0.3803
     36 H           7.8401   -7.7316   21.6054 H       1  UNL1        0.2105
@<TRIPOS>BOND
     1    20    21    1
     2    21    22    1
     3    22    23    1
     4    23    24    1
     5    24    11    1
     6    11    12   ar
     7    12    13   ar
     8    13     1    1
     9     1     2   ar
    10     2     3   ar
    11     3     4   ar
    12     4     5   ar
    13     5     6   ar
    14     6     7   ar
    15     7    27    1
    16    27    28    2
    17    27    29   am
    18    29    31    1
    19    31    32    1
    20    31    33    1
    21    31    34    1
    22    34    35    1
    23     7     8   ar
    24     8     9   ar
    25    13    14   ar
    26    14    15   ar
    27    15    16   ar
    28    16    17   ar
    29    17    18   ar
    30    18    19   ar
    31    24    25    1
    32    25    26    1
    33    26    21    1
    34    19    11   ar
    35     9     1   ar
    36    19    14   ar
    37     8     4    1
    38    29    30    1
    39    35    36    1
    40     9    10    1
@<TRIPOS>MOLECULE
*****
 36 40 0 0 0
SMALL
GASTEIGER

@<TRIPOS>ATOM
      1 C           5.4920   -3.1068   23.6292 C.ar    1  UNL1        0.1614
      2 C           6.2361   -3.6054   22.4261 C.ar    1  UNL1        0.1373
      3 N           7.2898   -4.6617   22.5805 N.ar    1  UNL1       -0.2207
      4 C           7.5996   -5.2194   23.9381 C.ar    1  UNL1        0.1785
      5 N           8.5781   -6.2597   24.3965 N.ar    1  UNL1       -0.2236
      6 C           8.4389   -6.4040   25.8830 C.ar    1  UNL1        0.1066
      7 C           7.3743   -5.4528   26.3433 C.ar    1  UNL1        0.0911
      8 C           6.8555   -4.7208   25.1413 C.ar    1  UNL1        0.0999
      9 N           5.8018   -3.6645   24.9869 N.ar    1  UNL1       -0.3347
     10 H           5.3134   -3.3372   25.7766 H       1  UNL1        0.1675
     11 C           2.8909   -0.2452   23.9616 C.ar    1  UNL1        0.0801
     12 N           3.9389   -1.1386   24.5561 N.ar    1  UNL1       -0.1682
     13 N           4.4383   -2.0505   23.4749 N.ar    1  UNL1       -0.2128
     14 C           3.6989   -1.7206   22.2121 C.ar    1  UNL1        0.0856
     15 C           3.7729   -2.2921   20.8272 C.ar    1  UNL1        0.0192
     16 C           2.8906   -1.7478   19.7432 C.ar    1  UNL1        0.0015
     17 C           1.9343   -0.6321   20.0440 C.ar    1  UNL1        0.0001
     18 C           1.8602   -0.0606   21.4289 C.ar    1  UNL1        0.0027
     19 C           2.7425   -0.6049   22.5129 C.ar    1  UNL1        0.0330
     20 C          -0.1707    4.0188   26.8678 C.3     1  UNL1        0.0896
     21 N           0.5947    2.9528   26.1412 N.3     1  UNL1       -0.2715
     22 C           2.0836    2.8596   26.2979 C.3     1  UNL1        0.0725
     23 C           2.8489    1.7936   25.5714 C.3     1  UNL1        0.0233
     24 C           2.1255    0.8208   24.6881 C.3     1  UNL1        0.0448
     25 C           0.6366    0.9140   24.5314 C.3     1  UNL1        0.0233
     26 C          -0.1288    1.9800   25.2580 C.3     1  UNL1        0.0725
     27 C           6.9099   -5.2666   27.7575 C.2     1  UNL1        0.2488
     28 O           5.5044   -5.6260   28.1388 O.2     1  UNL1       -0.2700
     29 N           7.8510   -4.7209   28.7902 N.am    1  UNL1       -0.3015
     30 H           8.7734   -4.4850   28.5399 H       1  UNL1        0.1497
     31 C           7.3866   -4.5346   30.2042 C.3     1  UNL1        0.0841
     32 C           7.7711   -5.9503   30.5170 C.3     1  UNL1        0.0222
     33 C           7.0020   -3.1188   29.8915 C.3     1  UNL1        0.0222
     34 C           6.9221   -4.3484   31.6184 C.3     1  UNL1        0.1549
     35 O           6.5085   -5.5370   32.4346 O.3     1  UNL1       -0.3803
     36 H           5.7087   -5.9298   32.0515 H       1  UNL1        0.2105
@<TRIPOS>BOND
     1    20    21    1
     2    21    22    1
     3    22    23    1
     4    23    24    1
     5    24    11    1
     6    11    12   ar
     7    12    13   ar
     8    13     1    1
     9     1     2   ar
    10     2     3   ar
    11     3     4   ar
    12     4     5   ar
    13     5     6   ar
    14     6     7   ar
    15     7    27    1
    16    27    28    2
    17    27    29   am
    18    29    31    1
    19    31    32    1
    20    31    33    1
    21    31    34    1
    22    34    35    1
    23     7     8   ar
    24     8     9   ar
    25    13    14   ar
    26    14    15   ar
    27    15    16   ar
    28    16    17   ar
    29    17    18   ar
    30    18    19   ar
    31    24    25    1
    32    25    26    1
    33    26    21    1
    34    19    11   ar
    35     9     1   ar
    36    19    14   ar
    37     8     4    1
    38    29    30    1
    39    35    36    1
    40     9    10    1
@<TRIPOS>MOLECULE
*****
 36 40 0 0 0
SMALL
GASTEIGER

@<TRIPOS>ATOM
      1 C           5.7443   -3.3040   23.6747 C.ar    1  UNL1        0.1614
      2 C           6.4586   -3.8964   22.4963 C.ar    1  UNL1        0.1373
      3 N           7.4529   -5.0010   22.6996 N.ar    1  UNL1       -0.2207
      4 C           7.7328   -5.5133   24.0813 C.ar    1  UNL1        0.1785
      5 N           8.6531   -6.5841   24.5875 N.ar    1  UNL1       -0.2236
      6 C           8.5077   -6.6536   26.0787 C.ar    1  UNL1        0.1066
      7 C           7.4974   -5.6256   26.4943 C.ar    1  UNL1        0.0911
      8 C           7.0185   -4.9209   25.2598 C.ar    1  UNL1        0.0999
      9 N           6.0243   -3.8163   25.0565 N.ar    1  UNL1       -0.3347
     10 H           5.5555   -3.4275   25.8300 H       1  UNL1        0.1675
     11 C           3.2630   -0.5976   22.4165 C.ar    1  UNL1        0.0801
     12 N           4.2350   -1.7087   22.1509 N.ar    1  UNL1       -0.1682
     13 N           4.7501   -2.1994   23.4715 N.ar    1  UNL1       -0.2128
     14 C           4.0964   -1.3915   24.5532 C.ar    1  UNL1        0.0856
     15 C           4.2194   -1.4294   26.0476 C.ar    1  UNL1        0.0192
     16 C           3.4233   -0.4773   26.8900 C.ar    1  UNL1        0.0015
     17 C           2.5041    0.5127   26.2380 C.ar    1  UNL1        0.0001
     18 C           2.3812    0.5506   24.7435 C.ar    1  UNL1        0.0027
     19 C           3.1773   -0.4015   23.9011 C.ar    1  UNL1        0.0330
     20 C           0.2469    2.5163   18.2683 C.3     1  UNL1        0.0896
     21 N           1.0009    1.7379   19.3053 N.3     1  UNL1       -0.2715
     22 C           0.8421    0.2486   19.3877 C.3     1  UNL1        0.0725
     23 C           1.5961   -0.5299   20.4247 C.3     1  UNL1        0.0233
     24 C           2.5089    0.1809   21.3794 C.3     1  UNL1        0.0448
     25 C           2.6678    1.6702   21.2970 C.3     1  UNL1        0.0233
     26 C           1.9137    2.4487   20.2600 C.3     1  UNL1        0.0725
     27 C           7.0454   -5.3507   27.8979 C.2     1  UNL1        0.2488
     28 O           5.6153   -5.5854   28.2848 O.2     1  UNL1       -0.2700
     29 N           8.0235   -4.8412   28.9146 N.am    1  UNL1       -0.3015
     30 H           8.9621   -4.6872   28.6607 H       1  UNL1        0.1497
     31 C           7.5714   -4.5663   30.3182 C.3     1  UNL1        0.0841
     32 C           7.2372   -3.1553   29.9342 C.3     1  UNL1        0.0222
     33 C           7.9056   -5.9773   30.7022 C.3     1  UNL1        0.0222
     34 C           7.1193   -4.2914   31.7218 C.3     1  UNL1        0.1549
     35 O           6.4252   -5.3626   32.5096 O.3     1  UNL1       -0.3803
     36 H           5.5691   -5.5622   32.0994 H       1  UNL1        0.2105
@<TRIPOS>BOND
     1    20    21    1
     2    21    22    1
     3    22    23    1
     4    23    24    1
     5    24    11    1
     6    11    12   ar
     7    12    13   ar
     8    13     1    1
     9     1     2   ar
    10     2     3   ar
    11     3     4   ar
    12     4     5   ar
    13     5     6   ar
    14     6     7   ar
    15     7    27    1
    16    27    28    2
    17    27    29   am
    18    29    31    1
    19    31    32    1
    20    31    33    1
    21    31    34    1
    22    34    35    1
    23     7     8   ar
    24     8     9   ar
    25    13    14   ar
    26    14    15   ar
    27    15    16   ar
    28    16    17   ar
    29    17    18   ar
    30    18    19   ar
    31    24    25    1
    32    25    26    1
    33    26    21    1
    34    19    11   ar
    35     9     1   ar
    36    19    14   ar
    37     8     4    1
    38    29    30    1
    39    35    36    1
    40     9    10    1
@<TRIPOS>MOLECULE
*****
 36 40 0 0 0
SMALL
GASTEIGER

@<TRIPOS>ATOM
      1 C           3.1920    3.2974   33.2193 C.ar    1  UNL1        0.1614
      2 C           3.2776    4.6130   32.5042 C.ar    1  UNL1        0.1373
      3 N           3.1523    5.8945   33.2736 N.ar    1  UNL1       -0.2207
      4 C           2.9415    5.8604   34.7583 C.ar    1  UNL1        0.1785
      5 N           2.7834    6.9518   35.7751 N.ar    1  UNL1       -0.2236
      6 C           2.6000    6.3107   37.1187 C.ar    1  UNL1        0.1066
      7 C           2.6448    4.8229   36.9323 C.ar    1  UNL1        0.0911
      8 C           2.8558    4.5446   35.4736 C.ar    1  UNL1        0.0999
      9 N           2.9811    3.2631   34.7041 N.ar    1  UNL1       -0.3347
     10 H           2.9249    2.3996   35.1735 H       1  UNL1        0.1675
     11 C           4.1439   -0.1150   31.6335 C.ar    1  UNL1        0.0801
     12 N           4.4167    1.0056   32.5926 N.ar    1  UNL1       -0.1682
     13 N           3.3172    2.0158   32.4498 N.ar    1  UNL1       -0.2128
     14 C           2.3649    1.5197   31.4025 C.ar    1  UNL1        0.0856
     15 C           1.0985    2.0969   30.8431 C.ar    1  UNL1        0.0192
     16 C           0.3431    1.3572   29.7791 C.ar    1  UNL1        0.0015
     17 C           0.8540    0.0402   29.2746 C.ar    1  UNL1        0.0001
     18 C           2.1204   -0.5370   29.8340 C.ar    1  UNL1        0.0027
     19 C           2.8758    0.2027   30.8980 C.ar    1  UNL1        0.0330
     20 C           7.5306   -5.0091   30.8726 C.3     1  UNL1        0.0896
     21 N           6.6839   -3.7856   31.0628 N.3     1  UNL1       -0.2715
     22 C           6.0329   -3.5227   32.3884 C.3     1  UNL1        0.0725
     23 C           5.1862   -2.2991   32.5786 C.3     1  UNL1        0.0233
     24 C           4.9906   -1.3385   31.4433 C.3     1  UNL1        0.0448
     25 C           5.6416   -1.6015   30.1177 C.3     1  UNL1        0.0233
     26 C           6.4883   -2.8250   29.9275 C.3     1  UNL1        0.0725
     27 C           2.5034    3.7941   38.0148 C.2     1  UNL1        0.2488
     28 O           3.2545    3.9532   39.3034 O.2     1  UNL1       -0.2700
     29 N           1.6110    2.6063   37.8086 N.am    1  UNL1       -0.3015
     30 H           1.1181    2.5018   36.9628 H       1  UNL1        0.1497
     31 C           1.4697    1.5776   38.8910 C.3     1  UNL1        0.0841
     32 C           2.7093    0.8905   38.3999 C.3     1  UNL1        0.0222
     33 C           0.2299    2.2646   39.3821 C.3     1  UNL1        0.0222
     34 C           1.3283    0.5487   39.9735 C.3     1  UNL1        0.1549
     35 O           1.2376   -0.9058   39.6184 O.3     1  UNL1       -0.3803
     36 H           0.4150   -1.0690   39.1310 H       1  UNL1        0.2105
@<TRIPOS>BOND
     1    20    21    1
     2    21    22    1
     3    22    23    1
     4    23    24    1
     5    24    11    1
     6    11    12   ar
     7    12    13   ar
     8    13     1    1
     9     1     2   ar
    10     2     3   ar
    11     3     4   ar
    12     4     5   ar
    13     5     6   ar
    14     6     7   ar
    15     7    27    1
    16    27    28    2
    17    27    29   am
    18    29    31    1
    19    31    32    1
    20    31    33    1
    21    31    34    1
    22    34    35    1
    23     7     8   ar
    24     8     9   ar
    25    13    14   ar
    26    14    15   ar
    27    15    16   ar
    28    16    17   ar
    29    17    18   ar
    30    18    19   ar
    31    24    25    1
    32    25    26    1
    33    26    21    1
    34    19    11   ar
    35     9     1   ar
    36    19    14   ar
    37     8     4    1
    38    29    30    1
    39    35    36    1
    40     9    10    1
@<TRIPOS>MOLECULE
*****
 36 40 0 0 0
SMALL
GASTEIGER

@<TRIPOS>ATOM
      1 C          -1.0967    3.5587   17.8161 C.ar    1  UNL1        0.1614
      2 C          -1.3613    4.0573   16.4265 C.ar    1  UNL1        0.1373
      3 N          -2.6879    4.6712   16.0898 N.ar    1  UNL1       -0.2207
      4 C          -3.7499    4.7864   17.1428 C.ar    1  UNL1        0.1785
      5 N          -5.1432    5.3407   17.1067 N.ar    1  UNL1       -0.2236
      6 C          -5.7398    5.1847   18.4741 C.ar    1  UNL1        0.1066
      7 C          -4.7151    4.5339   19.3553 C.ar    1  UNL1        0.0911
      8 C          -3.4853    4.2877   18.5325 C.ar    1  UNL1        0.0999
      9 N          -2.1587    3.6739   18.8692 N.ar    1  UNL1       -0.3347
     10 H          -1.9850    3.3466   19.7813 H       1  UNL1        0.1675
     11 C           1.9937    1.3194   18.5234 C.ar    1  UNL1        0.0801
     12 N           0.5605    1.4823   18.1120 N.ar    1  UNL1       -0.1682
     13 N           0.2299    2.9449   18.1528 N.ar    1  UNL1       -0.2128
     14 C           1.4589    3.6859   18.5894 C.ar    1  UNL1        0.0856
     15 C           1.7261    5.1456   18.8080 C.ar    1  UNL1        0.0192
     16 C           3.0835    5.6007   19.2556 C.ar    1  UNL1        0.0015
     17 C           4.1736    4.5961   19.4846 C.ar    1  UNL1        0.0001
     18 C           3.9063    3.1364   19.2661 C.ar    1  UNL1        0.0027
     19 C           2.5490    2.6813   18.8184 C.ar    1  UNL1        0.0330
     20 C           4.9814   -3.8688   18.9194 C.3     1  UNL1        0.0896
     21 N           4.2345   -2.5717   18.8204 N.3     1  UNL1       -0.2715
     22 C           4.5102   -1.6323   17.6840 C.3     1  UNL1        0.0725
     23 C           3.7632   -0.3353   17.5850 C.3     1  UNL1        0.0233
     24 C           2.7407    0.0224   18.6224 C.3     1  UNL1        0.0448
     25 C           2.4649   -0.9170   19.7589 C.3     1  UNL1        0.0233
     26 C           3.2118   -2.2141   19.8578 C.3     1  UNL1        0.0725
     27 C          -4.8896    4.1897   20.8049 C.2     1  UNL1        0.2488
     28 O          -4.3783    2.8818   21.3320 O.2     1  UNL1       -0.2700
     29 N          -5.5754    5.1535   21.7273 N.am    1  UNL1       -0.3015
     30 H          -5.9109    6.0120   21.3813 H       1  UNL1        0.1497
     31 C          -5.7498    4.8093   23.1767 C.3     1  UNL1        0.0841
     32 C          -7.0922    4.2127   22.8735 C.3     1  UNL1        0.0222
     33 C          -4.4074    5.4059   23.4801 C.3     1  UNL1        0.0222
     34 C          -5.9244    4.4651   24.6263 C.3     1  UNL1        0.1549
     35 O          -5.5287    3.1079   25.1277 O.3     1  UNL1       -0.3803
     36 H          -6.1048    2.4359   24.7308 H       1  UNL1        0.2105
@<TRIPOS>BOND
     1    20    21    1
     2    21    22    1
     3    22    23    1
     4    23    24    1
     5    24    11    1
     6    11    12   ar
     7    12    13   ar
     8    13     1    1
     9     1     2   ar
    10     2     3   ar
    11     3     4   ar
    12     4     5   ar
    13     5     6   ar
    14     6     7   ar
    15     7    27    1
    16    27    28    2
    17    27    29   am
    18    29    31    1
    19    31    32    1
    20    31    33    1
    21    31    34    1
    22    34    35    1
    23     7     8   ar
    24     8     9   ar
    25    13    14   ar
    26    14    15   ar
    27    15    16   ar
    28    16    17   ar
    29    17    18   ar
    30    18    19   ar
    31    24    25    1
    32    25    26    1
    33    26    21    1
    34    19    11   ar
    35     9     1   ar
    36    19    14   ar
    37     8     4    1
    38    29    30    1
    39    35    36    1
    40     9    10    1
@<TRIPOS>MOLECULE
*****
 36 40 0 0 0
SMALL
GASTEIGER

@<TRIPOS>ATOM
      1 C           7.4858   -3.3863   22.5831 C.ar    1  UNL1        0.1614
      2 C           8.8433   -3.5717   21.9727 C.ar    1  UNL1        0.1373
      3 N           9.0674   -3.2400   20.5271 N.ar    1  UNL1       -0.2207
      4 C           7.9339   -2.7229   19.6919 C.ar    1  UNL1        0.1785
      5 N           7.8540   -2.3141   18.2509 N.ar    1  UNL1       -0.2236
      6 C           6.4471   -1.8760   17.9706 C.ar    1  UNL1        0.1066
      7 C           5.6574   -2.0141   19.2384 C.ar    1  UNL1        0.0911
      8 C           6.5763   -2.5375   20.3022 C.ar    1  UNL1        0.0999
      9 N           6.3522   -2.8692   21.7478 N.ar    1  UNL1       -0.3347
     10 H           5.4612   -2.7475   22.1484 H       1  UNL1        0.1675
     11 C           6.7248   -3.5160   26.3869 C.ar    1  UNL1        0.0801
     12 N           6.8193   -2.7601   25.0948 N.ar    1  UNL1       -0.1682
     13 N           7.2617   -3.7180   24.0287 N.ar    1  UNL1       -0.2128
     14 C           7.4407   -5.0660   24.6620 C.ar    1  UNL1        0.0856
     15 C           7.8630   -6.3909   24.0998 C.ar    1  UNL1        0.0192
     16 C           7.9535   -7.5910   24.9951 C.ar    1  UNL1        0.0015
     17 C           7.6217   -7.4661   26.4526 C.ar    1  UNL1        0.0001
     18 C           7.1994   -6.1411   27.0148 C.ar    1  UNL1        0.0027
     19 C           7.1089   -4.9411   26.1195 C.ar    1  UNL1        0.0330
     20 C           5.0967   -1.2390   31.6940 C.3     1  UNL1        0.0896
     21 N           5.5038   -1.8082   30.3673 N.3     1  UNL1       -0.2715
     22 C           4.8840   -1.2860   29.1051 C.3     1  UNL1        0.0725
     23 C           5.2910   -1.8552   27.7784 C.3     1  UNL1        0.0233
     24 C           6.3178   -2.9467   27.7137 C.3     1  UNL1        0.0448
     25 C           6.9376   -3.4690   28.9759 C.3     1  UNL1        0.0233
     26 C           6.5306   -2.8997   30.3027 C.3     1  UNL1        0.0725
     27 C           4.2039   -1.6863   19.4119 C.2     1  UNL1        0.2488
     28 O           3.1874   -2.7881   19.4618 O.2     1  UNL1       -0.2700
     29 N           3.7671   -0.2567   19.5355 N.am    1  UNL1       -0.3015
     30 H           4.4343    0.4665   19.5027 H       1  UNL1        0.1497
     31 C           2.3137    0.0711   19.7090 C.3     1  UNL1        0.0841
     32 C           2.4282   -0.1998   21.1798 C.3     1  UNL1        0.0222
     33 C           2.1991    0.3420   18.2380 C.3     1  UNL1        0.0222
     34 C           0.8602    0.3988   19.8825 C.3     1  UNL1        0.1549
     35 O          -0.0591   -0.5909   20.5348 O.3     1  UNL1       -0.3803
     36 H          -0.1361   -1.3787   19.9743 H       1  UNL1        0.2105
@<TRIPOS>BOND
     1    20    21    1
     2    21    22    1
     3    22    23    1
     4    23    24    1
     5    24    11    1
     6    11    12   ar
     7    12    13   ar
     8    13     1    1
     9     1     2   ar
    10     2     3   ar
    11     3     4   ar
    12     4     5   ar
    13     5     6   ar
    14     6     7   ar
    15     7    27    1
    16    27    28    2
    17    27    29   am
    18    29    31    1
    19    31    32    1
    20    31    33    1
    21    31    34    1
    22    34    35    1
    23     7     8   ar
    24     8     9   ar
    25    13    14   ar
    26    14    15   ar
    27    15    16   ar
    28    16    17   ar
    29    17    18   ar
    30    18    19   ar
    31    24    25    1
    32    25    26    1
    33    26    21    1
    34    19    11   ar
    35     9     1   ar
    36    19    14   ar
    37     8     4    1
    38    29    30    1
    39    35    36    1
    40     9    10    1
@<TRIPOS>MOLECULE
*****
 36 40 0 0 0
SMALL
GASTEIGER

@<TRIPOS>ATOM
      1 C          -0.5046    2.6871   20.7302 C.ar    1  UNL1        0.1614
      2 C           0.3321    2.9121   19.5057 C.ar    1  UNL1        0.1373
      3 N          -0.2860    3.5023   18.2730 N.ar    1  UNL1       -0.2207
      4 C          -1.7409    3.8675   18.2647 C.ar    1  UNL1        0.1785
      5 N          -2.6206    4.4616   17.2050 N.ar    1  UNL1       -0.2236
      6 C          -4.0009    4.6039   17.7744 C.ar    1  UNL1        0.1066
      7 C          -3.9744    4.0976   19.1861 C.ar    1  UNL1        0.0911
      8 C          -2.5776    3.6425   19.4892 C.ar    1  UNL1        0.0999
      9 N          -1.9595    3.0523   20.7219 N.ar    1  UNL1       -0.3347
     10 H          -2.5086    2.9047   21.5255 H       1  UNL1        0.1675
     11 C           0.6435    1.6391   24.2867 C.ar    1  UNL1        0.0801
     12 N          -0.2047    2.4788   23.3781 N.ar    1  UNL1       -0.1682
     13 N           0.1135    2.0969   21.9629 N.ar    1  UNL1       -0.2128
     14 C           1.1584    1.0212   21.9968 C.ar    1  UNL1        0.0856
     15 C           1.8539    0.2629   20.9054 C.ar    1  UNL1        0.0192
     16 C           2.8770   -0.7785   21.2503 C.ar    1  UNL1        0.0015
     17 C           3.2045   -1.0614   22.6865 C.ar    1  UNL1        0.0001
     18 C           2.5090   -0.3031   23.7778 C.ar    1  UNL1        0.0027
     19 C           1.4860    0.7383   23.4330 C.ar    1  UNL1        0.0330
     20 C           0.6630    1.8469   30.2831 C.3     1  UNL1        0.0896
     21 N           0.6581    1.7949   28.7840 N.3     1  UNL1       -0.2715
     22 C           1.8973    2.1503   28.0172 C.3     1  UNL1        0.0725
     23 C           1.8924    2.0984   26.5181 C.3     1  UNL1        0.0233
     24 C           0.6484    1.6910   25.7858 C.3     1  UNL1        0.0448
     25 C          -0.5909    1.3356   26.5526 C.3     1  UNL1        0.0233
     26 C          -0.5860    1.3875   28.0517 C.3     1  UNL1        0.0725
     27 C          -5.1400    4.0541   20.1293 C.2     1  UNL1        0.2488
     28 O          -6.3632    3.2619   19.7738 O.2     1  UNL1       -0.2700
     29 N          -5.0825    4.8028   21.4278 N.am    1  UNL1       -0.3015
     30 H          -4.2797    5.3228   21.6610 H       1  UNL1        0.1497
     31 C          -6.2481    4.7593   22.3708 C.3     1  UNL1        0.0841
     32 C          -5.6343    3.5860   23.0754 C.3     1  UNL1        0.0222
     33 C          -6.8620    5.9326   21.6662 C.3     1  UNL1        0.0222
     34 C          -7.4138    4.7157   23.3139 C.3     1  UNL1        0.1549
     35 O          -8.3978    3.5861   23.2383 O.3     1  UNL1       -0.3803
     36 H          -8.8736    3.6278   22.3941 H       1  UNL1        0.2105
@<TRIPOS>BOND
     1    20    21    1
     2    21    22    1
     3    22    23    1
     4    23    24    1
     5    24    11    1
     6    11    12   ar
     7    12    13   ar
     8    13     1    1
     9     1     2   ar
    10     2     3   ar
    11     3     4   ar
    12     4     5   ar
    13     5     6   ar
    14     6     7   ar
    15     7    27    1
    16    27    28    2
    17    27    29   am
    18    29    31    1
    19    31    32    1
    20    31    33    1
    21    31    34    1
    22    34    35    1
    23     7     8   ar
    24     8     9   ar
    25    13    14   ar
    26    14    15   ar
    27    15    16   ar
    28    16    17   ar
    29    17    18   ar
    30    18    19   ar
    31    24    25    1
    32    25    26    1
    33    26    21    1
    34    19    11   ar
    35     9     1   ar
    36    19    14   ar
    37     8     4    1
    38    29    30    1
    39    35    36    1
    40     9    10    1
@<TRIPOS>MOLECULE
*****
 36 40 0 0 0
SMALL
GASTEIGER

@<TRIPOS>ATOM
      1 C          -0.5428    2.6308   22.4775 C.ar    1  UNL1        0.1614
      2 C          -1.2102    3.5266   21.4766 C.ar    1  UNL1        0.1373
      3 N          -0.8866    3.3939   20.0179 N.ar    1  UNL1       -0.2207
      4 C           0.1046    2.3653   19.5602 C.ar    1  UNL1        0.1785
      5 N           0.6202    2.0044   18.1987 N.ar    1  UNL1       -0.2236
      6 C           1.6065    0.8855   18.3580 C.ar    1  UNL1        0.1066
      7 C           1.7003    0.5549   19.8181 C.ar    1  UNL1        0.0911
      8 C           0.7721    1.4694   20.5611 C.ar    1  UNL1        0.0999
      9 N           0.4485    1.6021   22.0197 N.ar    1  UNL1       -0.3347
     10 H           0.8866    1.0142   22.6767 H       1  UNL1        0.1675
     11 C          -0.6724    2.7375   26.3552 C.ar    1  UNL1        0.0801
     12 N           0.0632    2.4689   25.0759 N.ar    1  UNL1       -0.1682
     13 N          -0.8664    2.7636   23.9361 N.ar    1  UNL1       -0.2128
     14 C          -2.1765    3.2143   24.5111 C.ar    1  UNL1        0.0856
     15 C          -3.4631    3.6373   23.8664 C.ar    1  UNL1        0.0192
     16 C          -4.6297    4.0442   24.7168 C.ar    1  UNL1        0.0015
     17 C          -4.5098    4.0281   26.2119 C.ar    1  UNL1        0.0001
     18 C          -3.2232    3.6051   26.8566 C.ar    1  UNL1        0.0027
     19 C          -2.0566    3.1982   26.0062 C.ar    1  UNL1        0.0330
     20 C           1.5346    2.0840   31.8963 C.3     1  UNL1        0.0896
     21 N           0.9828    2.2474   30.5110 N.3     1  UNL1       -0.2715
     22 C           0.3850    1.0708   29.7982 C.3     1  UNL1        0.0725
     23 C          -0.1667    1.2342   28.4129 C.3     1  UNL1        0.0233
     24 C          -0.1207    2.5741   27.7405 C.3     1  UNL1        0.0448
     25 C           0.4772    3.7508   28.4533 C.3     1  UNL1        0.0233
     26 C           1.0289    3.5874   29.8386 C.3     1  UNL1        0.0725
     27 C           2.5698   -0.5044   20.4282 C.2     1  UNL1        0.2488
     28 O           2.4105   -0.8635   21.8758 O.2     1  UNL1       -0.2700
     29 N           3.5985   -1.2045   19.5905 N.am    1  UNL1       -0.3015
     30 H           3.7030   -0.9688   18.6404 H       1  UNL1        0.1497
     31 C           4.4679   -2.2637   20.2006 C.3     1  UNL1        0.0841
     32 C           5.4002   -1.2049   20.7102 C.3     1  UNL1        0.0222
     33 C           3.5355   -3.3225   19.6910 C.3     1  UNL1        0.0222
     34 C           5.3374   -3.3229   20.8107 C.3     1  UNL1        0.1549
     35 O           5.4609   -4.6640   20.1502 O.3     1  UNL1       -0.3803
     36 H           4.6050   -5.1193   20.1804 H       1  UNL1        0.2105
@<TRIPOS>BOND
     1    20    21    1
     2    21    22    1
     3    22    23    1
     4    23    24    1
     5    24    11    1
     6    11    12   ar
     7    12    13   ar
     8    13     1    1
     9     1     2   ar
    10     2     3   ar
    11     3     4   ar
    12     4     5   ar
    13     5     6   ar
    14     6     7   ar
    15     7    27    1
    16    27    28    2
    17    27    29   am
    18    29    31    1
    19    31    32    1
    20    31    33    1
    21    31    34    1
    22    34    35    1
    23     7     8   ar
    24     8     9   ar
    25    13    14   ar
    26    14    15   ar
    27    15    16   ar
    28    16    17   ar
    29    17    18   ar
    30    18    19   ar
    31    24    25    1
    32    25    26    1
    33    26    21    1
    34    19    11   ar
    35     9     1   ar
    36    19    14   ar
    37     8     4    1
    38    29    30    1
    39    35    36    1
    40     9    10    1
@<TRIPOS>MOLECULE
*****
 36 40 0 0 0
SMALL
GASTEIGER

@<TRIPOS>ATOM
      1 C           4.7113   -1.9823   24.3404 C.ar    1  UNL1        0.1614
      2 C           5.8109   -3.0007   24.4009 C.ar    1  UNL1        0.1373
      3 N           6.4631   -3.3233   25.7126 N.ar    1  UNL1       -0.2207
      4 C           6.0156   -2.6276   26.9639 C.ar    1  UNL1        0.1785
      5 N           6.4677   -2.7374   28.3898 N.ar    1  UNL1       -0.2236
      6 C           5.6476   -1.7869   29.2107 C.ar    1  UNL1        0.1066
      7 C           4.6885   -1.0897   28.2921 C.ar    1  UNL1        0.0911
      8 C           4.9159   -1.6092   26.9034 C.ar    1  UNL1        0.0999
      9 N           4.2638   -1.2866   25.5917 N.ar    1  UNL1       -0.3347
     10 H           3.5420   -0.6182   25.5521 H       1  UNL1        0.1675
     11 C           2.7890   -0.5248   21.2997 C.ar    1  UNL1        0.0801
     12 N           3.2445   -0.4370   22.7262 N.ar    1  UNL1       -0.1682
     13 N           4.0591   -1.6597   23.0287 N.ar    1  UNL1       -0.2128
     14 C           4.1071   -2.5031   21.7892 C.ar    1  UNL1        0.0856
     15 C           4.7641   -3.8191   21.4955 C.ar    1  UNL1        0.0192
     16 C           4.6362   -4.4338   20.1332 C.ar    1  UNL1        0.0015
     17 C           3.8512   -3.7323   19.0646 C.ar    1  UNL1        0.0001
     18 C           3.1942   -2.4163   19.3583 C.ar    1  UNL1        0.0027
     19 C           3.3221   -1.8017   20.7206 C.ar    1  UNL1        0.0330
     20 C          -0.5749    3.5213   18.4164 C.3     1  UNL1        0.0896
     21 N           0.2661    2.5098   19.1372 N.3     1  UNL1       -0.2715
     22 C           1.6277    2.1579   18.6156 C.3     1  UNL1        0.0725
     23 C           2.4687    1.1464   19.3364 C.3     1  UNL1        0.0233
     24 C           1.9481    0.4867   20.5789 C.3     1  UNL1        0.0448
     25 C           0.5864    0.8386   21.1006 C.3     1  UNL1        0.0233
     26 C          -0.2546    1.8502   20.3797 C.3     1  UNL1        0.0725
     27 C           3.6791   -0.0545   28.6919 C.2     1  UNL1        0.2488
     28 O           3.7600    1.3310   28.1228 O.2     1  UNL1       -0.2700
     29 N           2.5890   -0.4049   29.6607 N.am    1  UNL1       -0.3015
     30 H           2.5359   -1.3142   30.0342 H       1  UNL1        0.1497
     31 C           1.5797    0.6302   30.0605 C.3     1  UNL1        0.0841
     32 C           2.4815    1.0805   31.1713 C.3     1  UNL1        0.0222
     33 C           0.6778    0.1800   28.9496 C.3     1  UNL1        0.0222
     34 C           0.5704    1.6654   30.4603 C.3     1  UNL1        0.1549
     35 O           0.0935    1.7387   31.8806 O.3     1  UNL1       -0.3803
     36 H          -0.4044    0.9347   32.0964 H       1  UNL1        0.2105
@<TRIPOS>BOND
     1    20    21    1
     2    21    22    1
     3    22    23    1
     4    23    24    1
     5    24    11    1
     6    11    12   ar
     7    12    13   ar
     8    13     1    1
     9     1     2   ar
    10     2     3   ar
    11     3     4   ar
    12     4     5   ar
    13     5     6   ar
    14     6     7   ar
    15     7    27    1
    16    27    28    2
    17    27    29   am
    18    29    31    1
    19    31    32    1
    20    31    33    1
    21    31    34    1
    22    34    35    1
    23     7     8   ar
    24     8     9   ar
    25    13    14   ar
    26    14    15   ar
    27    15    16   ar
    28    16    17   ar
    29    17    18   ar
    30    18    19   ar
    31    24    25    1
    32    25    26    1
    33    26    21    1
    34    19    11   ar
    35     9     1   ar
    36    19    14   ar
    37     8     4    1
    38    29    30    1
    39    35    36    1
    40     9    10    1
