@<TRIPOS>MOLECULE
*****
 33 35 0 0 0
SMALL
GASTEIGER

@<TRIPOS>ATOM
      1 C           4.5235   -0.8755   19.4312 C.ar    1  UNL1        0.1508
      2 C           4.8573   -1.3654   18.0534 C.ar    1  UNL1        0.0778
      3 CL          3.9558   -1.0350   16.9009 Cl      1  UNL1       -0.0808
      4 C           6.0927   -2.1858   17.8279 C.ar    1  UNL1        0.0142
      5 C           6.9943   -2.5162   18.9803 C.ar    1  UNL1        0.0187
      6 C           6.6604   -2.0263   20.3581 C.ar    1  UNL1        0.0870
      7 C           5.4250   -1.2059   20.5836 C.ar    1  UNL1        0.1650
      8 O           5.0912   -0.7160   21.9615 O.3     1  UNL1       -0.5032
      9 H           5.6544   -0.9224   22.6814 H       1  UNL1        0.2923
     10 N           7.5620   -2.3567   21.5106 N.am    1  UNL1       -0.2656
     11 C           7.2488   -3.5259   22.3965 C.2     1  UNL1        0.3083
     12 O           6.0341   -4.3647   22.1300 O.2     1  UNL1       -0.2521
     13 N           8.1503   -3.8563   23.5489 N.am    1  UNL1       -0.2672
     14 H           8.3592   -1.8062   21.6855 H       1  UNL1        0.1565
     15 H           8.9475   -3.3058   23.7238 H       1  UNL1        0.1564
     16 C           7.8371   -5.0255   24.4349 C.ar    1  UNL1        0.0644
     17 C           8.3356   -6.3938   24.0752 C.ar    1  UNL1        0.0157
     18 C           8.0224   -7.5630   24.9611 C.ar    1  UNL1        0.0036
     19 C           7.2108   -7.3639   26.2068 C.ar    1  UNL1        0.0306
     20 C           6.7123   -5.9956   26.5665 C.ar    1  UNL1        0.1518
     21 F           5.9007   -5.7966   27.8121 F       1  UNL1       -0.2032
     22 C           7.0255   -4.8264   25.6806 C.ar    1  UNL1        0.0985
     23 CL          6.5271   -3.4582   26.0402 Cl      1  UNL1       -0.0786
     24 S           3.2881   -0.0552   19.6567 S.O2    1  UNL1        0.0108
     25 O           4.0333    1.1800   19.2458 O.2     1  UNL1       -0.1686
     26 O           2.5429   -1.2904   20.0676 O.2     1  UNL1       -0.1686
     27 C          -1.6535    3.2262   20.5585 C.3     1  UNL1        0.0896
     28 N          -0.4181    2.4059   20.3331 N.3     1  UNL1       -0.2714
     29 C           0.2391    2.3947   18.9848 C.3     1  UNL1        0.0739
     30 C           1.4745    1.5744   18.7593 C.3     1  UNL1        0.0413
     31 C           2.0527    0.7652   19.8821 C.3     1  UNL1        0.1367
     32 C           1.3955    0.7763   21.2304 C.3     1  UNL1        0.0413
     33 C           0.1601    1.5967   21.4559 C.3     1  UNL1        0.0739
@<TRIPOS>BOND
     1    27    28    1
     2    28    29    1
     3    29    30    1
     4    30    31    1
     5    31    24    1
     6    24    25    2
     7    24    26    2
     8    24     1    1
     9     1     2   ar
    10     2     3    1
    11     2     4   ar
    12     4     5   ar
    13     5     6   ar
    14     6    10    1
    15    10    11   am
    16    11    12    2
    17    11    13   am
    18    13    16    1
    19    16    17   ar
    20    17    18   ar
    21    18    19   ar
    22    19    20   ar
    23    20    21    1
    24    20    22   ar
    25    22    23    1
    26     6     7   ar
    27     7     8    1
    28    31    32    1
    29    32    33    1
    30    33    28    1
    31     7     1   ar
    32    22    16   ar
    33    10    14    1
    34    13    15    1
    35     8     9    1
@<TRIPOS>MOLECULE
*****
 33 35 0 0 0
SMALL
GASTEIGER

@<TRIPOS>ATOM
      1 C           8.3921   -5.9880   25.8335 C.ar    1  UNL1        0.1508
      2 C           8.8675   -7.4033   25.6893 C.ar    1  UNL1        0.0778
      3 CL          8.8885   -8.3127   26.8821 Cl      1  UNL1       -0.0808
      4 C           9.3218   -7.9094   24.3523 C.ar    1  UNL1        0.0142
      5 C           9.3008   -7.0001   23.1595 C.ar    1  UNL1        0.0187
      6 C           8.8254   -5.5848   23.3037 C.ar    1  UNL1        0.0870
      7 C           8.3711   -5.0787   24.6407 C.ar    1  UNL1        0.1650
      8 O           7.8957   -3.6633   24.7848 O.3     1  UNL1       -0.5032
      9 H           7.8826   -3.0953   24.0397 H       1  UNL1        0.2923
     10 N           8.8044   -4.6755   22.1109 N.am    1  UNL1       -0.2656
     11 C           7.5035   -4.1133   21.6193 C.2     1  UNL1        0.3083
     12 O           6.2237   -4.4605   22.3204 O.2     1  UNL1       -0.2521
     13 N           7.4824   -3.2040   20.4265 N.am    1  UNL1       -0.2672
     14 H           9.6444   -4.4476   21.6507 H       1  UNL1        0.1565
     15 H           8.3224   -2.9762   19.9663 H       1  UNL1        0.1564
     16 C           6.1815   -2.6419   19.9349 C.ar    1  UNL1        0.0644
     17 C           5.2449   -3.5029   19.1403 C.ar    1  UNL1        0.0157
     18 C           3.9441   -2.9408   18.6487 C.ar    1  UNL1        0.0036
     19 C           3.5798   -1.5176   18.9516 C.ar    1  UNL1        0.0306
     20 C           4.5164   -0.6565   19.7461 C.ar    1  UNL1        0.1518
     21 F           4.1522    0.7667   20.0490 F       1  UNL1       -0.2032
     22 C           5.8173   -1.2186   20.2378 C.ar    1  UNL1        0.0985
     23 CL          6.7539   -0.3576   21.0323 Cl      1  UNL1       -0.0786
     24 S           7.9378   -5.4819   27.1704 S.O2    1  UNL1        0.0108
     25 O           9.3617   -5.1980   27.5468 O.2     1  UNL1       -0.1686
     26 O           6.5138   -5.7659   26.7940 O.2     1  UNL1       -0.1686
     27 C           6.1204   -3.4576   32.5183 C.3     1  UNL1        0.0896
     28 N           6.5748   -3.9637   31.1813 N.3     1  UNL1       -0.2714
     29 C           6.9690   -5.4017   31.0181 C.3     1  UNL1        0.0739
     30 C           7.4233   -5.9078   29.6812 C.3     1  UNL1        0.0413
     31 C           7.4834   -4.9758   28.5074 C.3     1  UNL1        0.1367
     32 C           7.0892   -3.5378   28.6706 C.3     1  UNL1        0.0413
     33 C           6.6349   -3.0317   30.0075 C.3     1  UNL1        0.0739
@<TRIPOS>BOND
     1    27    28    1
     2    28    29    1
     3    29    30    1
     4    30    31    1
     5    31    24    1
     6    24    25    2
     7    24    26    2
     8    24     1    1
     9     1     2   ar
    10     2     3    1
    11     2     4   ar
    12     4     5   ar
    13     5     6   ar
    14     6    10    1
    15    10    11   am
    16    11    12    2
    17    11    13   am
    18    13    16    1
    19    16    17   ar
    20    17    18   ar
    21    18    19   ar
    22    19    20   ar
    23    20    21    1
    24    20    22   ar
    25    22    23    1
    26     6     7   ar
    27     7     8    1
    28    31    32    1
    29    32    33    1
    30    33    28    1
    31     7     1   ar
    32    22    16   ar
    33    10    14    1
    34    13    15    1
    35     8     9    1
@<TRIPOS>MOLECULE
*****
 33 35 0 0 0
SMALL
GASTEIGER

@<TRIPOS>ATOM
      1 C         -12.3406   -5.9727   18.1003 C.ar    1  UNL1        0.1508
      2 C         -11.0005   -6.5395   17.7358 C.ar    1  UNL1        0.0778
      3 CL        -10.8832   -7.9729   17.3096 Cl      1  UNL1       -0.0808
      4 C          -9.7777   -5.6730   17.7975 C.ar    1  UNL1        0.0142
      5 C          -9.8949   -4.2396   18.2237 C.ar    1  UNL1        0.0187
      6 C         -11.2350   -3.6728   18.5882 C.ar    1  UNL1        0.0870
      7 C         -12.4578   -4.5393   18.5265 C.ar    1  UNL1        0.1650
      8 O         -13.7980   -3.9724   18.8910 O.3     1  UNL1       -0.5032
      9 H         -13.8712   -3.0771   19.1572 H       1  UNL1        0.2923
     10 N         -11.3523   -2.2393   19.0144 N.am    1  UNL1       -0.2656
     11 C         -12.1619   -1.2775   18.1962 C.2     1  UNL1        0.3083
     12 O         -12.8542   -1.7491   16.9518 O.2     1  UNL1       -0.2521
     13 N         -12.2792    0.1559   18.6223 N.am    1  UNL1       -0.2672
     14 H         -10.8980   -1.9299   19.8311 H       1  UNL1        0.1565
     15 H         -11.8249    0.4654   19.4390 H       1  UNL1        0.1564
     16 C         -13.0888    1.1177   17.8041 C.ar    1  UNL1        0.0644
     17 C         -12.4119    2.0031   16.8002 C.ar    1  UNL1        0.0157
     18 C         -13.2215    2.9650   15.9821 C.ar    1  UNL1        0.0036
     19 C         -14.7080    3.0414   16.1678 C.ar    1  UNL1        0.0306
     20 C         -15.3849    2.1560   17.1717 C.ar    1  UNL1        0.1518
     21 F         -16.8714    2.2324   17.3574 F       1  UNL1       -0.2032
     22 C         -14.5754    1.1941   17.9899 C.ar    1  UNL1        0.0985
     23 CL        -15.2522    0.3087   18.9938 Cl      1  UNL1       -0.0786
     24 S         -13.5634   -6.8392   18.0386 S.O2    1  UNL1        0.0108
     25 O         -13.5323   -6.9894   19.5307 O.2     1  UNL1       -0.1686
     26 O         -13.5945   -6.6891   16.5464 O.2     1  UNL1       -0.1686
     27 C         -18.4547  -10.3055   17.7918 C.3     1  UNL1        0.0896
     28 N         -17.2318   -9.4389   17.8535 N.3     1  UNL1       -0.2714
     29 C         -15.9063  -10.0373   18.2205 C.3     1  UNL1        0.0739
     30 C         -14.6835   -9.1708   18.2822 C.3     1  UNL1        0.0413
     31 C         -14.7862   -7.7058   17.9769 C.3     1  UNL1        0.1367
     32 C         -16.1118   -7.1074   17.6099 C.3     1  UNL1        0.0413
     33 C         -17.3346   -7.9739   17.5482 C.3     1  UNL1        0.0739
@<TRIPOS>BOND
     1    27    28    1
     2    28    29    1
     3    29    30    1
     4    30    31    1
     5    31    24    1
     6    24    25    2
     7    24    26    2
     8    24     1    1
     9     1     2   ar
    10     2     3    1
    11     2     4   ar
    12     4     5   ar
    13     5     6   ar
    14     6    10    1
    15    10    11   am
    16    11    12    2
    17    11    13   am
    18    13    16    1
    19    16    17   ar
    20    17    18   ar
    21    18    19   ar
    22    19    20   ar
    23    20    21    1
    24    20    22   ar
    25    22    23    1
    26     6     7   ar
    27     7     8    1
    28    31    32    1
    29    32    33    1
    30    33    28    1
    31     7     1   ar
    32    22    16   ar
    33    10    14    1
    34    13    15    1
    35     8     9    1
@<TRIPOS>MOLECULE
*****
 33 35 0 0 0
SMALL
GASTEIGER

@<TRIPOS>ATOM
      1 C          -2.6320    3.9367   19.4270 C.ar    1  UNL1        0.1508
      2 C          -2.8414    4.1221   17.9533 C.ar    1  UNL1        0.0778
      3 CL         -4.1840    4.5437   17.4338 Cl      1  UNL1       -0.0808
      4 C          -1.7084    3.8859   16.9992 C.ar    1  UNL1        0.0142
      5 C          -0.3659    3.4644   17.5186 C.ar    1  UNL1        0.0187
      6 C          -0.1564    3.2790   18.9923 C.ar    1  UNL1        0.0870
      7 C          -1.2895    3.5152   19.9465 C.ar    1  UNL1        0.1650
      8 O          -1.0799    3.3298   21.4202 O.3     1  UNL1       -0.5032
      9 H          -0.2413    3.0665   21.7447 H       1  UNL1        0.2923
     10 N           1.1862    2.8575   19.5119 N.am    1  UNL1       -0.2656
     11 C           1.7115    1.4860   19.2068 C.2     1  UNL1        0.3083
     12 O           0.8943    0.5361   18.3822 O.2     1  UNL1       -0.2521
     13 N           3.0540    1.0644   19.7263 N.am    1  UNL1       -0.2672
     14 H           1.7225    3.4809   20.0531 H       1  UNL1        0.1565
     15 H           3.5903    1.6878   20.2675 H       1  UNL1        0.1564
     16 C           3.5794   -0.3071   19.4212 C.ar    1  UNL1        0.0644
     17 C           4.1678   -0.6021   18.0734 C.ar    1  UNL1        0.0157
     18 C           4.6932   -1.9736   17.7684 C.ar    1  UNL1        0.0036
     19 C           4.6301   -3.0500   18.8111 C.ar    1  UNL1        0.0306
     20 C           4.0416   -2.7550   20.1590 C.ar    1  UNL1        0.1518
     21 F           3.9786   -3.8314   21.2017 F       1  UNL1       -0.2032
     22 C           3.5163   -1.3835   20.4641 C.ar    1  UNL1        0.0985
     23 CL          2.9278   -1.0884   21.8119 Cl      1  UNL1       -0.0786
     24 S          -3.7650    4.1729   20.3812 S.O2    1  UNL1        0.0108
     25 O          -3.6354    5.6522   20.1689 O.2     1  UNL1       -0.1686
     26 O          -3.8946    2.6937   20.5934 O.2     1  UNL1       -0.1686
     27 C          -8.2972    5.1176   24.1978 C.3     1  UNL1        0.0896
     28 N          -7.1641    4.8814   23.2437 N.3     1  UNL1       -0.2714
     29 C          -5.9820    4.0631   23.6710 C.3     1  UNL1        0.0739
     30 C          -4.8489    3.8269   22.7168 C.3     1  UNL1        0.0413
     31 C          -4.8980    4.4091   21.3353 C.3     1  UNL1        0.1367
     32 C          -6.0802    5.2275   20.9080 C.3     1  UNL1        0.0413
     33 C          -7.2133    5.4636   21.8622 C.3     1  UNL1        0.0739
@<TRIPOS>BOND
     1    27    28    1
     2    28    29    1
     3    29    30    1
     4    30    31    1
     5    31    24    1
     6    24    25    2
     7    24    26    2
     8    24     1    1
     9     1     2   ar
    10     2     3    1
    11     2     4   ar
    12     4     5   ar
    13     5     6   ar
    14     6    10    1
    15    10    11   am
    16    11    12    2
    17    11    13   am
    18    13    16    1
    19    16    17   ar
    20    17    18   ar
    21    18    19   ar
    22    19    20   ar
    23    20    21    1
    24    20    22   ar
    25    22    23    1
    26     6     7   ar
    27     7     8    1
    28    31    32    1
    29    32    33    1
    30    33    28    1
    31     7     1   ar
    32    22    16   ar
    33    10    14    1
    34    13    15    1
    35     8     9    1
@<TRIPOS>MOLECULE
*****
 33 35 0 0 0
SMALL
GASTEIGER

@<TRIPOS>ATOM
      1 C          -0.0914    2.8610   20.1432 C.ar    1  UNL1        0.1508
      2 C           0.6883    3.9824   19.5232 C.ar    1  UNL1        0.0778
      3 CL          0.2453    5.4021   19.7192 Cl      1  UNL1       -0.0808
      4 C           1.9110    3.6842   18.7070 C.ar    1  UNL1        0.0142
      5 C           2.3540    2.2646   18.5109 C.ar    1  UNL1        0.0187
      6 C           1.5743    1.1432   19.1309 C.ar    1  UNL1        0.0870
      7 C           0.3516    1.4414   19.9471 C.ar    1  UNL1        0.1650
      8 O          -0.4281    0.3199   20.5672 O.3     1  UNL1       -0.5032
      9 H          -0.1513   -0.5668   20.4447 H       1  UNL1        0.2923
     10 N           2.0173   -0.2764   18.9349 N.am    1  UNL1       -0.2656
     11 C           3.1243   -0.8396   19.7759 C.2     1  UNL1        0.3083
     12 O           3.7884    0.0169   20.8130 O.2     1  UNL1       -0.2521
     13 N           3.5673   -2.2592   19.5798 N.am    1  UNL1       -0.2672
     14 H           1.5814   -0.8386   18.2542 H       1  UNL1        0.1565
     15 H           3.1315   -2.8213   18.8992 H       1  UNL1        0.1564
     16 C           4.6743   -2.8224   20.4208 C.ar    1  UNL1        0.0644
     17 C           4.4145   -3.1967   21.8499 C.ar    1  UNL1        0.0157
     18 C           5.5215   -3.7598   22.6909 C.ar    1  UNL1        0.0036
     19 C           6.8884   -3.9487   22.1028 C.ar    1  UNL1        0.0306
     20 C           7.1483   -3.5744   20.6737 C.ar    1  UNL1        0.1518
     21 F           8.5152   -3.7633   20.0856 F       1  UNL1       -0.2032
     22 C           6.0413   -3.0112   19.8327 C.ar    1  UNL1        0.0985
     23 CL          6.3011   -2.6369   18.4036 Cl      1  UNL1       -0.0786
     24 S          -1.3140    3.1592   20.9594 S.O2    1  UNL1        0.0108
     25 O          -2.1003    3.3796   19.7011 O.2     1  UNL1       -0.1686
     26 O          -0.5278    2.9388   22.2177 O.2     1  UNL1       -0.1686
     27 C          -6.2047    4.3520   24.2242 C.3     1  UNL1        0.0896
     28 N          -4.9820    4.0538   23.4080 N.3     1  UNL1       -0.2714
     29 C          -5.1232    3.5376   22.0068 C.3     1  UNL1        0.0739
     30 C          -3.9006    3.2394   21.1906 C.3     1  UNL1        0.0413
     31 C          -2.5367    3.4574   21.7756 C.3     1  UNL1        0.1367
     32 C          -2.3955    3.9736   23.1769 C.3     1  UNL1        0.0413
     33 C          -3.6182    4.2718   23.9931 C.3     1  UNL1        0.0739
@<TRIPOS>BOND
     1    27    28    1
     2    28    29    1
     3    29    30    1
     4    30    31    1
     5    31    24    1
     6    24    25    2
     7    24    26    2
     8    24     1    1
     9     1     2   ar
    10     2     3    1
    11     2     4   ar
    12     4     5   ar
    13     5     6   ar
    14     6    10    1
    15    10    11   am
    16    11    12    2
    17    11    13   am
    18    13    16    1
    19    16    17   ar
    20    17    18   ar
    21    18    19   ar
    22    19    20   ar
    23    20    21    1
    24    20    22   ar
    25    22    23    1
    26     6     7   ar
    27     7     8    1
    28    31    32    1
    29    32    33    1
    30    33    28    1
    31     7     1   ar
    32    22    16   ar
    33    10    14    1
    34    13    15    1
    35     8     9    1
@<TRIPOS>MOLECULE
*****
 33 35 0 0 0
SMALL
GASTEIGER

@<TRIPOS>ATOM
      1 C          -3.1199    3.7510   22.8986 C.ar    1  UNL1        0.1508
      2 C          -3.3601    3.4769   24.3536 C.ar    1  UNL1        0.0778
      3 CL         -4.7403    3.6147   24.9249 Cl      1  UNL1       -0.0808
      4 C          -2.2203    3.0651   25.2374 C.ar    1  UNL1        0.0142
      5 C          -0.8402    2.9273   24.6662 C.ar    1  UNL1        0.0187
      6 C          -0.6000    3.2014   23.2112 C.ar    1  UNL1        0.0870
      7 C          -1.7398    3.6132   22.3274 C.ar    1  UNL1        0.1650
      8 O          -1.4995    3.8873   20.8723 O.3     1  UNL1       -0.5032
      9 H          -0.6374    3.8012   20.5154 H       1  UNL1        0.2923
     10 N           0.7802    3.0636   22.6399 N.am    1  UNL1       -0.2656
     11 C           1.1477    1.8403   21.8535 C.2     1  UNL1        0.3083
     12 O           0.1351    0.7547   21.6384 O.2     1  UNL1       -0.2521
     13 N           2.5278    1.7025   21.2822 N.am    1  UNL1       -0.2672
     14 H           1.4448    3.7761   22.7810 H       1  UNL1        0.1565
     15 H           3.1923    2.4150   21.4234 H       1  UNL1        0.1564
     16 C           2.8953    0.4791   20.4958 C.ar    1  UNL1        0.0644
     17 C           3.1581   -0.8167   21.2040 C.ar    1  UNL1        0.0157
     18 C           3.5256   -2.0401   20.4177 C.ar    1  UNL1        0.0036
     19 C           3.6303   -1.9675   18.9231 C.ar    1  UNL1        0.0306
     20 C           3.3675   -0.6716   18.2148 C.ar    1  UNL1        0.1518
     21 F           3.4722   -0.5991   16.7203 F       1  UNL1       -0.2032
     22 C           3.0000    0.5517   19.0012 C.ar    1  UNL1        0.0985
     23 CL          2.7372    1.8476   18.2930 Cl      1  UNL1       -0.0786
     24 S          -4.2598    4.1628   22.0148 S.O2    1  UNL1        0.0108
     25 O          -4.4089    2.7455   21.5467 O.2     1  UNL1       -0.1686
     26 O          -4.1106    5.5801   22.4829 O.2     1  UNL1       -0.1686
     27 C          -8.8192    5.8101   18.4796 C.3     1  UNL1        0.0896
     28 N          -7.6794    5.3983   19.3634 N.3     1  UNL1       -0.2714
     29 C          -6.8774    4.1748   19.0319 C.3     1  UNL1        0.0739
     30 C          -5.7376    3.7630   19.9157 C.3     1  UNL1        0.0413
     31 C          -5.3996    4.5746   21.1310 C.3     1  UNL1        0.1367
     32 C          -6.2016    5.7981   21.4625 C.3     1  UNL1        0.0413
     33 C          -7.3415    6.2099   20.5787 C.3     1  UNL1        0.0739
@<TRIPOS>BOND
     1    27    28    1
     2    28    29    1
     3    29    30    1
     4    30    31    1
     5    31    24    1
     6    24    25    2
     7    24    26    2
     8    24     1    1
     9     1     2   ar
    10     2     3    1
    11     2     4   ar
    12     4     5   ar
    13     5     6   ar
    14     6    10    1
    15    10    11   am
    16    11    12    2
    17    11    13   am
    18    13    16    1
    19    16    17   ar
    20    17    18   ar
    21    18    19   ar
    22    19    20   ar
    23    20    21    1
    24    20    22   ar
    25    22    23    1
    26     6     7   ar
    27     7     8    1
    28    31    32    1
    29    32    33    1
    30    33    28    1
    31     7     1   ar
    32    22    16   ar
    33    10    14    1
    34    13    15    1
    35     8     9    1
@<TRIPOS>MOLECULE
*****
 33 35 0 0 0
SMALL
GASTEIGER

@<TRIPOS>ATOM
      1 C         -12.8025   -4.7918   18.3758 C.ar    1  UNL1        0.1508
      2 C         -11.3357   -4.8592   18.6825 C.ar    1  UNL1        0.0778
      3 CL        -10.7140   -6.1619   19.0908 Cl      1  UNL1       -0.0808
      4 C         -10.4907   -3.6241   18.5809 C.ar    1  UNL1        0.0142
      5 C         -11.1124   -2.3215   18.1727 C.ar    1  UNL1        0.0187
      6 C         -12.5791   -2.2540   17.8660 C.ar    1  UNL1        0.0870
      7 C         -13.4242   -3.4892   17.9676 C.ar    1  UNL1        0.1650
      8 O         -14.8910   -3.4217   17.6609 O.3     1  UNL1       -0.5032
      9 H         -15.2793   -2.6080   17.4059 H       1  UNL1        0.2923
     10 N         -13.2009   -0.9514   17.4577 N.am    1  UNL1       -0.2656
     11 C         -14.2555   -0.3214   18.3185 C.2     1  UNL1        0.3083
     12 O         -14.6884   -0.9940   19.5874 O.2     1  UNL1       -0.2521
     13 N         -14.8772    0.9812   17.9102 N.am    1  UNL1       -0.2672
     14 H         -12.9167   -0.5100   16.6249 H       1  UNL1        0.1565
     15 H         -14.5931    1.4226   17.0774 H       1  UNL1        0.1564
     16 C         -15.9319    1.6112   18.7710 C.ar    1  UNL1        0.0644
     17 C         -15.5534    2.6606   19.7736 C.ar    1  UNL1        0.0157
     18 C         -16.6080    3.2907   20.6343 C.ar    1  UNL1        0.0036
     19 C         -18.0411    2.8712   20.4924 C.ar    1  UNL1        0.0306
     20 C         -18.4197    1.8217   19.4897 C.ar    1  UNL1        0.1518
     21 F         -19.8528    1.4023   19.3478 F       1  UNL1       -0.2032
     22 C         -17.3651    1.1917   18.6290 C.ar    1  UNL1        0.0985
     23 CL        -17.7436    0.1423   17.6263 Cl      1  UNL1       -0.0786
     24 S         -13.6475   -6.0269   18.4774 S.O2    1  UNL1        0.0108
     25 O         -13.5207   -6.2354   16.9974 O.2     1  UNL1       -0.1686
     26 O         -13.7744   -5.8184   19.9574 O.2     1  UNL1       -0.1686
     27 C         -17.0278  -10.9675   18.8838 C.3     1  UNL1        0.0896
     28 N         -16.1827   -9.7323   18.7822 N.3     1  UNL1       -0.2714
     29 C         -14.9729   -9.7222   17.8956 C.3     1  UNL1        0.0739
     30 C         -14.1278   -8.4870   17.7940 C.3     1  UNL1        0.0413
     31 C         -14.4926   -7.2620   18.5790 C.3     1  UNL1        0.1367
     32 C         -15.7024   -7.2722   19.4656 C.3     1  UNL1        0.0413
     33 C         -16.5475   -8.5073   19.5672 C.3     1  UNL1        0.0739
@<TRIPOS>BOND
     1    27    28    1
     2    28    29    1
     3    29    30    1
     4    30    31    1
     5    31    24    1
     6    24    25    2
     7    24    26    2
     8    24     1    1
     9     1     2   ar
    10     2     3    1
    11     2     4   ar
    12     4     5   ar
    13     5     6   ar
    14     6    10    1
    15    10    11   am
    16    11    12    2
    17    11    13   am
    18    13    16    1
    19    16    17   ar
    20    17    18   ar
    21    18    19   ar
    22    19    20   ar
    23    20    21    1
    24    20    22   ar
    25    22    23    1
    26     6     7   ar
    27     7     8    1
    28    31    32    1
    29    32    33    1
    30    33    28    1
    31     7     1   ar
    32    22    16   ar
    33    10    14    1
    34    13    15    1
    35     8     9    1
@<TRIPOS>MOLECULE
*****
 33 35 0 0 0
SMALL
GASTEIGER

@<TRIPOS>ATOM
      1 C          -2.4276    4.0567   19.8171 C.ar    1  UNL1        0.1508
      2 C          -3.2288    4.2628   18.5658 C.ar    1  UNL1        0.0778
      3 CL         -4.6618    4.6969   18.6558 Cl      1  UNL1       -0.0808
      4 C          -2.5970    4.0348   17.2246 C.ar    1  UNL1        0.0142
      5 C          -1.1640    3.6007   17.1347 C.ar    1  UNL1        0.0187
      6 C          -0.3629    3.3946   18.3859 C.ar    1  UNL1        0.0870
      7 C          -0.9947    3.6226   19.7271 C.ar    1  UNL1        0.1650
      8 O          -0.1935    3.4164   20.9784 O.3     1  UNL1       -0.5032
      9 H           0.7017    3.1452   20.9222 H       1  UNL1        0.2923
     10 N           1.0702    2.9605   18.2959 N.am    1  UNL1       -0.2656
     11 C           1.4827    1.6205   18.8292 C.2     1  UNL1        0.3083
     12 O           0.4623    0.7147   19.4523 O.2     1  UNL1       -0.2521
     13 N           2.9157    1.1864   18.7393 N.am    1  UNL1       -0.2672
     14 H           1.7399    3.5550   17.8870 H       1  UNL1        0.1565
     15 H           3.5854    1.7809   18.3303 H       1  UNL1        0.1564
     16 C           3.3283   -0.1536   19.2725 C.ar    1  UNL1        0.0644
     17 C           3.2050   -0.4479   20.7381 C.ar    1  UNL1        0.0157
     18 C           3.6176   -1.7878   21.2713 C.ar    1  UNL1        0.0036
     19 C           4.1534   -2.8335   20.3389 C.ar    1  UNL1        0.0306
     20 C           4.2767   -2.5392   18.8732 C.ar    1  UNL1        0.1518
     21 F           4.8126   -3.5849   17.9408 F       1  UNL1       -0.2032
     22 C           3.8641   -1.1993   18.3400 C.ar    1  UNL1        0.0985
     23 CL          3.9874   -0.9050   16.8743 Cl      1  UNL1       -0.0786
     24 S          -3.0594    4.2846   21.1583 S.O2    1  UNL1        0.0108
     25 O          -2.5158    5.6825   21.1768 O.2     1  UNL1       -0.1686
     26 O          -3.6031    2.8867   21.1398 O.2     1  UNL1       -0.1686
     27 C          -5.5867    5.1965   26.5231 C.3     1  UNL1        0.0896
     28 N          -4.9549    4.9685   25.1819 N.3     1  UNL1       -0.2714
     29 C          -4.0264    5.9961   24.6059 C.3     1  UNL1        0.0739
     30 C          -3.3946    5.7682   23.2646 C.3     1  UNL1        0.0413
     31 C          -3.6913    4.5126   22.4995 C.3     1  UNL1        0.1367
     32 C          -4.6197    3.4850   23.0756 C.3     1  UNL1        0.0413
     33 C          -5.2516    3.7130   24.4168 C.3     1  UNL1        0.0739
@<TRIPOS>BOND
     1    27    28    1
     2    28    29    1
     3    29    30    1
     4    30    31    1
     5    31    24    1
     6    24    25    2
     7    24    26    2
     8    24     1    1
     9     1     2   ar
    10     2     3    1
    11     2     4   ar
    12     4     5   ar
    13     5     6   ar
    14     6    10    1
    15    10    11   am
    16    11    12    2
    17    11    13   am
    18    13    16    1
    19    16    17   ar
    20    17    18   ar
    21    18    19   ar
    22    19    20   ar
    23    20    21    1
    24    20    22   ar
    25    22    23    1
    26     6     7   ar
    27     7     8    1
    28    31    32    1
    29    32    33    1
    30    33    28    1
    31     7     1   ar
    32    22    16   ar
    33    10    14    1
    34    13    15    1
    35     8     9    1
@<TRIPOS>MOLECULE
*****
 33 35 0 0 0
SMALL
GASTEIGER

@<TRIPOS>ATOM
      1 C         -13.3266   -4.4514   18.6108 C.ar    1  UNL1        0.1508
      2 C         -11.8465   -4.3848   18.8450 C.ar    1  UNL1        0.0778
      3 CL        -11.0717   -5.6418   19.1091 Cl      1  UNL1       -0.0808
      4 C         -11.1412   -3.0613   18.8152 C.ar    1  UNL1        0.0142
      5 C         -11.9159   -1.8044   18.5512 C.ar    1  UNL1        0.0187
      6 C         -13.3960   -1.8709   18.3169 C.ar    1  UNL1        0.0870
      7 C         -14.1013   -3.1944   18.3467 C.ar    1  UNL1        0.1650
      8 O         -15.5815   -3.2609   18.1125 O.3     1  UNL1       -0.5032
      9 H         -16.0654   -2.4757   17.9475 H       1  UNL1        0.2923
     10 N         -14.1708   -0.6139   18.0529 N.am    1  UNL1       -0.2656
     11 C         -15.2294   -0.1687   19.0179 C.2     1  UNL1        0.3083
     12 O         -15.5131   -0.9805   20.2470 O.2     1  UNL1       -0.2521
     13 N         -16.0042    1.0882   18.7539 N.am    1  UNL1       -0.2672
     14 H         -13.9846   -0.0811   17.2462 H       1  UNL1        0.1565
     15 H         -15.8180    1.6210   17.9472 H       1  UNL1        0.1564
     16 C         -17.0628    1.5334   19.7189 C.ar    1  UNL1        0.0644
     17 C         -18.3608    0.7867   19.8054 C.ar    1  UNL1        0.0157
     18 C         -19.4193    1.2319   20.7704 C.ar    1  UNL1        0.0036
     19 C         -19.1798    2.4238   21.6490 C.ar    1  UNL1        0.0306
     20 C         -17.8818    3.1706   21.5625 C.ar    1  UNL1        0.1518
     21 F         -17.6423    4.3626   22.4411 F       1  UNL1       -0.2032
     22 C         -16.8232    2.7254   20.5975 C.ar    1  UNL1        0.0985
     23 CL        -15.5252    3.4722   20.5110 Cl      1  UNL1       -0.0786
     24 S         -14.0319   -5.7749   18.6406 S.O2    1  UNL1        0.0108
     25 O         -14.0093   -5.8206   17.1414 O.2     1  UNL1       -0.1686
     26 O         -14.0544   -5.7291   20.1397 O.2     1  UNL1       -0.1686
     27 C         -16.8531  -11.0689   18.7597 C.3     1  UNL1        0.0896
     28 N         -16.1478   -9.7454   18.7299 N.3     1  UNL1       -0.2714
     29 C         -16.7040   -8.5817   19.4958 C.3     1  UNL1        0.0739
     30 C         -15.9987   -7.2582   19.4660 C.3     1  UNL1        0.0413
     31 C         -14.7372   -7.0984   18.6703 C.3     1  UNL1        0.1367
     32 C         -14.1810   -8.2620   17.9045 C.3     1  UNL1        0.0413
     33 C         -14.8864   -9.5855   17.9343 C.3     1  UNL1        0.0739
@<TRIPOS>BOND
     1    27    28    1
     2    28    29    1
     3    29    30    1
     4    30    31    1
     5    31    24    1
     6    24    25    2
     7    24    26    2
     8    24     1    1
     9     1     2   ar
    10     2     3    1
    11     2     4   ar
    12     4     5   ar
    13     5     6   ar
    14     6    10    1
    15    10    11   am
    16    11    12    2
    17    11    13   am
    18    13    16    1
    19    16    17   ar
    20    17    18   ar
    21    18    19   ar
    22    19    20   ar
    23    20    21    1
    24    20    22   ar
    25    22    23    1
    26     6     7   ar
    27     7     8    1
    28    31    32    1
    29    32    33    1
    30    33    28    1
    31     7     1   ar
    32    22    16   ar
    33    10    14    1
    34    13    15    1
    35     8     9    1
