@<TRIPOS>MOLECULE
*****
 27 28 0 0 0
SMALL
GASTEIGER

@<TRIPOS>ATOM
      1 C         -10.5835  -18.0049   21.9082 C.ar    1  UNL1        0.0337
      2 C         -11.2559  -18.4707   23.1654 C.ar    1  UNL1        0.0069
      3 C         -12.6577  -18.0339   23.4724 C.ar    1  UNL1        0.0716
      4 C         -13.3871  -17.1313   22.5220 C.ar    1  UNL1        0.0070
      5 C         -12.7146  -16.6655   21.2647 C.ar    1  UNL1        0.0369
      6 C         -11.3128  -17.1023   20.9578 C.ar    1  UNL1        0.1390
      7 C          -6.3781  -19.3154   20.9874 C.ar    1  UNL1        0.1053
      8 C          -6.6393  -18.3826   22.1327 C.ar    1  UNL1        0.0183
      9 C          -8.0411  -17.9458   22.4396 C.ar    1  UNL1        0.0011
     10 C          -9.1817  -18.4417   21.6012 C.ar    1  UNL1       -0.0010
     11 C          -8.9205  -19.3745   20.4559 C.ar    1  UNL1       -0.0205
     12 C         -10.0612  -19.8704   19.6175 C.3     1  UNL1        0.0311
     13 C          -7.5188  -19.8113   20.1490 C.ar    1  UNL1        0.0141
     14 S          -4.9763  -19.7522   20.6805 S.O2    1  UNL1        0.0086
     15 O          -4.4524  -18.4612   21.2364 O.2     1  UNL1       -0.1686
     16 O          -5.5003  -21.0431   20.1246 O.2     1  UNL1       -0.1686
     17 C          -2.4344  -19.6962   21.2145 C.3     1  UNL1        0.0276
     18 C          -3.5746  -20.1890   20.3736 C.3     1  UNL1        0.1560
     19 C         -13.3301  -18.4998   24.7297 C.3     1  UNL1        0.4186
     20 F         -14.0024  -18.9656   25.9871 F       1  UNL1       -0.1659
     21 F         -14.6400  -17.9710   24.2252 F       1  UNL1       -0.1659
     22 F         -12.0203  -19.0286   25.2342 F       1  UNL1       -0.1659
     23 O         -10.6404  -16.6365   19.7004 O.3     1  UNL1       -0.4694
     24 C         -10.5311  -15.1694   19.4076 C.3     1  UNL1        0.2469
     25 C          -9.3643  -14.3851   19.9306 C.2     1  UNL1        0.0940
     26 O          -8.6497  -14.8395   21.1687 O.co2   1  UNL1       -0.5454
     27 O          -8.9122  -13.1465   19.2156 O.co2   1  UNL1       -0.5454
@<TRIPOS>UNITY_ATOM_ATTR
26 1
charge -1
@<TRIPOS>BOND
     1    17    18    1
     2    18    14    1
     3    14    15    2
     4    14    16    2
     5    14     7    1
     6     7     8   ar
     7     8     9   ar
     8     9    10   ar
     9    10     1    1
    10     1     2   ar
    11     2     3   ar
    12     3    19    1
    13    19    20    1
    14    19    21    1
    15    19    22    1
    16     3     4   ar
    17     4     5   ar
    18     5     6   ar
    19     6    23    1
    20    23    24    1
    21    24    25    1
    22    25    26   ar
    23    25    27   ar
    24    10    11   ar
    25    11    12    1
    26    11    13   ar
    27    13     7   ar
    28     6     1   ar
@<TRIPOS>MOLECULE
*****
 27 28 0 0 0
SMALL
GASTEIGER

@<TRIPOS>ATOM
      1 C          -6.9303  -19.0237   21.9191 C.ar    1  UNL1        0.0337
      2 C          -5.7794  -18.4871   22.7174 C.ar    1  UNL1        0.0069
      3 C          -4.3743  -18.6744   22.2268 C.ar    1  UNL1        0.0716
      4 C          -4.1202  -19.3983   20.9379 C.ar    1  UNL1        0.0070
      5 C          -5.2712  -19.9349   20.1395 C.ar    1  UNL1        0.0369
      6 C          -6.6762  -19.7475   20.6302 C.ar    1  UNL1        0.1390
      7 C         -11.1455  -18.4618   23.3910 C.ar    1  UNL1        0.1053
      8 C         -10.5256  -19.8276   23.3947 C.ar    1  UNL1        0.0183
      9 C          -9.1206  -20.0149   22.9041 C.ar    1  UNL1        0.0011
     10 C          -8.3354  -18.8364   22.4097 C.ar    1  UNL1       -0.0010
     11 C          -8.9553  -17.4705   22.4060 C.ar    1  UNL1       -0.0205
     12 C          -8.1701  -16.2918   21.9116 C.3     1  UNL1        0.0311
     13 C         -10.3604  -17.2832   22.8966 C.ar    1  UNL1        0.0141
     14 S         -12.5506  -18.2745   23.8816 S.O2    1  UNL1        0.0086
     15 O         -12.1705  -18.8788   25.2008 O.2     1  UNL1       -0.1686
     16 O         -12.9307  -17.6701   22.5624 O.2     1  UNL1       -0.1686
     17 C         -14.3228  -18.4931   25.7688 C.3     1  UNL1        0.0276
     18 C         -13.9556  -18.0872   24.3722 C.3     1  UNL1        0.1560
     19 C          -3.2233  -18.1378   23.0252 C.3     1  UNL1        0.4186
     20 F          -2.0724  -17.6012   23.8236 F       1  UNL1       -0.1659
     21 F          -2.2952  -19.0844   22.3234 F       1  UNL1       -0.1659
     22 F          -4.1515  -17.1913   23.7270 F       1  UNL1       -0.1659
     23 O          -7.8272  -20.2842   19.8318 O.3     1  UNL1       -0.4694
     24 C          -8.6848  -19.3497   19.0309 C.3     1  UNL1        0.2469
     25 C         -10.0593  -18.9930   19.5142 C.2     1  UNL1        0.0940
     26 O         -10.5529  -17.5815   19.3963 O.co2   1  UNL1       -0.5454
     27 O         -10.9402  -20.0479   20.1152 O.co2   1  UNL1       -0.5454
@<TRIPOS>UNITY_ATOM_ATTR
26 1
charge -1
@<TRIPOS>BOND
     1    17    18    1
     2    18    14    1
     3    14    15    2
     4    14    16    2
     5    14     7    1
     6     7     8   ar
     7     8     9   ar
     8     9    10   ar
     9    10     1    1
    10     1     2   ar
    11     2     3   ar
    12     3    19    1
    13    19    20    1
    14    19    21    1
    15    19    22    1
    16     3     4   ar
    17     4     5   ar
    18     5     6   ar
    19     6    23    1
    20    23    24    1
    21    24    25    1
    22    25    26   ar
    23    25    27   ar
    24    10    11   ar
    25    11    12    1
    26    11    13   ar
    27    13     7   ar
    28     6     1   ar
@<TRIPOS>MOLECULE
*****
 27 28 0 0 0
SMALL
GASTEIGER

@<TRIPOS>ATOM
      1 C         -10.5131  -17.6629   22.6457 C.ar    1  UNL1        0.0337
      2 C         -11.3301  -18.1361   23.8113 C.ar    1  UNL1        0.0069
      3 C         -12.8266  -18.0461   23.7641 C.ar    1  UNL1        0.0716
      4 C         -13.5062  -17.4829   22.5513 C.ar    1  UNL1        0.0070
      5 C         -12.6893  -17.0097   21.3857 C.ar    1  UNL1        0.0369
      6 C         -11.1927  -17.0997   21.4329 C.ar    1  UNL1        0.1390
      7 C          -6.0235  -17.9328   22.7873 C.ar    1  UNL1        0.1053
      8 C          -6.8057  -18.8870   21.9343 C.ar    1  UNL1        0.0183
      9 C          -8.3022  -18.7970   21.8871 C.ar    1  UNL1        0.0011
     10 C          -9.0166  -17.7529   22.6929 C.ar    1  UNL1       -0.0010
     11 C          -8.2344  -16.7987   23.5460 C.ar    1  UNL1       -0.0205
     12 C          -8.9488  -15.7545   24.3519 C.3     1  UNL1        0.0311
     13 C          -6.7378  -16.8887   23.5932 C.ar    1  UNL1        0.0141
     14 S          -4.5269  -18.0228   22.8346 S.O2    1  UNL1        0.0086
     15 O          -4.4489  -16.5589   23.1520 O.2     1  UNL1       -0.1686
     16 O          -4.6049  -19.4868   22.5172 O.2     1  UNL1       -0.1686
     17 C          -2.2022  -17.3701   21.8756 C.3     1  UNL1        0.0276
     18 C          -3.0304  -18.1128   22.8818 C.3     1  UNL1        0.1560
     19 C         -13.6436  -18.5193   24.9297 C.3     1  UNL1        0.4186
     20 F         -14.4605  -18.9926   26.0953 F       1  UNL1       -0.1659
     21 F         -14.8977  -18.1029   24.2199 F       1  UNL1       -0.1659
     22 F         -12.3895  -18.9358   25.6395 F       1  UNL1       -0.1659
     23 O         -10.3758  -16.6264   20.2672 O.3     1  UNL1       -0.4694
     24 C         -10.3962  -15.1786   19.8756 C.3     1  UNL1        0.2469
     25 C          -9.1649  -14.3386   20.0441 C.2     1  UNL1        0.0940
     26 O          -8.1451  -14.7024   21.0822 O.co2   1  UNL1       -0.5454
     27 O          -8.9533  -13.1350   19.1744 O.co2   1  UNL1       -0.5454
@<TRIPOS>UNITY_ATOM_ATTR
26 1
charge -1
@<TRIPOS>BOND
     1    17    18    1
     2    18    14    1
     3    14    15    2
     4    14    16    2
     5    14     7    1
     6     7     8   ar
     7     8     9   ar
     8     9    10   ar
     9    10     1    1
    10     1     2   ar
    11     2     3   ar
    12     3    19    1
    13    19    20    1
    14    19    21    1
    15    19    22    1
    16     3     4   ar
    17     4     5   ar
    18     5     6   ar
    19     6    23    1
    20    23    24    1
    21    24    25    1
    22    25    26   ar
    23    25    27   ar
    24    10    11   ar
    25    11    12    1
    26    11    13   ar
    27    13     7   ar
    28     6     1   ar
@<TRIPOS>MOLECULE
*****
 27 28 0 0 0
SMALL
GASTEIGER

@<TRIPOS>ATOM
      1 C          -6.4495  -19.0948   21.8276 C.ar    1  UNL1        0.0337
      2 C          -5.3554  -18.4771   22.6468 C.ar    1  UNL1        0.0069
      3 C          -3.9197  -18.7362   22.2980 C.ar    1  UNL1        0.0716
      4 C          -3.5782  -19.6131   21.1300 C.ar    1  UNL1        0.0070
      5 C          -4.6723  -20.2309   20.3108 C.ar    1  UNL1        0.0369
      6 C          -6.1080  -19.9718   20.6596 C.ar    1  UNL1        0.1390
      7 C         -10.7566  -18.3174   22.8739 C.ar    1  UNL1        0.1053
      8 C          -9.9833  -17.3063   22.0804 C.ar    1  UNL1        0.0183
      9 C          -8.5476  -17.5655   21.7316 C.ar    1  UNL1        0.0011
     10 C          -7.8852  -18.8357   22.1763 C.ar    1  UNL1       -0.0010
     11 C          -8.6586  -19.8467   22.9698 C.ar    1  UNL1       -0.0205
     12 C          -7.9962  -21.1170   23.4146 C.3     1  UNL1        0.0311
     13 C         -10.0942  -19.5876   23.3186 C.ar    1  UNL1        0.0141
     14 S         -12.1923  -18.0582   23.2226 S.O2    1  UNL1        0.0086
     15 O         -12.4037  -17.4230   21.8803 O.2     1  UNL1       -0.1686
     16 O         -11.9809  -18.6935   24.5649 O.2     1  UNL1       -0.1686
     17 C         -14.1892  -18.3088   24.8657 C.3     1  UNL1        0.0276
     18 C         -13.6280  -17.7991   23.5714 C.3     1  UNL1        0.1560
     19 C          -2.8256  -18.1184   23.1173 C.3     1  UNL1        0.4186
     20 F          -1.7314  -17.5006   23.9365 F       1  UNL1       -0.1659
     21 F          -3.8510  -17.5008   24.0211 F       1  UNL1       -0.1659
     22 F          -1.8001  -18.7359   22.2135 F       1  UNL1       -0.1659
     23 O          -7.2021  -20.5896   19.8403 O.3     1  UNL1       -0.4694
     24 C          -7.9754  -19.7503   18.8669 C.3     1  UNL1        0.2469
     25 C          -9.3865  -20.1181   18.5150 C.2     1  UNL1        0.0940
     26 O          -9.6607  -20.9807   17.3189 O.co2   1  UNL1       -0.5454
     27 O         -10.5233  -19.6232   19.3593 O.co2   1  UNL1       -0.5454
@<TRIPOS>UNITY_ATOM_ATTR
26 1
charge -1
@<TRIPOS>BOND
     1    17    18    1
     2    18    14    1
     3    14    15    2
     4    14    16    2
     5    14     7    1
     6     7     8   ar
     7     8     9   ar
     8     9    10   ar
     9    10     1    1
    10     1     2   ar
    11     2     3   ar
    12     3    19    1
    13    19    20    1
    14    19    21    1
    15    19    22    1
    16     3     4   ar
    17     4     5   ar
    18     5     6   ar
    19     6    23    1
    20    23    24    1
    21    24    25    1
    22    25    26   ar
    23    25    27   ar
    24    10    11   ar
    25    11    12    1
    26    11    13   ar
    27    13     7   ar
    28     6     1   ar
@<TRIPOS>MOLECULE
*****
 27 28 0 0 0
SMALL
GASTEIGER

@<TRIPOS>ATOM
      1 C           3.5884   -1.1676   19.6642 C.ar    1  UNL1        0.0337
      2 C           3.2354   -2.6248   19.7083 C.ar    1  UNL1        0.0069
      3 C           4.3205   -3.6602   19.6916 C.ar    1  UNL1        0.0716
      4 C           5.7587   -3.2385   19.6308 C.ar    1  UNL1        0.0070
      5 C           6.1117   -1.7813   19.5867 C.ar    1  UNL1        0.0369
      6 C           5.0266   -0.7459   19.6033 C.ar    1  UNL1        0.1390
      7 C           0.3329    1.9387   19.7142 C.ar    1  UNL1        0.1053
      8 C           0.8798    1.4465   18.4071 C.ar    1  UNL1        0.0183
      9 C           1.9650    0.4110   18.3905 C.ar    1  UNL1        0.0011
     10 C           2.5032   -0.1322   19.6809 C.ar    1  UNL1       -0.0010
     11 C           1.9563    0.3601   20.9879 C.ar    1  UNL1       -0.0205
     12 C           2.4946   -0.1831   22.2784 C.3     1  UNL1        0.0311
     13 C           0.8712    1.3955   21.0046 C.ar    1  UNL1        0.0141
     14 S          -0.7522    2.9742   19.7309 S.O2    1  UNL1        0.0086
     15 O          -1.3842    2.2929   20.9084 O.2     1  UNL1       -0.1686
     16 O          -0.1203    3.6554   18.5534 O.2     1  UNL1       -0.1686
     17 C          -3.2243    3.6356   20.1794 C.3     1  UNL1        0.0276
     18 C          -1.8374    4.0096   19.7476 C.3     1  UNL1        0.1560
     19 C           3.9675   -5.1175   19.7357 C.3     1  UNL1        0.4186
     20 F           3.6144   -6.5746   19.7799 F       1  UNL1       -0.1659
     21 F           4.3359   -5.2506   18.2878 F       1  UNL1       -0.1659
     22 F           3.5990   -4.9843   21.1837 F       1  UNL1       -0.1659
     23 O           5.3797    0.7113   19.5592 O.3     1  UNL1       -0.4694
     24 C           5.5480    1.4026   18.2387 C.3     1  UNL1        0.2469
     25 C           5.8633    0.6038   17.0088 C.2     1  UNL1        0.0940
     26 O           4.7986   -0.2345   16.3656 O.co2   1  UNL1       -0.5454
     27 O           7.2432    0.6433   16.4221 O.co2   1  UNL1       -0.5454
@<TRIPOS>UNITY_ATOM_ATTR
26 1
charge -1
@<TRIPOS>BOND
     1    17    18    1
     2    18    14    1
     3    14    15    2
     4    14    16    2
     5    14     7    1
     6     7     8   ar
     7     8     9   ar
     8     9    10   ar
     9    10     1    1
    10     1     2   ar
    11     2     3   ar
    12     3    19    1
    13    19    20    1
    14    19    21    1
    15    19    22    1
    16     3     4   ar
    17     4     5   ar
    18     5     6   ar
    19     6    23    1
    20    23    24    1
    21    24    25    1
    22    25    26   ar
    23    25    27   ar
    24    10    11   ar
    25    11    12    1
    26    11    13   ar
    27    13     7   ar
    28     6     1   ar
@<TRIPOS>MOLECULE
*****
 27 28 0 0 0
SMALL
GASTEIGER

@<TRIPOS>ATOM
      1 C           3.0980   -1.2333   20.6461 C.ar    1  UNL1        0.0337
      2 C           3.3309   -2.3782   19.7054 C.ar    1  UNL1        0.0069
      3 C           4.1924   -3.5316   20.1266 C.ar    1  UNL1        0.0716
      4 C           4.8211   -3.5401   21.4884 C.ar    1  UNL1        0.0070
      5 C           4.5881   -2.3952   22.4291 C.ar    1  UNL1        0.0369
      6 C           3.7266   -1.2418   22.0079 C.ar    1  UNL1        0.1390
      7 C           0.5134    2.2270   19.3825 C.ar    1  UNL1        0.1053
      8 C          -0.1007    1.0443   20.0710 C.ar    1  UNL1        0.0183
      9 C           0.7608   -0.1091   20.4922 C.ar    1  UNL1        0.0011
     10 C           2.2365   -0.0798   20.2249 C.ar    1  UNL1       -0.0010
     11 C           2.8506    1.1028   19.5364 C.ar    1  UNL1       -0.0205
     12 C           4.3264    1.1322   19.2691 C.3     1  UNL1        0.0311
     13 C           1.9891    2.2563   19.1152 C.ar    1  UNL1        0.0141
     14 S          -0.3481    3.3804   18.9613 S.O2    1  UNL1        0.0086
     15 O          -1.3437    3.0255   20.0257 O.2     1  UNL1       -0.1686
     16 O           0.6474    3.7353   17.8969 O.2     1  UNL1       -0.1686
     17 C          -2.6924    4.3520   18.4042 C.3     1  UNL1        0.0276
     18 C          -1.2097    4.5338   18.5401 C.3     1  UNL1        0.1560
     19 C           4.4253   -4.6765   19.1858 C.3     1  UNL1        0.4186
     20 F           4.6582   -5.8214   18.2451 F       1  UNL1       -0.1659
     21 F           3.4354   -5.5053   19.9494 F       1  UNL1       -0.1659
     22 F           5.4152   -3.8477   18.4222 F       1  UNL1       -0.1659
     23 O           3.4937   -0.0968   22.9487 O.3     1  UNL1       -0.4694
     24 C           2.3423   -0.1376   23.9091 C.3     1  UNL1        0.2469
     25 C           1.3703    1.0037   23.9637 C.2     1  UNL1        0.0940
     26 O           1.5490    2.1850   23.0567 O.co2   1  UNL1       -0.5454
     27 O           0.2198    0.9636   24.9252 O.co2   1  UNL1       -0.5454
@<TRIPOS>UNITY_ATOM_ATTR
26 1
charge -1
@<TRIPOS>BOND
     1    17    18    1
     2    18    14    1
     3    14    15    2
     4    14    16    2
     5    14     7    1
     6     7     8   ar
     7     8     9   ar
     8     9    10   ar
     9    10     1    1
    10     1     2   ar
    11     2     3   ar
    12     3    19    1
    13    19    20    1
    14    19    21    1
    15    19    22    1
    16     3     4   ar
    17     4     5   ar
    18     5     6   ar
    19     6    23    1
    20    23    24    1
    21    24    25    1
    22    25    26   ar
    23    25    27   ar
    24    10    11   ar
    25    11    12    1
    26    11    13   ar
    27    13     7   ar
    28     6     1   ar
@<TRIPOS>MOLECULE
*****
 27 28 0 0 0
SMALL
GASTEIGER

@<TRIPOS>ATOM
      1 C           3.2846   -0.8825   20.5560 C.ar    1  UNL1        0.0337
      2 C           3.4438   -2.3681   20.4239 C.ar    1  UNL1        0.0069
      3 C           4.0677   -2.9488   19.1895 C.ar    1  UNL1        0.0716
      4 C           4.5324   -2.0437   18.0873 C.ar    1  UNL1        0.0070
      5 C           4.3732   -0.5581   18.2194 C.ar    1  UNL1        0.0369
      6 C           3.7493    0.0225   19.4538 C.ar    1  UNL1        0.1390
      7 C           1.4128    0.8594   24.2590 C.ar    1  UNL1        0.1053
      8 C           0.7656    1.0685   22.9221 C.ar    1  UNL1        0.0183
      9 C           1.3895    0.4878   21.6878 C.ar    1  UNL1        0.0011
     10 C           2.6606   -0.3019   21.7903 C.ar    1  UNL1       -0.0010
     11 C           3.3078   -0.5110   23.1272 C.ar    1  UNL1       -0.0205
     12 C           4.5790   -1.3007   23.2299 C.3     1  UNL1        0.0311
     13 C           2.6839    0.0696   24.3616 C.ar    1  UNL1        0.0141
     14 S           0.7889    1.4400   25.4933 S.O2    1  UNL1        0.0086
     15 O          -0.3493    1.9665   24.6704 O.2     1  UNL1       -0.1686
     16 O           1.9271    0.9135   26.3163 O.2     1  UNL1       -0.1686
     17 C          -0.7215    1.1720   27.5902 C.3     1  UNL1        0.0276
     18 C           0.1649    2.0206   26.7277 C.3     1  UNL1        0.1560
     19 C           4.2269   -4.4345   19.0575 C.3     1  UNL1        0.4186
     20 F           4.3862   -5.9201   18.9254 F       1  UNL1       -0.1659
     21 F           2.7652   -4.5635   18.7465 F       1  UNL1       -0.1659
     22 F           5.6886   -4.3054   19.3684 F       1  UNL1       -0.1659
     23 O           3.5901    1.5082   19.5858 O.3     1  UNL1       -0.4694
     24 C           2.7936    2.2705   18.5687 C.3     1  UNL1        0.2469
     25 C           1.3141    2.0502   18.4560 C.2     1  UNL1        0.0940
     26 O           0.7800    0.6786   18.1668 O.co2   1  UNL1       -0.5454
     27 O           0.3688    3.2013   18.6324 O.co2   1  UNL1       -0.5454
@<TRIPOS>UNITY_ATOM_ATTR
26 1
charge -1
@<TRIPOS>BOND
     1    17    18    1
     2    18    14    1
     3    14    15    2
     4    14    16    2
     5    14     7    1
     6     7     8   ar
     7     8     9   ar
     8     9    10   ar
     9    10     1    1
    10     1     2   ar
    11     2     3   ar
    12     3    19    1
    13    19    20    1
    14    19    21    1
    15    19    22    1
    16     3     4   ar
    17     4     5   ar
    18     5     6   ar
    19     6    23    1
    20    23    24    1
    21    24    25    1
    22    25    26   ar
    23    25    27   ar
    24    10    11   ar
    25    11    12    1
    26    11    13   ar
    27    13     7   ar
    28     6     1   ar
@<TRIPOS>MOLECULE
*****
 27 28 0 0 0
SMALL
GASTEIGER

@<TRIPOS>ATOM
      1 C          -6.9807  -17.2310   23.3444 C.ar    1  UNL1        0.0337
      2 C          -7.0945  -16.8730   24.7965 C.ar    1  UNL1        0.0069
      3 C          -8.4390  -16.5806   25.3937 C.ar    1  UNL1        0.0716
      4 C          -9.6698  -16.6461   24.5388 C.ar    1  UNL1        0.0070
      5 C          -9.5559  -17.0042   23.0866 C.ar    1  UNL1        0.0369
      6 C          -8.2114  -17.2966   22.4894 C.ar    1  UNL1        0.1390
      7 C          -2.9470  -18.1084   21.5527 C.ar    1  UNL1        0.1053
      8 C          -4.0842  -19.0641   21.3444 C.ar    1  UNL1        0.0183
      9 C          -5.4287  -18.7717   21.9416 C.ar    1  UNL1        0.0011
     10 C          -5.6361  -17.5235   22.7471 C.ar    1  UNL1       -0.0010
     11 C          -4.4990  -16.5677   22.9554 C.ar    1  UNL1       -0.0205
     12 C          -4.7064  -15.3194   23.7610 C.3     1  UNL1        0.0311
     13 C          -3.1545  -16.8602   22.3582 C.ar    1  UNL1        0.0141
     14 S          -1.6025  -18.4008   20.9555 S.O2    1  UNL1        0.0086
     15 O          -1.6993  -19.8197   21.4324 O.2     1  UNL1       -0.1686
     16 O          -1.5057  -16.9819   20.4785 O.2     1  UNL1       -0.1686
     17 C           0.6993  -17.5723   20.0806 C.3     1  UNL1        0.0276
     18 C          -0.2579  -18.6932   20.3582 C.3     1  UNL1        0.1560
     19 C          -8.5528  -16.2225   26.8460 C.3     1  UNL1        0.4186
     20 F          -8.6666  -15.8645   28.2981 F       1  UNL1       -0.1659
     21 F          -9.0918  -17.5908   27.1411 F       1  UNL1       -0.1659
     22 F          -8.0138  -14.8542   26.5508 F       1  UNL1       -0.1659
     23 O          -8.0976  -17.6546   21.0372 O.3     1  UNL1       -0.4694
     24 C          -8.7752  -18.8859   20.5130 C.3     1  UNL1        0.2469
     25 C         -10.2425  -18.8600   20.2025 C.2     1  UNL1        0.0940
     26 O         -11.1122  -20.0182   20.5926 O.co2   1  UNL1       -0.5454
     27 O         -10.8401  -17.6759   19.5019 O.co2   1  UNL1       -0.5454
@<TRIPOS>UNITY_ATOM_ATTR
26 1
charge -1
@<TRIPOS>BOND
     1    17    18    1
     2    18    14    1
     3    14    15    2
     4    14    16    2
     5    14     7    1
     6     7     8   ar
     7     8     9   ar
     8     9    10   ar
     9    10     1    1
    10     1     2   ar
    11     2     3   ar
    12     3    19    1
    13    19    20    1
    14    19    21    1
    15    19    22    1
    16     3     4   ar
    17     4     5   ar
    18     5     6   ar
    19     6    23    1
    20    23    24    1
    21    24    25    1
    22    25    26   ar
    23    25    27   ar
    24    10    11   ar
    25    11    12    1
    26    11    13   ar
    27    13     7   ar
    28     6     1   ar
@<TRIPOS>MOLECULE
*****
 27 28 0 0 0
SMALL
GASTEIGER

@<TRIPOS>ATOM
      1 C          -6.2907  -16.5096   23.6806 C.ar    1  UNL1        0.0337
      2 C          -6.2028  -15.9250   25.0592 C.ar    1  UNL1        0.0069
      3 C          -7.4541  -15.5461   25.7944 C.ar    1  UNL1        0.0716
      4 C          -8.7934  -15.7518   25.1511 C.ar    1  UNL1        0.0070
      5 C          -8.8814  -16.3363   23.7725 C.ar    1  UNL1        0.0369
      6 C          -7.6300  -16.7152   23.0372 C.ar    1  UNL1        0.1390
      7 C          -2.5367  -17.6463   21.4749 C.ar    1  UNL1        0.1053
      8 C          -2.7031  -16.2525   22.0036 C.ar    1  UNL1        0.0183
      9 C          -3.9544  -15.8736   22.7388 C.ar    1  UNL1        0.0011
     10 C          -5.0394  -16.8885   22.9453 C.ar    1  UNL1       -0.0010
     11 C          -4.8731  -18.2823   22.4166 C.ar    1  UNL1       -0.0205
     12 C          -5.9581  -19.2973   22.6231 C.3     1  UNL1        0.0311
     13 C          -3.6217  -18.6612   21.6814 C.ar    1  UNL1        0.0141
     14 S          -1.2854  -18.0252   20.7396 S.O2    1  UNL1        0.0086
     15 O          -0.9736  -16.5741   20.5224 O.2     1  UNL1       -0.1686
     16 O          -1.5971  -19.4763   20.9569 O.2     1  UNL1       -0.1686
     17 C           1.1764  -17.5214   20.0795 C.3     1  UNL1        0.0276
     18 C          -0.0340  -18.4041   20.0044 C.3     1  UNL1        0.1560
     19 C          -7.3661  -14.9616   27.1731 C.3     1  UNL1        0.4186
     20 F          -7.2781  -14.3770   28.5516 F       1  UNL1       -0.1659
     21 F          -8.8625  -14.9775   27.2754 F       1  UNL1       -0.1659
     22 F          -5.8697  -14.9456   27.0707 F       1  UNL1       -0.1659
     23 O          -7.7181  -17.2998   21.6586 O.3     1  UNL1       -0.4694
     24 C          -8.9770  -17.9822   21.2123 C.3     1  UNL1        0.2469
     25 C          -8.9236  -19.0252   20.1355 C.2     1  UNL1        0.0940
     26 O          -7.6631  -19.2257   19.3475 O.co2   1  UNL1       -0.5454
     27 O         -10.1306  -19.8675   19.8467 O.co2   1  UNL1       -0.5454
@<TRIPOS>UNITY_ATOM_ATTR
26 1
charge -1
@<TRIPOS>BOND
     1    17    18    1
     2    18    14    1
     3    14    15    2
     4    14    16    2
     5    14     7    1
     6     7     8   ar
     7     8     9   ar
     8     9    10   ar
     9    10     1    1
    10     1     2   ar
    11     2     3   ar
    12     3    19    1
    13    19    20    1
    14    19    21    1
    15    19    22    1
    16     3     4   ar
    17     4     5   ar
    18     5     6   ar
    19     6    23    1
    20    23    24    1
    21    24    25    1
    22    25    26   ar
    23    25    27   ar
    24    10    11   ar
    25    11    12    1
    26    11    13   ar
    27    13     7   ar
    28     6     1   ar
