@<TRIPOS>MOLECULE
*****
 32 34 0 0 0
SMALL
GASTEIGER

@<TRIPOS>ATOM
      1 C           4.3039    0.3236   34.9132 C.ar    1  UNL1        0.0277
      2 S           4.9324   -0.9321   34.3857 S.2     1  UNL1       -0.0677
      3 C           4.4610   -1.1293   32.9753 C.ar    1  UNL1        0.1200
      4 C           3.5413    0.0046   32.6312 C.ar    1  UNL1        0.0887
      5 C           3.4442    0.9025   33.8289 C.ar    1  UNL1       -0.0042
      6 C           2.6303    2.1588   33.9252 C.3     1  UNL1        0.0323
      7 C           4.8942    2.0508   39.0264 C.ar    1  UNL1        0.1724
      8 C           6.0128    2.0921   38.0280 C.ar    1  UNL1        0.0401
      9 C           5.8161    1.5164   36.6569 C.ar    1  UNL1        0.0038
     10 C           4.5007    0.8993   36.2842 C.ar    1  UNL1        0.0090
     11 C           3.3820    0.8580   37.2827 C.ar    1  UNL1        0.0405
     12 C           3.5788    1.4337   38.6537 C.ar    1  UNL1        0.1724
     13 C           5.9110    3.8694   40.5784 C.3     1  UNL1        0.2526
     14 O           5.0910    2.6265   40.3974 O.3     1  UNL1       -0.4684
     15 O           2.4601    1.3924   39.6522 O.3     1  UNL1       -0.4684
     16 C           1.3337    0.4175   39.4765 C.3     1  UNL1        0.2526
     17 N           4.8425   -2.2615   32.0684 N.2     1  UNL1       -0.2366
     18 C           6.2057   -2.2953   31.4436 C.2     1  UNL1        0.0994
     19 C           6.5872   -3.4275   30.5367 C.ar    1  UNL1        0.0192
     20 C           7.0197   -4.7410   31.1180 C.ar    1  UNL1        0.0028
     21 C           7.4012   -5.8733   30.2111 C.ar    1  UNL1        0.0146
     22 C           7.3501   -5.6921   28.7229 C.ar    1  UNL1        0.0479
     23 C           6.9175   -4.3787   28.1417 C.ar    1  UNL1        0.0146
     24 C           6.5360   -3.2464   29.0486 C.ar    1  UNL1        0.0028
     25 N           7.7315   -6.8244   27.8160 N.pl3   1  UNL1       -0.3047
     26 C           8.6179   -7.9239   28.3212 C.3     1  UNL1        0.1122
     27 C           7.2266   -6.8570   26.4039 C.3     1  UNL1        0.1070
     28 C           7.9653   -7.6427   25.3614 C.3     1  UNL1        0.1267
     29 C           8.2236   -7.0408   24.0119 C.1     1  UNL1        0.0750
     30 N           8.4821   -6.4390   22.6624 N.1     1  UNL1       -0.1958
     31 C           2.8415    0.2053   31.3197 C.1     1  UNL1        0.1022
     32 N           2.1417    0.4060   30.0083 N.1     1  UNL1       -0.1908
@<TRIPOS>BOND
     1    13    14    1
     2    14     7    1
     3     7     8   ar
     4     8     9   ar
     5     9    10   ar
     6    10     1    1
     7     1     2   ar
     8     2     3   ar
     9     3    17    1
    10    17    18    2
    11    18    19    1
    12    19    20   ar
    13    20    21   ar
    14    21    22   ar
    15    22    25    1
    16    25    26    1
    17    25    27    1
    18    27    28    1
    19    28    29    1
    20    29    30    3
    21    22    23   ar
    22    23    24   ar
    23     3     4   ar
    24     4    31    1
    25    31    32    3
    26     4     5   ar
    27     5     6    1
    28    10    11   ar
    29    11    12   ar
    30    12    15    1
    31    15    16    1
    32    12     7   ar
    33     5     1   ar
    34    24    19   ar
@<TRIPOS>MOLECULE
*****
 32 34 0 0 0
SMALL
GASTEIGER

@<TRIPOS>ATOM
      1 C          -5.2714    4.4702   22.1838 C.ar    1  UNL1        0.0277
      2 S          -4.0565    3.5948   22.2707 S.2     1  UNL1       -0.0677
      3 C          -3.6095    3.2821   20.8733 C.ar    1  UNL1        0.1200
      4 C          -4.5483    3.9642   19.9229 C.ar    1  UNL1        0.0887
      5 C          -5.5754    4.6985   20.7328 C.ar    1  UNL1       -0.0042
      6 C          -6.7077    5.5173   20.1874 C.3     1  UNL1        0.0323
      7 C          -7.5962    6.1214   25.6651 C.ar    1  UNL1        0.1724
      8 C          -6.0966    6.1203   25.6975 C.ar    1  UNL1        0.0401
      9 C          -5.3217    5.5699   24.5371 C.ar    1  UNL1        0.0038
     10 C          -6.0464    5.0206   23.3442 C.ar    1  UNL1        0.0090
     11 C          -7.5460    5.0216   23.3118 C.ar    1  UNL1        0.0405
     12 C          -8.3209    5.5720   24.4722 C.ar    1  UNL1        0.1724
     13 C          -7.7004    6.8593   28.1540 C.3     1  UNL1        0.2526
     14 O          -8.3711    6.6718   26.8255 O.3     1  UNL1       -0.4684
     15 O          -9.8206    5.5730   24.4397 O.3     1  UNL1       -0.4684
     16 C         -10.5800    4.3387   24.8269 C.3     1  UNL1        0.2526
     17 N          -2.4308    2.4359   20.4933 N.2     1  UNL1       -0.2366
     18 C          -1.1129    3.0816   20.1830 C.2     1  UNL1        0.0994
     19 C           0.0658    2.2354   19.8029 C.ar    1  UNL1        0.0192
     20 C           1.1523    2.8067   18.9406 C.ar    1  UNL1        0.0028
     21 C           2.3310    1.9604   18.5605 C.ar    1  UNL1        0.0146
     22 C           2.4233    0.5430   19.0426 C.ar    1  UNL1        0.0479
     23 C           1.3369   -0.0282   19.9048 C.ar    1  UNL1        0.0146
     24 C           0.1581    0.8180   20.2849 C.ar    1  UNL1        0.0028
     25 N           3.6021   -0.3032   18.6625 N.pl3   1  UNL1       -0.3047
     26 C           4.7257    0.2905   17.8658 C.3     1  UNL1        0.1122
     27 C           3.6571   -1.7432   19.0792 C.3     1  UNL1        0.1070
     28 C           4.6968   -2.6534   18.4958 C.3     1  UNL1        0.1267
     29 C           4.6829   -4.1166   18.8259 C.1     1  UNL1        0.0750
     30 N           4.6691   -5.5797   19.1561 N.1     1  UNL1       -0.1958
     31 C          -4.4732    3.9199   18.4254 C.1     1  UNL1        0.1022
     32 N          -4.3981    3.8756   16.9280 N.1     1  UNL1       -0.1908
@<TRIPOS>BOND
     1    13    14    1
     2    14     7    1
     3     7     8   ar
     4     8     9   ar
     5     9    10   ar
     6    10     1    1
     7     1     2   ar
     8     2     3   ar
     9     3    17    1
    10    17    18    2
    11    18    19    1
    12    19    20   ar
    13    20    21   ar
    14    21    22   ar
    15    22    25    1
    16    25    26    1
    17    25    27    1
    18    27    28    1
    19    28    29    1
    20    29    30    3
    21    22    23   ar
    22    23    24   ar
    23     3     4   ar
    24     4    31    1
    25    31    32    3
    26     4     5   ar
    27     5     6    1
    28    10    11   ar
    29    11    12   ar
    30    12    15    1
    31    15    16    1
    32    12     7   ar
    33     5     1   ar
    34    24    19   ar
@<TRIPOS>MOLECULE
*****
 32 34 0 0 0
SMALL
GASTEIGER

@<TRIPOS>ATOM
      1 C           7.2104   -4.3787   22.8695 C.ar    1  UNL1        0.0277
      2 S           6.0581   -3.4337   23.0405 S.2     1  UNL1       -0.0677
      3 C           5.8989   -2.6612   21.7646 C.ar    1  UNL1        0.1200
      4 C           6.9528   -3.1287   20.8050 C.ar    1  UNL1        0.0887
      5 C           7.7633   -4.1902   21.4879 C.ar    1  UNL1       -0.0042
      6 C           8.9232   -4.9327   20.8936 C.3     1  UNL1        0.0323
      7 C           8.7400   -7.2712   25.9588 C.ar    1  UNL1        0.1724
      8 C           8.8081   -7.6238   24.5025 C.ar    1  UNL1        0.0401
      9 C           8.2982   -6.6596   23.4727 C.ar    1  UNL1        0.0038
     10 C           7.7203   -5.3428   23.8993 C.ar    1  UNL1        0.0090
     11 C           7.6522   -4.9902   25.3556 C.ar    1  UNL1        0.0405
     12 C           8.1621   -5.9544   26.3854 C.ar    1  UNL1        0.1724
     13 C           8.3156   -9.2282   27.6140 C.3     1  UNL1        0.2526
     14 O           9.2499   -8.2353   26.9886 O.3     1  UNL1       -0.4684
     15 O           8.0939   -5.6017   27.8418 O.3     1  UNL1       -0.4684
     16 C           6.7689   -5.5673   28.5440 C.3     1  UNL1        0.2526
     17 N           4.8669   -1.6064   21.4955 N.2     1  UNL1       -0.2366
     18 C           4.0536   -1.6568   20.2362 C.2     1  UNL1        0.0994
     19 C           3.0216   -0.6020   19.9671 C.ar    1  UNL1        0.0192
     20 C           3.3945    0.6348   19.2045 C.ar    1  UNL1        0.0028
     21 C           2.3626    1.6896   18.9354 C.ar    1  UNL1        0.0146
     22 C           0.9578    1.5077   19.4289 C.ar    1  UNL1        0.0479
     23 C           0.5850    0.2710   20.1914 C.ar    1  UNL1        0.0146
     24 C           1.6169   -0.7839   20.4606 C.ar    1  UNL1        0.0028
     25 N          -0.0742    2.5625   19.1598 N.pl3   1  UNL1       -0.3047
     26 C          -0.1986    3.1575   17.7885 C.3     1  UNL1        0.1122
     27 C          -0.9817    3.0224   20.2620 C.3     1  UNL1        0.1070
     28 C          -2.3492    3.5467   19.9379 C.3     1  UNL1        0.1267
     29 C          -3.5229    3.1554   20.7861 C.1     1  UNL1        0.0750
     30 N          -4.6965    2.7641   21.6343 N.1     1  UNL1       -0.1958
     31 C           7.1598   -2.6235   19.4079 C.1     1  UNL1        0.1022
     32 N           7.3668   -2.1183   18.0108 N.1     1  UNL1       -0.1908
@<TRIPOS>BOND
     1    13    14    1
     2    14     7    1
     3     7     8   ar
     4     8     9   ar
     5     9    10   ar
     6    10     1    1
     7     1     2   ar
     8     2     3   ar
     9     3    17    1
    10    17    18    2
    11    18    19    1
    12    19    20   ar
    13    20    21   ar
    14    21    22   ar
    15    22    25    1
    16    25    26    1
    17    25    27    1
    18    27    28    1
    19    28    29    1
    20    29    30    3
    21    22    23   ar
    22    23    24   ar
    23     3     4   ar
    24     4    31    1
    25    31    32    3
    26     4     5   ar
    27     5     6    1
    28    10    11   ar
    29    11    12   ar
    30    12    15    1
    31    15    16    1
    32    12     7   ar
    33     5     1   ar
    34    24    19   ar
@<TRIPOS>MOLECULE
*****
 32 34 0 0 0
SMALL
GASTEIGER

@<TRIPOS>ATOM
      1 C           1.7356    0.2645   20.4881 C.ar    1  UNL1        0.0277
      2 S           0.5132    0.6688   21.2577 S.2     1  UNL1       -0.0677
      3 C          -0.1386    1.8060   20.5284 C.ar    1  UNL1        0.1200
      4 C           0.6809    2.1046   19.3081 C.ar    1  UNL1        0.0887
      5 C           1.8392    1.1518   19.2832 C.ar    1  UNL1       -0.0042
      6 C           2.9127    1.0963   18.2370 C.3     1  UNL1        0.0323
      7 C           4.5906   -3.0318   21.5989 C.ar    1  UNL1        0.1724
      8 C           4.0461   -2.1219   22.6599 C.ar    1  UNL1        0.0401
      9 C           3.0944   -1.0232   22.2896 C.ar    1  UNL1        0.0038
     10 C           2.6873   -0.8343   20.8584 C.ar    1  UNL1        0.0090
     11 C           3.2318   -1.7441   19.7974 C.ar    1  UNL1        0.0405
     12 C           4.1835   -2.8428   20.1677 C.ar    1  UNL1        0.1724
     13 C           7.0196   -3.9302   21.8047 C.3     1  UNL1        0.2526
     14 O           5.5422   -4.1305   21.9692 O.3     1  UNL1       -0.4684
     15 O           4.7280   -3.7527   19.1067 O.3     1  UNL1       -0.4684
     16 C           4.1488   -5.1244   18.9254 C.3     1  UNL1        0.2526
     17 N          -1.3903    2.5194   20.9461 N.2     1  UNL1       -0.2366
     18 C          -1.4291    3.2671   22.2459 C.2     1  UNL1        0.0994
     19 C          -2.6807    3.9805   22.6636 C.ar    1  UNL1        0.0192
     20 C          -4.0205    3.3549   22.4107 C.ar    1  UNL1        0.0028
     21 C          -5.2721    4.0683   22.8285 C.ar    1  UNL1        0.0146
     22 C          -5.1840    5.4071   23.4991 C.ar    1  UNL1        0.0479
     23 C          -3.8443    6.0326   23.7520 C.ar    1  UNL1        0.0146
     24 C          -2.5926    5.3192   23.3342 C.ar    1  UNL1        0.0028
     25 N          -6.4356    6.1205   23.9168 N.pl3   1  UNL1       -0.3047
     26 C          -7.6118    6.1778   22.9877 C.3     1  UNL1        0.1122
     27 C          -6.5110    6.7766   25.2636 C.3     1  UNL1        0.1070
     28 C          -6.3439    5.9560   26.5080 C.3     1  UNL1        0.1267
     29 C          -7.1963    6.2348   27.7104 C.1     1  UNL1        0.0750
     30 N          -8.0487    6.5136   28.9127 N.1     1  UNL1       -0.1958
     31 C           0.3927    3.1689   18.2912 C.1     1  UNL1        0.1022
     32 N           0.1046    4.2333   17.2743 N.1     1  UNL1       -0.1908
@<TRIPOS>BOND
     1    13    14    1
     2    14     7    1
     3     7     8   ar
     4     8     9   ar
     5     9    10   ar
     6    10     1    1
     7     1     2   ar
     8     2     3   ar
     9     3    17    1
    10    17    18    2
    11    18    19    1
    12    19    20   ar
    13    20    21   ar
    14    21    22   ar
    15    22    25    1
    16    25    26    1
    17    25    27    1
    18    27    28    1
    19    28    29    1
    20    29    30    3
    21    22    23   ar
    22    23    24   ar
    23     3     4   ar
    24     4    31    1
    25    31    32    3
    26     4     5   ar
    27     5     6    1
    28    10    11   ar
    29    11    12   ar
    30    12    15    1
    31    15    16    1
    32    12     7   ar
    33     5     1   ar
    34    24    19   ar
@<TRIPOS>MOLECULE
*****
 32 34 0 0 0
SMALL
GASTEIGER

@<TRIPOS>ATOM
      1 C           1.7236    0.2857   20.4087 C.ar    1  UNL1        0.0277
      2 S           0.3932    0.5826   21.0347 S.2     1  UNL1       -0.0677
      3 C          -0.1781    1.7929   20.3573 C.ar    1  UNL1        0.1200
      4 C           0.7992    2.2440   19.3127 C.ar    1  UNL1        0.0887
      5 C           1.9745    1.3125   19.3444 C.ar    1  UNL1       -0.0042
      6 C           3.1877    1.3936   18.4660 C.3     1  UNL1        0.0323
      7 C           4.4782   -3.0924   21.5270 C.ar    1  UNL1        0.1724
      8 C           3.9904   -2.9586   20.1149 C.ar    1  UNL1        0.0401
      9 C           3.0721   -1.8326   19.7422 C.ar    1  UNL1        0.0038
     10 C           2.6418   -0.8403   20.7815 C.ar    1  UNL1        0.0090
     11 C           3.1296   -0.9741   22.1936 C.ar    1  UNL1        0.0405
     12 C           4.0478   -2.1001   22.5664 C.ar    1  UNL1        0.1724
     13 C           6.8724   -3.9764   22.0132 C.3     1  UNL1        0.2526
     14 O           5.3964   -4.2184   21.8998 O.3     1  UNL1       -0.4684
     15 O           4.5357   -2.2339   23.9785 O.3     1  UNL1       -0.4684
     16 C           4.0062   -1.3211   25.0445 C.3     1  UNL1        0.2526
     17 N          -1.4954    2.4387   20.6698 N.2     1  UNL1       -0.2366
     18 C          -1.6590    3.2380   21.9285 C.2     1  UNL1        0.0994
     19 C          -2.9763    3.8838   22.2410 C.ar    1  UNL1        0.0192
     20 C          -3.0190    5.1500   23.0442 C.ar    1  UNL1        0.0028
     21 C          -4.3363    5.7958   23.3567 C.ar    1  UNL1        0.0146
     22 C          -5.6109    5.1754   22.8660 C.ar    1  UNL1        0.0479
     23 C          -5.5681    3.9093   22.0629 C.ar    1  UNL1        0.0146
     24 C          -4.2508    3.2634   21.7504 C.ar    1  UNL1        0.0028
     25 N          -6.9282    5.8212   23.1785 N.pl3   1  UNL1       -0.3047
     26 C          -7.5533    6.7644   22.1939 C.3     1  UNL1        0.1122
     27 C          -7.6203    5.5238   24.4756 C.3     1  UNL1        0.1070
     28 C          -7.2565    6.2901   25.7127 C.3     1  UNL1        0.1267
     29 C          -6.1775    5.7795   26.6210 C.1     1  UNL1        0.0750
     30 N          -5.0985    5.2688   27.5293 N.1     1  UNL1       -0.1958
     31 C           0.6308    3.4201   18.3970 C.1     1  UNL1        0.1022
     32 N           0.4625    4.5962   17.4814 N.1     1  UNL1       -0.1908
@<TRIPOS>BOND
     1    13    14    1
     2    14     7    1
     3     7     8   ar
     4     8     9   ar
     5     9    10   ar
     6    10     1    1
     7     1     2   ar
     8     2     3   ar
     9     3    17    1
    10    17    18    2
    11    18    19    1
    12    19    20   ar
    13    20    21   ar
    14    21    22   ar
    15    22    25    1
    16    25    26    1
    17    25    27    1
    18    27    28    1
    19    28    29    1
    20    29    30    3
    21    22    23   ar
    22    23    24   ar
    23     3     4   ar
    24     4    31    1
    25    31    32    3
    26     4     5   ar
    27     5     6    1
    28    10    11   ar
    29    11    12   ar
    30    12    15    1
    31    15    16    1
    32    12     7   ar
    33     5     1   ar
    34    24    19   ar
@<TRIPOS>MOLECULE
*****
 32 34 0 0 0
SMALL
GASTEIGER

@<TRIPOS>ATOM
      1 C           3.6068    1.6241   35.3659 C.ar    1  UNL1        0.0277
      2 S           2.9085    2.1177   34.1335 S.2     1  UNL1       -0.0677
      3 C           3.1859    1.1476   33.0236 C.ar    1  UNL1        0.1200
      4 C           4.0556    0.0544   33.5700 C.ar    1  UNL1        0.0887
      5 C           4.3157    0.3489   35.0177 C.ar    1  UNL1       -0.0042
      6 C           5.1400   -0.4854   35.9528 C.3     1  UNL1        0.0323
      7 C           3.5795    3.6186   39.3997 C.ar    1  UNL1        0.1724
      8 C           4.6903    3.8995   38.4316 C.ar    1  UNL1        0.0401
      9 C           4.6994    3.2347   37.0870 C.ar    1  UNL1        0.0038
     10 C           3.5977    2.2889   36.7105 C.ar    1  UNL1        0.0090
     11 C           2.4869    2.0080   37.6786 C.ar    1  UNL1        0.0405
     12 C           2.4778    2.6729   39.0232 C.ar    1  UNL1        0.1724
     13 C           4.2539    5.6054   40.9319 C.3     1  UNL1        0.2526
     14 O           3.5705    4.2835   40.7443 O.3     1  UNL1       -0.4684
     15 O           1.3670    2.3920   39.9913 O.3     1  UNL1       -0.4684
     16 C           0.7479    1.0268   40.0469 C.3     1  UNL1        0.2526
     17 N           2.6821    1.2523   31.6147 N.2     1  UNL1       -0.2366
     18 C           1.3201    1.8203   31.3455 C.2     1  UNL1        0.0994
     19 C           0.8163    1.9250   29.9365 C.ar    1  UNL1        0.0192
     20 C           1.2854    3.0432   29.0534 C.ar    1  UNL1        0.0028
     21 C           0.7815    3.1479   27.6445 C.ar    1  UNL1        0.0146
     22 C          -0.1914    2.1346   27.1186 C.ar    1  UNL1        0.0479
     23 C          -0.6604    1.0165   28.0017 C.ar    1  UNL1        0.0146
     24 C          -0.1566    0.9117   29.4107 C.ar    1  UNL1        0.0028
     25 N          -0.6952    2.2393   25.7096 N.pl3   1  UNL1       -0.3047
     26 C          -0.0675    1.4144   24.6254 C.3     1  UNL1        0.1122
     27 C          -1.8268    3.1688   25.3849 C.3     1  UNL1        0.1070
     28 C          -2.7564    3.6263   26.4695 C.3     1  UNL1        0.1267
     29 C          -4.1491    4.0660   26.1276 C.1     1  UNL1        0.0750
     30 N          -5.5419    4.5056   25.7857 N.1     1  UNL1       -0.1958
     31 C           4.5741   -1.1261   32.8034 C.1     1  UNL1        0.1022
     32 N           5.0927   -2.3065   32.0369 N.1     1  UNL1       -0.1908
@<TRIPOS>BOND
     1    13    14    1
     2    14     7    1
     3     7     8   ar
     4     8     9   ar
     5     9    10   ar
     6    10     1    1
     7     1     2   ar
     8     2     3   ar
     9     3    17    1
    10    17    18    2
    11    18    19    1
    12    19    20   ar
    13    20    21   ar
    14    21    22   ar
    15    22    25    1
    16    25    26    1
    17    25    27    1
    18    27    28    1
    19    28    29    1
    20    29    30    3
    21    22    23   ar
    22    23    24   ar
    23     3     4   ar
    24     4    31    1
    25    31    32    3
    26     4     5   ar
    27     5     6    1
    28    10    11   ar
    29    11    12   ar
    30    12    15    1
    31    15    16    1
    32    12     7   ar
    33     5     1   ar
    34    24    19   ar
@<TRIPOS>MOLECULE
*****
 32 34 0 0 0
SMALL
GASTEIGER

@<TRIPOS>ATOM
      1 C           2.9605    0.1685   31.1974 C.ar    1  UNL1        0.0277
      2 S           3.3594   -0.5972   29.9708 S.2     1  UNL1       -0.0677
      3 C           2.4972   -0.1337   28.8342 C.ar    1  UNL1        0.1200
      4 C           1.5653    0.9184   29.3584 C.ar    1  UNL1        0.0887
      5 C           1.8517    1.1051   30.8189 C.ar    1  UNL1       -0.0042
      6 C           1.1521    2.0608   31.7394 C.3     1  UNL1        0.0323
      7 C           4.7721   -0.2679   35.2935 C.ar    1  UNL1        0.1724
      8 C           4.6275   -1.4682   34.4056 C.ar    1  UNL1        0.0401
      9 C           4.0237   -1.3227   33.0402 C.ar    1  UNL1        0.0038
     10 C           3.5644    0.0230   32.5628 C.ar    1  UNL1        0.0090
     11 C           3.7090    1.2233   33.4506 C.ar    1  UNL1        0.0405
     12 C           4.3128    1.0779   34.8160 C.ar    1  UNL1        0.1724
     13 C           6.8320   -0.1214   36.8699 C.3     1  UNL1        0.2526
     14 O           5.3759   -0.4133   36.6588 O.3     1  UNL1       -0.4684
     15 O           4.4574    2.2782   35.7039 O.3     1  UNL1       -0.4684
     16 C           5.2973    3.4403   35.2633 C.3     1  UNL1        0.2526
     17 N           2.5564   -0.6345   27.4215 N.2     1  UNL1       -0.2366
     18 C           3.2135    0.1953   26.3586 C.2     1  UNL1        0.0994
     19 C           3.2728   -0.3055   24.9459 C.ar    1  UNL1        0.0192
     20 C           2.4631    0.3673   23.8772 C.ar    1  UNL1        0.0028
     21 C           2.5223   -0.1334   22.4645 C.ar    1  UNL1        0.0146
     22 C           3.3911   -1.3069   22.1205 C.ar    1  UNL1        0.0479
     23 C           4.2007   -1.9795   23.1891 C.ar    1  UNL1        0.0146
     24 C           4.1415   -1.4788   24.6019 C.ar    1  UNL1        0.0028
     25 N           3.4503   -1.8076   20.7078 N.pl3   1  UNL1       -0.3047
     26 C           2.6948   -1.0933   19.6266 C.3     1  UNL1        0.1122
     27 C           4.2650   -3.0227   20.3762 C.3     1  UNL1        0.1070
     28 C           4.5018   -3.3988   18.9437 C.3     1  UNL1        0.1267
     29 C           5.6562   -2.8038   18.1930 C.1     1  UNL1        0.0750
     30 N           6.8105   -2.2089   17.4423 N.1     1  UNL1       -0.1958
     31 C           0.5291    1.6544   28.5620 C.1     1  UNL1        0.1022
     32 N          -0.5072    2.3905   27.7655 N.1     1  UNL1       -0.1908
@<TRIPOS>BOND
     1    13    14    1
     2    14     7    1
     3     7     8   ar
     4     8     9   ar
     5     9    10   ar
     6    10     1    1
     7     1     2   ar
     8     2     3   ar
     9     3    17    1
    10    17    18    2
    11    18    19    1
    12    19    20   ar
    13    20    21   ar
    14    21    22   ar
    15    22    25    1
    16    25    26    1
    17    25    27    1
    18    27    28    1
    19    28    29    1
    20    29    30    3
    21    22    23   ar
    22    23    24   ar
    23     3     4   ar
    24     4    31    1
    25    31    32    3
    26     4     5   ar
    27     5     6    1
    28    10    11   ar
    29    11    12   ar
    30    12    15    1
    31    15    16    1
    32    12     7   ar
    33     5     1   ar
    34    24    19   ar
@<TRIPOS>MOLECULE
*****
 32 34 0 0 0
SMALL
GASTEIGER

@<TRIPOS>ATOM
      1 C           5.7974   -1.8842   30.5456 C.ar    1  UNL1        0.0277
      2 S           5.2747   -1.5042   29.1920 S.2     1  UNL1       -0.0677
      3 C           5.9211   -2.3998   28.1771 C.ar    1  UNL1        0.1200
      4 C           6.8434   -3.3335   28.9036 C.ar    1  UNL1        0.0887
      5 C           6.7670   -3.0147   30.3673 C.ar    1  UNL1       -0.0042
      6 C           7.5267   -3.7054   31.4609 C.3     1  UNL1        0.0323
      7 C           4.6573    0.0312   34.4547 C.ar    1  UNL1        0.1724
      8 C           4.2792   -1.3940   34.1794 C.ar    1  UNL1        0.0401
      9 C           4.6593   -2.0325   32.8764 C.ar    1  UNL1        0.0038
     10 C           5.4174   -1.2457   31.8486 C.ar    1  UNL1        0.0090
     11 C           5.7954    0.1795   32.1240 C.ar    1  UNL1        0.0405
     12 C           5.4154    0.8179   33.4270 C.ar    1  UNL1        0.1724
     13 C           5.0113    0.3049   37.0140 C.3     1  UNL1        0.2526
     14 O           4.2772    0.6696   35.7578 O.3     1  UNL1       -0.4684
     15 O           5.7935    2.2432   33.7023 O.3     1  UNL1       -0.4684
     16 C           4.7767    3.3338   33.5392 C.3     1  UNL1        0.2526
     17 N           5.6864   -2.3676   26.6960 N.2     1  UNL1       -0.2366
     18 C           4.4442   -1.7306   26.1472 C.2     1  UNL1        0.0994
     19 C           4.2096   -1.6983   24.6660 C.ar    1  UNL1        0.0192
     20 C           4.9278   -2.6651   23.7716 C.ar    1  UNL1        0.0028
     21 C           4.6931   -2.6328   22.2905 C.ar    1  UNL1        0.0146
     22 C           3.7403   -1.6339   21.7036 C.ar    1  UNL1        0.0479
     23 C           3.0221   -0.6673   22.5980 C.ar    1  UNL1        0.0146
     24 C           3.2568   -0.6995   24.0792 C.ar    1  UNL1        0.0028
     25 N           3.5056   -1.6016   20.2225 N.pl3   1  UNL1       -0.3047
     26 C           3.4722   -0.2893   19.4969 C.3     1  UNL1        0.1122
     27 C           3.3044   -2.8817   19.4669 C.3     1  UNL1        0.1070
     28 C           4.4897   -3.6414   18.9495 C.3     1  UNL1        0.1267
     29 C           5.5869   -2.9179   18.2265 C.1     1  UNL1        0.0750
     30 N           6.6841   -2.1943   17.5036 N.1     1  UNL1       -0.1958
     31 C           7.6930   -4.3987   28.2764 C.1     1  UNL1        0.1022
     32 N           8.5426   -5.4640   27.6492 N.1     1  UNL1       -0.1908
@<TRIPOS>BOND
     1    13    14    1
     2    14     7    1
     3     7     8   ar
     4     8     9   ar
     5     9    10   ar
     6    10     1    1
     7     1     2   ar
     8     2     3   ar
     9     3    17    1
    10    17    18    2
    11    18    19    1
    12    19    20   ar
    13    20    21   ar
    14    21    22   ar
    15    22    25    1
    16    25    26    1
    17    25    27    1
    18    27    28    1
    19    28    29    1
    20    29    30    3
    21    22    23   ar
    22    23    24   ar
    23     3     4   ar
    24     4    31    1
    25    31    32    3
    26     4     5   ar
    27     5     6    1
    28    10    11   ar
    29    11    12   ar
    30    12    15    1
    31    15    16    1
    32    12     7   ar
    33     5     1   ar
    34    24    19   ar
@<TRIPOS>MOLECULE
*****
 32 34 0 0 0
SMALL
GASTEIGER

@<TRIPOS>ATOM
      1 C           7.0090   -3.8946   29.7391 C.ar    1  UNL1        0.0277
      2 S           6.5468   -3.5363   28.3578 S.2     1  UNL1       -0.0677
      3 C           6.8487   -4.6939   27.4530 C.ar    1  UNL1        0.1200
      4 C           7.4976   -5.7678   28.2751 C.ar    1  UNL1        0.0887
      5 C           7.5966   -5.2738   29.6880 C.ar    1  UNL1       -0.0042
      6 C           8.1808   -6.0267   30.8463 C.3     1  UNL1        0.0323
      7 C           6.6891   -1.2895   33.3944 C.ar    1  UNL1        0.1724
      8 C           8.0381   -1.6732   32.8626 C.ar    1  UNL1        0.0401
      9 C           8.1448   -2.5416   31.6442 C.ar    1  UNL1        0.0038
     10 C           6.9024   -3.0262   30.9575 C.ar    1  UNL1        0.0090
     11 C           5.5534   -2.6426   31.4893 C.ar    1  UNL1        0.0405
     12 C           5.4467   -1.7742   32.7078 C.ar    1  UNL1        0.1724
     13 C           6.7053    1.0683   34.4854 C.3     1  UNL1        0.2526
     14 O           6.5824   -0.4212   34.6128 O.3     1  UNL1       -0.4684
     15 O           4.0976   -1.3905   33.2396 O.3     1  UNL1       -0.4684
     16 C           3.4979   -0.0644   32.8769 C.3     1  UNL1        0.2526
     17 N           6.5536   -4.7652   25.9841 N.2     1  UNL1       -0.2366
     18 C           6.5807   -3.5173   25.1523 C.2     1  UNL1        0.0994
     19 C           6.2856   -3.5886   23.6833 C.ar    1  UNL1        0.0192
     20 C           7.3977   -3.8294   22.7058 C.ar    1  UNL1        0.0028
     21 C           7.1026   -3.9007   21.2368 C.ar    1  UNL1        0.0146
     22 C           5.6955   -3.7312   20.7454 C.ar    1  UNL1        0.0479
     23 C           4.5835   -3.4904   21.7229 C.ar    1  UNL1        0.0146
     24 C           4.8786   -3.4191   23.1919 C.ar    1  UNL1        0.0028
     25 N           5.4004   -3.8025   19.2764 N.pl3   1  UNL1       -0.3047
     26 C           4.5367   -4.9042   18.7376 C.3     1  UNL1        0.1122
     27 C           5.9689   -2.7721   18.3463 C.3     1  UNL1        0.1070
     28 C           5.4609   -1.3614   18.3891 C.3     1  UNL1        0.1267
     29 C           4.0717   -1.0792   18.8794 C.1     1  UNL1        0.0750
     30 N           2.6825   -0.7969   19.3697 N.1     1  UNL1       -0.1958
     31 C           7.9652   -7.1015   27.7726 C.1     1  UNL1        0.1022
     32 N           8.4329   -8.4352   27.2702 N.1     1  UNL1       -0.1908
@<TRIPOS>BOND
     1    13    14    1
     2    14     7    1
     3     7     8   ar
     4     8     9   ar
     5     9    10   ar
     6    10     1    1
     7     1     2   ar
     8     2     3   ar
     9     3    17    1
    10    17    18    2
    11    18    19    1
    12    19    20   ar
    13    20    21   ar
    14    21    22   ar
    15    22    25    1
    16    25    26    1
    17    25    27    1
    18    27    28    1
    19    28    29    1
    20    29    30    3
    21    22    23   ar
    22    23    24   ar
    23     3     4   ar
    24     4    31    1
    25    31    32    3
    26     4     5   ar
    27     5     6    1
    28    10    11   ar
    29    11    12   ar
    30    12    15    1
    31    15    16    1
    32    12     7   ar
    33     5     1   ar
    34    24    19   ar
