@<TRIPOS>MOLECULE
*****
 25 28 0 0 0
SMALL
GASTEIGER

@<TRIPOS>ATOM
      1 C          -9.5139  -18.4960   20.5148 C.3     1  UNL1        0.0913
      2 C          -9.8528  -18.3941   21.9725 C.ar    1  UNL1       -0.0109
      3 C         -11.0735  -19.0814   22.5085 C.ar    1  UNL1       -0.0034
      4 C         -11.4124  -18.9796   23.9661 C.ar    1  UNL1       -0.0003
      5 C         -10.5305  -18.1904   24.8878 C.ar    1  UNL1       -0.0000
      6 C          -9.3097  -17.5031   24.3518 C.ar    1  UNL1       -0.0003
      7 C          -8.9709  -17.6049   22.8941 C.ar    1  UNL1       -0.0034
      8 C          -8.4278  -16.7139   25.2734 C.ar    1  UNL1       -0.0000
      9 C          -7.2872  -15.9140   24.7176 C.ar    1  UNL1       -0.0000
     10 C          -6.4052  -15.1247   25.6392 C.ar    1  UNL1       -0.0000
     11 C          -6.6640  -15.1355   27.1167 C.ar    1  UNL1        0.0000
     12 C          -7.8047  -15.9355   27.6725 C.ar    1  UNL1       -0.0000
     13 C          -8.6866  -16.7246   26.7509 C.ar    1  UNL1       -0.0000
     14 S          -8.5906  -19.5755   20.0331 S.3     1  UNL1       -0.0709
     15 C          -2.1744  -19.0581   20.4456 C.2     1  UNL1        0.1223
     16 C          -2.4279  -19.2573   21.9105 C.2     1  UNL1        0.0343
     17 C          -3.8299  -19.4416   22.4108 C.2     1  UNL1        0.0232
     18 C          -4.9785  -19.4267   21.4462 C.2     1  UNL1        0.0975
     19 N          -6.4574  -19.5813   21.6439 N.2     1  UNL1       -0.2200
     20 C          -7.1179  -19.4777   20.3012 C.2     1  UNL1        0.1901
     21 N          -6.0473  -19.2590   19.2736 N.2     1  UNL1       -0.2236
     22 C          -4.7251  -19.2275   19.9813 C.2     1  UNL1        0.0863
     23 C          -3.3230  -19.0432   19.4810 C.3     1  UNL1        0.1112
     24 C          -0.1274  -17.5208   20.0028 C.3     1  UNL1        0.2520
     25 O          -0.7724  -18.8737   19.9453 O.2     1  UNL1       -0.4753
@<TRIPOS>BOND
     1    24    25    1
     2    25    15    1
     3    15    16    2
     4    16    17    1
     5    17    18    2
     6    18    19    1
     7    19    20    2
     8    20    14    1
     9    14     1    1
    10     1     2    1
    11     2     3   ar
    12     3     4   ar
    13     4     5   ar
    14     5     6   ar
    15     6     8    1
    16     8     9   ar
    17     9    10   ar
    18    10    11   ar
    19    11    12   ar
    20    12    13   ar
    21     6     7   ar
    22    20    21    1
    23    21    22    2
    24    22    23    1
    25    23    15    1
    26    22    18    1
    27     7     2   ar
    28    13     8   ar
@<TRIPOS>MOLECULE
*****
 25 28 0 0 0
SMALL
GASTEIGER

@<TRIPOS>ATOM
      1 C          -7.1154  -15.0203   24.3421 C.3     1  UNL1        0.0913
      2 C          -8.0263  -16.1974   24.1565 C.ar    1  UNL1       -0.0109
      3 C          -8.8645  -16.6849   25.3010 C.ar    1  UNL1       -0.0034
      4 C          -9.7754  -17.8620   25.1155 C.ar    1  UNL1       -0.0003
      5 C          -9.8482  -18.5518   23.7854 C.ar    1  UNL1       -0.0000
      6 C          -9.0100  -18.0643   22.6409 C.ar    1  UNL1       -0.0003
      7 C          -8.0991  -16.8871   22.8265 C.ar    1  UNL1       -0.0034
      8 C          -9.0828  -18.7540   21.3109 C.ar    1  UNL1       -0.0000
      9 C          -7.8256  -19.2183   20.6371 C.ar    1  UNL1       -0.0000
     10 C          -7.8983  -19.9081   19.3070 C.ar    1  UNL1       -0.0000
     11 C          -9.2282  -20.1335   18.6508 C.ar    1  UNL1        0.0000
     12 C         -10.4854  -19.6691   19.3246 C.ar    1  UNL1       -0.0000
     13 C         -10.4126  -18.9794   20.6547 C.ar    1  UNL1       -0.0000
     14 S          -5.6714  -15.2362   24.6858 S.3     1  UNL1       -0.0709
     15 C          -1.6674  -18.5131   20.8342 C.2     1  UNL1        0.1223
     16 C          -2.4576  -19.6956   21.3110 C.2     1  UNL1        0.0343
     17 C          -3.5845  -19.5025   22.2820 C.2     1  UNL1        0.0232
     18 C          -3.9212  -18.1269   22.7763 C.2     1  UNL1        0.0975
     19 N          -4.9690  -17.6309   23.7282 N.2     1  UNL1       -0.2200
     20 C          -4.8263  -16.1419   23.8398 C.2     1  UNL1        0.1901
     21 N          -3.6904  -15.7176   22.9568 N.2     1  UNL1       -0.2236
     22 C          -3.1310  -16.9445   22.2995 C.2     1  UNL1        0.0863
     23 C          -2.0041  -17.1376   21.3285 C.3     1  UNL1        0.1112
     24 C           0.5940  -17.7258   19.8263 C.3     1  UNL1        0.2520
     25 O          -0.5406  -18.7062   19.8632 O.2     1  UNL1       -0.4753
@<TRIPOS>BOND
     1    24    25    1
     2    25    15    1
     3    15    16    2
     4    16    17    1
     5    17    18    2
     6    18    19    1
     7    19    20    2
     8    20    14    1
     9    14     1    1
    10     1     2    1
    11     2     3   ar
    12     3     4   ar
    13     4     5   ar
    14     5     6   ar
    15     6     8    1
    16     8     9   ar
    17     9    10   ar
    18    10    11   ar
    19    11    12   ar
    20    12    13   ar
    21     6     7   ar
    22    20    21    1
    23    21    22    2
    24    22    23    1
    25    23    15    1
    26    22    18    1
    27     7     2   ar
    28    13     8   ar
@<TRIPOS>MOLECULE
*****
 25 28 0 0 0
SMALL
GASTEIGER

@<TRIPOS>ATOM
      1 C         -11.5095  -17.3174   21.3521 C.3     1  UNL1        0.0913
      2 C         -11.0104  -17.6803   22.7193 C.ar    1  UNL1       -0.0109
      3 C         -11.6384  -18.8171   23.4697 C.ar    1  UNL1       -0.0034
      4 C         -11.1393  -19.1800   24.8368 C.ar    1  UNL1       -0.0003
      5 C         -10.0120  -18.4060   25.4536 C.ar    1  UNL1       -0.0000
      6 C          -9.3839  -17.2692   24.7032 C.ar    1  UNL1       -0.0003
      7 C          -9.8832  -16.9063   23.3360 C.ar    1  UNL1       -0.0034
      8 C          -8.2567  -16.4952   25.3199 C.ar    1  UNL1       -0.0000
      9 C          -8.2367  -16.2500   26.7995 C.ar    1  UNL1       -0.0000
     10 C          -7.1094  -15.4760   27.4163 C.ar    1  UNL1       -0.0000
     11 C          -6.0022  -14.9473   26.5533 C.ar    1  UNL1        0.0000
     12 C          -6.0223  -15.1926   25.0736 C.ar    1  UNL1       -0.0000
     13 C          -7.1496  -15.9666   24.4569 C.ar    1  UNL1       -0.0000
     14 S         -10.7903  -17.8165   20.1341 S.3     1  UNL1       -0.0709
     15 C          -4.7434  -19.8253   21.1361 C.2     1  UNL1        0.1223
     16 C          -5.1602  -20.9618   20.2503 C.2     1  UNL1        0.0343
     17 C          -6.5525  -21.0075   19.6941 C.2     1  UNL1        0.0232
     18 C          -7.5279  -19.9167   20.0236 C.2     1  UNL1        0.0975
     19 N          -8.9569  -19.6940   19.6254 N.2     1  UNL1       -0.2200
     20 C          -9.4232  -18.4199   20.2651 C.2     1  UNL1        0.1901
     21 N          -8.2825  -17.8551   21.0586 N.2     1  UNL1       -0.2236
     22 C          -7.1111  -18.7803   20.9094 C.2     1  UNL1        0.0863
     23 C          -5.7188  -18.7346   21.4656 C.3     1  UNL1        0.1112
     24 C          -2.2375  -19.1893   20.8791 C.3     1  UNL1        0.2520
     25 O          -3.3511  -19.7796   21.6924 O.2     1  UNL1       -0.4753
@<TRIPOS>BOND
     1    24    25    1
     2    25    15    1
     3    15    16    2
     4    16    17    1
     5    17    18    2
     6    18    19    1
     7    19    20    2
     8    20    14    1
     9    14     1    1
    10     1     2    1
    11     2     3   ar
    12     3     4   ar
    13     4     5   ar
    14     5     6   ar
    15     6     8    1
    16     8     9   ar
    17     9    10   ar
    18    10    11   ar
    19    11    12   ar
    20    12    13   ar
    21     6     7   ar
    22    20    21    1
    23    21    22    2
    24    22    23    1
    25    23    15    1
    26    22    18    1
    27     7     2   ar
    28    13     8   ar
@<TRIPOS>MOLECULE
*****
 25 28 0 0 0
SMALL
GASTEIGER

@<TRIPOS>ATOM
      1 C          -4.7491  -16.6278   24.0261 C.3     1  UNL1        0.0913
      2 C          -4.8736  -17.7276   23.0137 C.ar    1  UNL1       -0.0109
      3 C          -3.6671  -18.5297   22.6254 C.ar    1  UNL1       -0.0034
      4 C          -3.7916  -19.6294   21.6130 C.ar    1  UNL1       -0.0003
      5 C          -5.1228  -19.9272   20.9889 C.ar    1  UNL1       -0.0000
      6 C          -6.3294  -19.1251   21.3773 C.ar    1  UNL1       -0.0003
      7 C          -6.2048  -18.0253   22.3897 C.ar    1  UNL1       -0.0034
      8 C          -7.6605  -19.4228   20.7533 C.ar    1  UNL1       -0.0000
      9 C          -8.8984  -19.4410   21.6001 C.ar    1  UNL1       -0.0000
     10 C         -10.2297  -19.7387   20.9761 C.ar    1  UNL1       -0.0000
     11 C         -10.3228  -20.0181   19.5053 C.ar    1  UNL1        0.0000
     12 C          -9.0848  -19.9999   18.6585 C.ar    1  UNL1       -0.0000
     13 C          -7.7537  -19.7022   19.2825 C.ar    1  UNL1       -0.0000
     14 S          -5.7741  -15.5337   24.0750 S.3     1  UNL1       -0.0709
     15 C         -11.8897  -16.9787   22.6202 C.2     1  UNL1        0.1223
     16 C         -11.5665  -16.2746   21.3358 C.2     1  UNL1        0.0343
     17 C         -10.1977  -15.7009   21.1188 C.2     1  UNL1        0.0232
     18 C          -9.1519  -15.8314   22.1862 C.2     1  UNL1        0.0975
     19 N          -7.7262  -15.3704   22.2562 N.2     1  UNL1       -0.2200
     20 C          -7.1682  -15.7897   23.5840 C.2     1  UNL1        0.1901
     21 N          -8.2490  -16.5097   24.3345 N.2     1  UNL1       -0.2236
     22 C          -9.4750  -16.5355   23.4706 C.2     1  UNL1        0.0863
     23 C         -10.8439  -17.1091   23.6876 C.3     1  UNL1        0.1112
     24 C         -13.6619  -18.0360   24.1986 C.3     1  UNL1        0.2520
     25 O         -13.2585  -17.5524   22.8372 O.2     1  UNL1       -0.4753
@<TRIPOS>BOND
     1    24    25    1
     2    25    15    1
     3    15    16    2
     4    16    17    1
     5    17    18    2
     6    18    19    1
     7    19    20    2
     8    20    14    1
     9    14     1    1
    10     1     2    1
    11     2     3   ar
    12     3     4   ar
    13     4     5   ar
    14     5     6   ar
    15     6     8    1
    16     8     9   ar
    17     9    10   ar
    18    10    11   ar
    19    11    12   ar
    20    12    13   ar
    21     6     7   ar
    22    20    21    1
    23    21    22    2
    24    22    23    1
    25    23    15    1
    26    22    18    1
    27     7     2   ar
    28    13     8   ar
@<TRIPOS>MOLECULE
*****
 25 28 0 0 0
SMALL
GASTEIGER

@<TRIPOS>ATOM
      1 C          -4.6191  -16.6018   24.1216 C.3     1  UNL1        0.0913
      2 C          -4.7602  -17.6966   23.1061 C.ar    1  UNL1       -0.0109
      3 C          -3.5582  -18.4898   22.6864 C.ar    1  UNL1       -0.0034
      4 C          -3.6993  -19.5846   21.6709 C.ar    1  UNL1       -0.0003
      5 C          -5.0424  -19.8863   21.0749 C.ar    1  UNL1       -0.0000
      6 C          -6.2444  -19.0931   21.4945 C.ar    1  UNL1       -0.0003
      7 C          -6.1033  -17.9982   22.5102 C.ar    1  UNL1       -0.0034
      8 C          -7.5874  -19.3948   20.8986 C.ar    1  UNL1       -0.0000
      9 C          -7.7121  -19.6648   19.4285 C.ar    1  UNL1       -0.0000
     10 C          -9.0552  -19.9665   18.8325 C.ar    1  UNL1       -0.0000
     11 C         -10.2736  -19.9981   19.7068 C.ar    1  UNL1        0.0000
     12 C         -10.1490  -19.7280   21.1770 C.ar    1  UNL1       -0.0000
     13 C          -8.8059  -19.4264   21.7729 C.ar    1  UNL1       -0.0000
     14 S          -5.6407  -15.5055   24.1895 S.3     1  UNL1       -0.0709
     15 C         -11.4272  -16.2693   21.4439 C.2     1  UNL1        0.1223
     16 C         -11.7914  -16.8431   22.7811 C.2     1  UNL1        0.0343
     17 C         -10.7633  -16.9170   23.8708 C.2     1  UNL1        0.0232
     18 C          -9.3709  -16.4170   23.6234 C.2     1  UNL1        0.0975
     19 N          -8.1544  -16.3604   24.4991 N.2     1  UNL1       -0.2200
     20 C          -7.0382  -15.7515   23.7031 C.2     1  UNL1        0.1901
     21 N          -7.5649  -15.4319   22.3355 N.2     1  UNL1       -0.2236
     22 C          -9.0067  -15.8432   22.2863 C.2     1  UNL1        0.0863
     23 C         -10.0348  -15.7694   21.1965 C.3     1  UNL1        0.1112
     24 C         -12.0962  -15.6043   19.0232 C.3     1  UNL1        0.2520
     25 O         -12.4553  -16.1955   20.3542 O.2     1  UNL1       -0.4753
@<TRIPOS>BOND
     1    24    25    1
     2    25    15    1
     3    15    16    2
     4    16    17    1
     5    17    18    2
     6    18    19    1
     7    19    20    2
     8    20    14    1
     9    14     1    1
    10     1     2    1
    11     2     3   ar
    12     3     4   ar
    13     4     5   ar
    14     5     6   ar
    15     6     8    1
    16     8     9   ar
    17     9    10   ar
    18    10    11   ar
    19    11    12   ar
    20    12    13   ar
    21     6     7   ar
    22    20    21    1
    23    21    22    2
    24    22    23    1
    25    23    15    1
    26    22    18    1
    27     7     2   ar
    28    13     8   ar
@<TRIPOS>MOLECULE
*****
 25 28 0 0 0
SMALL
GASTEIGER

@<TRIPOS>ATOM
      1 C          -9.7042   -5.5160   18.9970 C.3     1  UNL1        0.0913
      2 C         -10.0156   -4.3099   18.1615 C.ar    1  UNL1       -0.0109
      3 C          -9.2052   -4.0188   16.9333 C.ar    1  UNL1       -0.0034
      4 C          -9.5165   -2.8126   16.0977 C.ar    1  UNL1       -0.0003
      5 C         -10.6383   -1.8974   16.4904 C.ar    1  UNL1       -0.0000
      6 C         -11.4487   -2.1885   17.7186 C.ar    1  UNL1       -0.0003
      7 C         -11.1373   -3.3948   18.5542 C.ar    1  UNL1       -0.0034
      8 C         -12.5705   -1.2734   18.1113 C.ar    1  UNL1       -0.0000
      9 C         -12.4833    0.1929   17.8079 C.ar    1  UNL1       -0.0000
     10 C         -13.6050    1.1081   18.2006 C.ar    1  UNL1       -0.0000
     11 C         -14.8140    0.5568   18.8967 C.ar    1  UNL1        0.0000
     12 C         -14.9012   -0.9096   19.2000 C.ar    1  UNL1       -0.0000
     13 C         -13.7794   -1.8247   18.8074 C.ar    1  UNL1       -0.0000
     14 S         -10.2664   -6.8547   18.6204 S.3     1  UNL1       -0.0709
     15 C         -16.7063   -7.1879   18.7650 C.2     1  UNL1        0.1223
     16 C         -16.5085   -8.1329   17.6171 C.2     1  UNL1        0.0343
     17 C         -15.1238   -8.4420   17.1301 C.2     1  UNL1        0.0232
     18 C         -13.9369   -7.8062   17.7912 C.2     1  UNL1        0.0975
     19 N         -12.4638   -7.9188   17.5321 N.2     1  UNL1       -0.2200
     20 C         -11.7511   -7.0434   18.5199 C.2     1  UNL1        0.1901
     21 N         -12.7838   -6.3897   19.3895 N.2     1  UNL1       -0.2236
     22 C         -14.1348   -6.8612   18.9391 C.2     1  UNL1        0.0863
     23 C         -15.5194   -6.5520   19.4260 C.3     1  UNL1        0.1112
     24 C         -18.8067   -7.8497   20.1434 C.3     1  UNL1        0.2520
     25 O         -18.0910   -6.8787   19.2519 O.2     1  UNL1       -0.4753
@<TRIPOS>BOND
     1    24    25    1
     2    25    15    1
     3    15    16    2
     4    16    17    1
     5    17    18    2
     6    18    19    1
     7    19    20    2
     8    20    14    1
     9    14     1    1
    10     1     2    1
    11     2     3   ar
    12     3     4   ar
    13     4     5   ar
    14     5     6   ar
    15     6     8    1
    16     8     9   ar
    17     9    10   ar
    18    10    11   ar
    19    11    12   ar
    20    12    13   ar
    21     6     7   ar
    22    20    21    1
    23    21    22    2
    24    22    23    1
    25    23    15    1
    26    22    18    1
    27     7     2   ar
    28    13     8   ar
@<TRIPOS>MOLECULE
*****
 25 28 0 0 0
SMALL
GASTEIGER

@<TRIPOS>ATOM
      1 C           7.4896   -2.6417   20.4442 C.3     1  UNL1        0.0913
      2 C           6.0775   -2.9016   20.0103 C.ar    1  UNL1       -0.0109
      3 C           5.6463   -4.2935   19.6545 C.ar    1  UNL1       -0.0034
      4 C           4.2342   -4.5534   19.2206 C.ar    1  UNL1       -0.0003
      5 C           3.2531   -3.4213   19.1426 C.ar    1  UNL1       -0.0000
      6 C           3.6843   -2.0293   19.4984 C.ar    1  UNL1       -0.0003
      7 C           5.0966   -1.7695   19.9323 C.ar    1  UNL1       -0.0034
      8 C           2.7034   -0.8973   19.4203 C.ar    1  UNL1       -0.0000
      9 C           2.9413    0.2369   18.4680 C.ar    1  UNL1       -0.0000
     10 C           1.9603    1.3690   18.3899 C.ar    1  UNL1       -0.0000
     11 C           0.7415    1.3670   19.2642 C.ar    1  UNL1        0.0000
     12 C           0.5036    0.2327   20.2166 C.ar    1  UNL1       -0.0000
     13 C           1.4846   -0.8993   20.2947 C.ar    1  UNL1       -0.0000
     14 S           8.3770   -3.7864   20.8347 S.3     1  UNL1       -0.0709
     15 C           7.6057   -7.5714   26.0002 C.2     1  UNL1        0.1223
     16 C           6.9959   -6.3371   26.5958 C.2     1  UNL1        0.0343
     17 C           6.9093   -5.0776   25.7858 C.2     1  UNL1        0.0232
     18 C           7.4324   -5.0524   24.3802 C.2     1  UNL1        0.0975
     19 N           7.4836   -3.9656   23.3477 N.2     1  UNL1       -0.2200
     20 C           8.1250   -4.5281   22.1139 C.2     1  UNL1        0.1901
     21 N           8.4702   -5.9627   22.3839 N.2     1  UNL1       -0.2236
     22 C           8.0421   -6.2867   23.7846 C.2     1  UNL1        0.0863
     23 C           8.1288   -7.5462   24.5947 C.3     1  UNL1        0.1112
     24 C           8.8787   -9.0731   27.6955 C.3     1  UNL1        0.2520
     25 O           7.6924   -8.8309   26.8103 O.2     1  UNL1       -0.4753
@<TRIPOS>BOND
     1    24    25    1
     2    25    15    1
     3    15    16    2
     4    16    17    1
     5    17    18    2
     6    18    19    1
     7    19    20    2
     8    20    14    1
     9    14     1    1
    10     1     2    1
    11     2     3   ar
    12     3     4   ar
    13     4     5   ar
    14     5     6   ar
    15     6     8    1
    16     8     9   ar
    17     9    10   ar
    18    10    11   ar
    19    11    12   ar
    20    12    13   ar
    21     6     7   ar
    22    20    21    1
    23    21    22    2
    24    22    23    1
    25    23    15    1
    26    22    18    1
    27     7     2   ar
    28    13     8   ar
@<TRIPOS>MOLECULE
*****
 25 28 0 0 0
SMALL
GASTEIGER

@<TRIPOS>ATOM
      1 C           7.4232   -2.8650   20.5238 C.3     1  UNL1        0.0913
      2 C           6.0136   -3.0783   20.0575 C.ar    1  UNL1       -0.0109
      3 C           5.5496   -4.4529   19.6765 C.ar    1  UNL1       -0.0034
      4 C           4.1400   -4.6662   19.2102 C.ar    1  UNL1       -0.0003
      5 C           3.1944   -3.5049   19.1248 C.ar    1  UNL1       -0.0000
      6 C           3.6584   -2.1303   19.5057 C.ar    1  UNL1       -0.0003
      7 C           5.0681   -1.9170   19.9721 C.ar    1  UNL1       -0.0034
      8 C           2.7129   -0.9690   19.4204 C.ar    1  UNL1       -0.0000
      9 C           2.9945    0.1593   18.4730 C.ar    1  UNL1       -0.0000
     10 C           2.0490    1.3207   18.3876 C.ar    1  UNL1       -0.0000
     11 C           0.8218    1.3537   19.2495 C.ar    1  UNL1        0.0000
     12 C           0.5403    0.2253   20.1970 C.ar    1  UNL1       -0.0000
     13 C           1.4858   -0.9360   20.2823 C.ar    1  UNL1       -0.0000
     14 S           8.2325   -4.0259   21.0210 S.3     1  UNL1       -0.0709
     15 C           6.7949   -5.8300   27.0446 C.2     1  UNL1        0.1223
     16 C           7.3506   -7.1488   26.5954 C.2     1  UNL1        0.0343
     17 C           7.8635   -7.3088   25.1950 C.2     1  UNL1        0.0232
     18 C           7.8209   -6.1498   24.2437 C.2     1  UNL1        0.0975
     19 N           8.2508   -6.0088   22.8136 N.2     1  UNL1       -0.2200
     20 C           7.9610   -4.6027   22.3789 C.2     1  UNL1        0.1901
     21 N           7.3518   -3.8747   23.5403 N.2     1  UNL1       -0.2236
     22 C           7.2653   -4.8310   24.6929 C.2     1  UNL1        0.0863
     23 C           6.7523   -4.6710   26.0933 C.3     1  UNL1        0.1112
     24 C           7.2287   -5.7580   29.6052 C.3     1  UNL1        0.2520
     25 O           6.2820   -5.6700   28.4450 O.2     1  UNL1       -0.4753
@<TRIPOS>BOND
     1    24    25    1
     2    25    15    1
     3    15    16    2
     4    16    17    1
     5    17    18    2
     6    18    19    1
     7    19    20    2
     8    20    14    1
     9    14     1    1
    10     1     2    1
    11     2     3   ar
    12     3     4   ar
    13     4     5   ar
    14     5     6   ar
    15     6     8    1
    16     8     9   ar
    17     9    10   ar
    18    10    11   ar
    19    11    12   ar
    20    12    13   ar
    21     6     7   ar
    22    20    21    1
    23    21    22    2
    24    22    23    1
    25    23    15    1
    26    22    18    1
    27     7     2   ar
    28    13     8   ar
@<TRIPOS>MOLECULE
*****
 25 28 0 0 0
SMALL
GASTEIGER

@<TRIPOS>ATOM
      1 C         -10.3336   -5.7079   18.9821 C.3     1  UNL1        0.0913
      2 C         -11.3756   -6.4849   18.2336 C.ar    1  UNL1       -0.0109
      3 C         -11.0769   -7.0111   16.8611 C.ar    1  UNL1       -0.0034
      4 C         -12.1190   -7.7881   16.1125 C.ar    1  UNL1       -0.0003
      5 C         -13.4599   -8.0388   16.7365 C.ar    1  UNL1       -0.0000
      6 C         -13.7586   -7.5126   18.1091 C.ar    1  UNL1       -0.0003
      7 C         -12.7164   -6.7356   18.8576 C.ar    1  UNL1       -0.0034
      8 C         -15.0993   -7.7634   18.7331 C.ar    1  UNL1       -0.0000
      9 C         -15.5592   -9.1691   18.9828 C.ar    1  UNL1       -0.0000
     10 C         -16.9000   -9.4199   19.6069 C.ar    1  UNL1       -0.0000
     11 C         -17.7809   -8.2649   19.9812 C.ar    1  UNL1        0.0000
     12 C         -17.3209   -6.8591   19.7314 C.ar    1  UNL1       -0.0000
     13 C         -15.9802   -6.6084   19.1074 C.ar    1  UNL1       -0.0000
     14 S         -10.1583   -4.2416   18.7190 S.3     1  UNL1       -0.0709
     15 C         -15.5123   -0.7619   19.6300 C.2     1  UNL1        0.1223
     16 C         -14.8453    0.1895   18.6815 C.2     1  UNL1        0.0343
     17 C         -13.4937   -0.1368   18.1186 C.2     1  UNL1        0.0232
     18 C         -12.8092   -1.4145   18.5043 C.2     1  UNL1        0.0975
     19 N         -11.4851   -2.0013   18.1140 N.2     1  UNL1       -0.2200
     20 C         -11.3338   -3.3155   18.8213 C.2     1  UNL1        0.1901
     21 N         -12.5644   -3.5408   19.6488 N.2     1  UNL1       -0.2236
     22 C         -13.4763   -2.3660   19.4529 C.2     1  UNL1        0.0863
     23 C         -14.8279   -2.0396   20.0157 C.3     1  UNL1        0.1112
     24 C         -17.0999    0.8882   20.8576 C.3     1  UNL1        0.2520
     25 O         -16.8639   -0.4356   20.1929 O.2     1  UNL1       -0.4753
@<TRIPOS>BOND
     1    24    25    1
     2    25    15    1
     3    15    16    2
     4    16    17    1
     5    17    18    2
     6    18    19    1
     7    19    20    2
     8    20    14    1
     9    14     1    1
    10     1     2    1
    11     2     3   ar
    12     3     4   ar
    13     4     5   ar
    14     5     6   ar
    15     6     8    1
    16     8     9   ar
    17     9    10   ar
    18    10    11   ar
    19    11    12   ar
    20    12    13   ar
    21     6     7   ar
    22    20    21    1
    23    21    22    2
    24    22    23    1
    25    23    15    1
    26    22    18    1
    27     7     2   ar
    28    13     8   ar
