@<TRIPOS>MOLECULE
*****
 27 29 0 0 0
SMALL
GASTEIGER

@<TRIPOS>ATOM
      1 C          -8.9176  -17.4879   23.3062 C.ar    1  UNL1        0.1194
      2 N          -8.2562  -16.2184   23.7546 N.ar    1  UNL1       -0.2208
      3 C          -6.7886  -16.0143   23.5209 C.ar    1  UNL1        0.2002
      4 N          -5.9825  -17.0796   22.8389 N.ar    1  UNL1       -0.2058
      5 C          -6.6439  -18.3490   22.3905 C.ar    1  UNL1        0.1695
      6 C          -8.1114  -18.5532   22.6242 C.ar    1  UNL1        0.1834
      7 O          -8.7728  -19.8227   22.1758 O.3     1  UNL1       -0.5020
      8 H          -8.2692  -20.4881   21.7497 H       1  UNL1        0.2924
      9 C         -14.7878  -18.3044   24.2409 C.3     1  UNL1        0.0310
     10 C         -13.3203  -18.1003   24.0072 C.ar    1  UNL1       -0.0218
     11 C         -12.8551  -17.1399   22.9531 C.ar    1  UNL1       -0.0042
     12 C         -11.3876  -16.9358   22.7194 C.ar    1  UNL1        0.0013
     13 C         -10.3851  -17.6920   23.5399 C.ar    1  UNL1        0.0208
     14 C         -10.8503  -18.6524   24.5940 C.ar    1  UNL1        0.0013
     15 C         -12.3178  -18.8565   24.8277 C.ar    1  UNL1       -0.0042
     16 N          -5.8377  -19.4144   21.7084 N.pl3   1  UNL1       -0.2954
     17 H          -6.2110  -20.3185   21.5968 H       1  UNL1        0.1537
     18 C          -4.4628  -19.1022   21.1965 C.ar    1  UNL1        0.0494
     19 C          -3.3051  -19.0367   22.1481 C.ar    1  UNL1        0.0144
     20 C          -1.9301  -18.7245   21.6361 C.ar    1  UNL1       -0.0017
     21 C          -1.7129  -18.4777   20.1725 C.ar    1  UNL1       -0.0065
     22 C          -2.8706  -18.5432   19.2210 C.ar    1  UNL1       -0.0017
     23 C          -4.2455  -18.8555   19.7329 C.ar    1  UNL1        0.0144
     24 C          -0.3380  -18.1655   19.6605 C.3     1  UNL1        0.0922
     25 N           0.7640  -17.8362   20.6234 N.3     1  UNL1       -0.3175
     26 H           0.5529  -16.9559   21.0936 H       1  UNL1        0.1192
     27 H           1.6442  -17.7479   20.1156 H       1  UNL1        0.1192
@<TRIPOS>BOND
     1     9    10    1
     2    10    11   ar
     3    11    12   ar
     4    12    13   ar
     5    13     1    1
     6     1     2   ar
     7     2     3   ar
     8     3     4   ar
     9     4     5   ar
    10     5    16    1
    11    16    18    1
    12    18    19   ar
    13    19    20   ar
    14    20    21   ar
    15    21    24    1
    16    24    25    1
    17    21    22   ar
    18    22    23   ar
    19     5     6   ar
    20     6     7    1
    21    13    14   ar
    22    14    15   ar
    23    15    10   ar
    24     6     1   ar
    25    23    18   ar
    26    16    17    1
    27    25    26    1
    28    25    27    1
    29     7     8    1
@<TRIPOS>MOLECULE
*****
 27 29 0 0 0
SMALL
GASTEIGER

@<TRIPOS>ATOM
      1 C          -5.5692  -18.9674   20.8938 C.ar    1  UNL1        0.1194
      2 N          -6.3486  -19.9278   20.0452 N.ar    1  UNL1       -0.2208
      3 C          -7.8179  -20.1159   20.2819 C.ar    1  UNL1        0.2002
      4 N          -8.5077  -19.3436   21.3671 N.ar    1  UNL1       -0.2058
      5 C          -7.7282  -18.3832   22.2156 C.ar    1  UNL1        0.1695
      6 C          -6.2590  -18.1951   21.9790 C.ar    1  UNL1        0.1834
      7 O          -5.4796  -17.2347   22.8276 O.3     1  UNL1       -0.5020
      8 H          -5.9105  -16.7522   23.5055 H       1  UNL1        0.2924
      9 C           0.3077  -18.2149   19.9472 C.3     1  UNL1        0.0310
     10 C          -1.1615  -18.4030   20.1838 C.ar    1  UNL1       -0.0218
     11 C          -2.1407  -18.1207   19.0832 C.ar    1  UNL1       -0.0042
     12 C          -3.6099  -18.3089   19.3198 C.ar    1  UNL1        0.0013
     13 C          -4.1000  -18.7793   20.6571 C.ar    1  UNL1        0.0208
     14 C          -3.1208  -19.0616   21.7578 C.ar    1  UNL1        0.0013
     15 C          -1.6516  -18.8735   21.5212 C.ar    1  UNL1       -0.0042
     16 N          -8.4180  -17.6109   23.3009 N.pl3   1  UNL1       -0.2954
     17 H          -7.9006  -17.0043   23.8784 H       1  UNL1        0.1537
     18 C          -9.8961  -17.7628   23.5061 C.ar    1  UNL1        0.0494
     19 C         -10.8532  -16.9136   22.7232 C.ar    1  UNL1        0.0144
     20 C         -12.3314  -17.0655   22.9285 C.ar    1  UNL1       -0.0017
     21 C         -12.8523  -18.0667   23.9166 C.ar    1  UNL1       -0.0065
     22 C         -11.8953  -18.9158   24.6995 C.ar    1  UNL1       -0.0017
     23 C         -10.4171  -18.7639   24.4942 C.ar    1  UNL1        0.0144
     24 C         -14.3304  -18.2186   24.1219 C.3     1  UNL1        0.0922
     25 N         -14.8692  -18.5416   25.4841 N.3     1  UNL1       -0.3175
     26 H         -14.5619  -19.4746   25.7588 H       1  UNL1        0.1192
     27 H         -15.8886  -18.5120   25.4623 H       1  UNL1        0.1192
@<TRIPOS>BOND
     1     9    10    1
     2    10    11   ar
     3    11    12   ar
     4    12    13   ar
     5    13     1    1
     6     1     2   ar
     7     2     3   ar
     8     3     4   ar
     9     4     5   ar
    10     5    16    1
    11    16    18    1
    12    18    19   ar
    13    19    20   ar
    14    20    21   ar
    15    21    24    1
    16    24    25    1
    17    21    22   ar
    18    22    23   ar
    19     5     6   ar
    20     6     7    1
    21    13    14   ar
    22    14    15   ar
    23    15    10   ar
    24     6     1   ar
    25    23    18   ar
    26    16    17    1
    27    25    26    1
    28    25    27    1
    29     7     8    1
@<TRIPOS>MOLECULE
*****
 27 29 0 0 0
SMALL
GASTEIGER

@<TRIPOS>ATOM
      1 C          -8.1037  -18.0203   22.0782 C.ar    1  UNL1        0.1194
      2 N          -9.2677  -18.0034   21.1322 N.ar    1  UNL1       -0.2208
      3 C          -9.1839  -18.7374   19.8267 C.ar    1  UNL1        0.2002
      4 N          -7.9361  -19.4883   19.4673 N.ar    1  UNL1       -0.2058
      5 C          -6.7722  -19.5052   20.4133 C.ar    1  UNL1        0.1695
      6 C          -6.8560  -18.7711   21.7187 C.ar    1  UNL1        0.1834
      7 O          -5.6920  -18.7880   22.6647 O.3     1  UNL1       -0.5020
      8 H          -4.9125  -19.2571   22.4402 H       1  UNL1        0.2924
      9 C          -8.4390  -15.0842   27.3000 C.3     1  UNL1        0.0310
     10 C          -8.3552  -15.8182   25.9945 C.ar    1  UNL1       -0.0218
     11 C          -7.4602  -15.3090   24.9039 C.ar    1  UNL1       -0.0042
     12 C          -7.3764  -16.0430   23.5984 C.ar    1  UNL1        0.0013
     13 C          -8.1876  -17.2862   23.3836 C.ar    1  UNL1        0.0208
     14 C          -9.0826  -17.7955   24.4743 C.ar    1  UNL1        0.0013
     15 C          -9.1664  -17.0615   25.7797 C.ar    1  UNL1       -0.0042
     16 N          -5.5243  -20.2561   20.0538 N.pl3   1  UNL1       -0.2954
     17 H          -5.5734  -21.2132   19.8286 H       1  UNL1        0.1537
     18 C          -4.2018  -19.5486   20.0375 C.ar    1  UNL1        0.0494
     19 C          -3.1073  -19.9831   20.9667 C.ar    1  UNL1        0.0144
     20 C          -1.7847  -19.2757   20.9504 C.ar    1  UNL1       -0.0017
     21 C          -1.5566  -18.1337   20.0049 C.ar    1  UNL1       -0.0065
     22 C          -2.6510  -17.6992   19.0758 C.ar    1  UNL1       -0.0017
     23 C          -3.9736  -18.4067   19.0921 C.ar    1  UNL1        0.0144
     24 C          -0.2340  -17.4262   19.9886 C.3     1  UNL1        0.0922
     25 N           0.9518  -18.0371   20.6749 N.3     1  UNL1       -0.3175
     26 H           0.7854  -18.0648   21.6808 H       1  UNL1        0.1192
     27 H           1.7819  -17.4763   20.4829 H       1  UNL1        0.1192
@<TRIPOS>BOND
     1     9    10    1
     2    10    11   ar
     3    11    12   ar
     4    12    13   ar
     5    13     1    1
     6     1     2   ar
     7     2     3   ar
     8     3     4   ar
     9     4     5   ar
    10     5    16    1
    11    16    18    1
    12    18    19   ar
    13    19    20   ar
    14    20    21   ar
    15    21    24    1
    16    24    25    1
    17    21    22   ar
    18    22    23   ar
    19     5     6   ar
    20     6     7    1
    21    13    14   ar
    22    14    15   ar
    23    15    10   ar
    24     6     1   ar
    25    23    18   ar
    26    16    17    1
    27    25    26    1
    28    25    27    1
    29     7     8    1
@<TRIPOS>MOLECULE
*****
 27 29 0 0 0
SMALL
GASTEIGER

@<TRIPOS>ATOM
      1 C          -6.9209  -18.9452   20.4846 C.ar    1  UNL1        0.1194
      2 N          -7.6278  -19.8327   19.5035 N.ar    1  UNL1       -0.2208
      3 C          -9.1131  -19.7215   19.3265 C.ar    1  UNL1        0.2002
      4 N          -9.8916  -18.7228   20.1306 N.ar    1  UNL1       -0.2058
      5 C          -9.1847  -17.8353   21.1117 C.ar    1  UNL1        0.1695
      6 C          -7.6993  -17.9465   21.2887 C.ar    1  UNL1        0.1834
      7 O          -6.9924  -17.0589   22.2698 O.3     1  UNL1       -0.5020
      8 H          -7.4787  -16.4351   22.7721 H       1  UNL1        0.2924
      9 C          -0.9794  -19.3900   21.1926 C.3     1  UNL1        0.0310
     10 C          -2.4648  -19.2788   21.0156 C.ar    1  UNL1       -0.0218
     11 C          -3.3757  -19.4531   22.1945 C.ar    1  UNL1       -0.0042
     12 C          -4.8611  -19.3419   22.0175 C.ar    1  UNL1        0.0013
     13 C          -5.4355  -19.0564   20.6616 C.ar    1  UNL1        0.0208
     14 C          -4.5246  -18.8820   19.4827 C.ar    1  UNL1        0.0013
     15 C          -3.0392  -18.9932   19.6597 C.ar    1  UNL1       -0.0042
     16 N          -9.9631  -16.8365   21.9158 N.pl3   1  UNL1       -0.2954
     17 H          -9.6940  -15.8895   21.9184 H       1  UNL1        0.1537
     18 C         -11.1515  -17.2807   22.7160 C.ar    1  UNL1        0.0494
     19 C         -10.9891  -18.3180   23.7874 C.ar    1  UNL1        0.0144
     20 C         -12.1775  -18.7622   24.5876 C.ar    1  UNL1       -0.0017
     21 C         -13.5284  -18.1690   24.3165 C.ar    1  UNL1       -0.0065
     22 C         -13.6908  -17.1318   23.2452 C.ar    1  UNL1       -0.0017
     23 C         -12.5023  -16.6876   22.4449 C.ar    1  UNL1        0.0144
     24 C         -14.7168  -18.6132   25.1167 C.3     1  UNL1        0.0922
     25 N         -14.6363  -18.6646   26.6137 N.3     1  UNL1       -0.3175
     26 H         -13.9650  -19.3797   26.8937 H       1  UNL1        0.1192
     27 H         -15.5543  -18.8916   26.9960 H       1  UNL1        0.1192
@<TRIPOS>BOND
     1     9    10    1
     2    10    11   ar
     3    11    12   ar
     4    12    13   ar
     5    13     1    1
     6     1     2   ar
     7     2     3   ar
     8     3     4   ar
     9     4     5   ar
    10     5    16    1
    11    16    18    1
    12    18    19   ar
    13    19    20   ar
    14    20    21   ar
    15    21    24    1
    16    24    25    1
    17    21    22   ar
    18    22    23   ar
    19     5     6   ar
    20     6     7    1
    21    13    14   ar
    22    14    15   ar
    23    15    10   ar
    24     6     1   ar
    25    23    18   ar
    26    16    17    1
    27    25    26    1
    28    25    27    1
    29     7     8    1
@<TRIPOS>MOLECULE
*****
 27 29 0 0 0
SMALL
GASTEIGER

@<TRIPOS>ATOM
      1 C         -14.0458   -7.0447   18.7251 C.ar    1  UNL1        0.1194
      2 N         -13.3768   -7.9762   17.7583 N.ar    1  UNL1       -0.2208
      3 C         -11.9740   -7.7034   17.3025 C.ar    1  UNL1        0.2002
      4 N         -11.2402   -6.4991   17.8136 N.ar    1  UNL1       -0.2058
      5 C         -11.9092   -5.5677   18.7804 C.ar    1  UNL1        0.1695
      6 C         -13.3120   -5.8404   19.2361 C.ar    1  UNL1        0.1834
      7 O         -13.9810   -4.9089   20.2030 O.3     1  UNL1       -0.5020
      8 H         -13.5226   -4.1566   20.5222 H       1  UNL1        0.2924
      9 C         -19.6571   -8.1359   20.5481 C.3     1  UNL1        0.0310
     10 C         -18.2543   -7.8631   20.0923 C.ar    1  UNL1       -0.0218
     11 C         -17.2157   -8.9421   20.1749 C.ar    1  UNL1       -0.0042
     12 C         -15.8128   -8.6693   19.7191 C.ar    1  UNL1        0.0013
     13 C         -15.4487   -7.3175   19.1808 C.ar    1  UNL1        0.0208
     14 C         -16.4873   -6.2385   19.0982 C.ar    1  UNL1        0.0013
     15 C         -17.8901   -6.5112   19.5540 C.ar    1  UNL1       -0.0042
     16 N         -11.1754   -4.3633   19.2915 N.pl3   1  UNL1       -0.2954
     17 H         -10.5900   -4.4412   20.0792 H       1  UNL1        0.1537
     18 C         -11.3335   -3.0404   18.6023 C.ar    1  UNL1        0.0494
     19 C         -12.2758   -2.0136   19.1572 C.ar    1  UNL1        0.0144
     20 C         -12.4339   -0.6907   18.4681 C.ar    1  UNL1       -0.0017
     21 C         -11.6497   -0.3946   17.2241 C.ar    1  UNL1       -0.0065
     22 C         -10.7075   -1.4214   16.6693 C.ar    1  UNL1       -0.0017
     23 C         -10.5494   -2.7443   17.3584 C.ar    1  UNL1        0.0144
     24 C         -11.8078    0.9283   16.5349 C.3     1  UNL1        0.0922
     25 N         -11.9338    2.1852   17.3441 N.3     1  UNL1       -0.3175
     26 H         -12.8056    2.1630   17.8731 H       1  UNL1        0.1192
     27 H         -11.9350    2.9923   16.7204 H       1  UNL1        0.1192
@<TRIPOS>BOND
     1     9    10    1
     2    10    11   ar
     3    11    12   ar
     4    12    13   ar
     5    13     1    1
     6     1     2   ar
     7     2     3   ar
     8     3     4   ar
     9     4     5   ar
    10     5    16    1
    11    16    18    1
    12    18    19   ar
    13    19    20   ar
    14    20    21   ar
    15    21    24    1
    16    24    25    1
    17    21    22   ar
    18    22    23   ar
    19     5     6   ar
    20     6     7    1
    21    13    14   ar
    22    14    15   ar
    23    15    10   ar
    24     6     1   ar
    25    23    18   ar
    26    16    17    1
    27    25    26    1
    28    25    27    1
    29     7     8    1
@<TRIPOS>MOLECULE
*****
 27 29 0 0 0
SMALL
GASTEIGER

@<TRIPOS>ATOM
      1 C         -14.6095   -7.1381   18.8747 C.ar    1  UNL1        0.1194
      2 N         -13.2911   -7.7039   18.4369 N.ar    1  UNL1       -0.2208
      3 C         -12.0288   -6.9255   18.6627 C.ar    1  UNL1        0.2002
      4 N         -12.0850   -5.5815   19.3262 N.ar    1  UNL1       -0.2058
      5 C         -13.4034   -5.0157   19.7639 C.ar    1  UNL1        0.1695
      6 C         -14.6656   -5.7940   19.5382 C.ar    1  UNL1        0.1834
      7 O         -15.9841   -5.2282   19.9760 O.3     1  UNL1       -0.5020
      8 H         -16.0192   -4.3886   20.3905 H       1  UNL1        0.2924
      9 C         -19.6585  -10.2514   17.9717 C.3     1  UNL1        0.0310
     10 C         -18.3962   -9.4731   18.1975 C.ar    1  UNL1       -0.0218
     11 C         -17.8337   -8.6212   17.0985 C.ar    1  UNL1       -0.0042
     12 C         -16.5714   -7.8429   17.3242 C.ar    1  UNL1        0.0013
     13 C         -15.8717   -7.9164   18.6490 C.ar    1  UNL1        0.0208
     14 C         -16.4343   -8.7683   19.7480 C.ar    1  UNL1        0.0013
     15 C         -17.6965   -9.5466   19.5222 C.ar    1  UNL1       -0.0042
     16 N         -13.4596   -3.6716   20.4275 N.pl3   1  UNL1       -0.2954
     17 H         -13.5522   -3.6090   21.4056 H       1  UNL1        0.1537
     18 C         -13.3747   -2.4229   19.6006 C.ar    1  UNL1        0.0494
     19 C         -14.6142   -1.6289   19.3119 C.ar    1  UNL1        0.0144
     20 C         -14.5293   -0.3802   18.4850 C.ar    1  UNL1       -0.0017
     21 C         -13.2049    0.0744   17.9470 C.ar    1  UNL1       -0.0065
     22 C         -11.9655   -0.7196   18.2358 C.ar    1  UNL1       -0.0017
     23 C         -12.0504   -1.9682   19.0626 C.ar    1  UNL1        0.0144
     24 C         -13.1200    1.3231   17.1202 C.3     1  UNL1        0.0922
     25 N         -11.9331    2.2308   17.2523 N.3     1  UNL1       -0.3175
     26 H         -11.9223    2.6428   18.1853 H       1  UNL1        0.1192
     27 H         -11.9925    2.9719   16.5540 H       1  UNL1        0.1192
@<TRIPOS>BOND
     1     9    10    1
     2    10    11   ar
     3    11    12   ar
     4    12    13   ar
     5    13     1    1
     6     1     2   ar
     7     2     3   ar
     8     3     4   ar
     9     4     5   ar
    10     5    16    1
    11    16    18    1
    12    18    19   ar
    13    19    20   ar
    14    20    21   ar
    15    21    24    1
    16    24    25    1
    17    21    22   ar
    18    22    23   ar
    19     5     6   ar
    20     6     7    1
    21    13    14   ar
    22    14    15   ar
    23    15    10   ar
    24     6     1   ar
    25    23    18   ar
    26    16    17    1
    27    25    26    1
    28    25    27    1
    29     7     8    1
@<TRIPOS>MOLECULE
*****
 27 29 0 0 0
SMALL
GASTEIGER

@<TRIPOS>ATOM
      1 C           7.9789   -3.7613   21.0057 C.ar    1  UNL1        0.1194
      2 N           9.0968   -2.7875   20.7781 N.ar    1  UNL1       -0.2208
      3 C           9.0014   -1.7819   19.6691 C.ar    1  UNL1        0.2002
      4 N           7.7881   -1.7502   18.7878 N.ar    1  UNL1       -0.2058
      5 C           6.6702   -2.7241   19.0154 C.ar    1  UNL1        0.1695
      6 C           6.7656   -3.7296   20.1244 C.ar    1  UNL1        0.1834
      7 O           5.6476   -4.7036   20.3520 O.3     1  UNL1       -0.5020
      8 H           4.8897   -4.6838   19.8014 H       1  UNL1        0.2924
      9 C           8.3607   -7.7835   25.4415 C.3     1  UNL1        0.0310
     10 C           8.2652   -6.7780   24.3325 C.ar    1  UNL1       -0.0218
     11 C           7.4864   -5.5118   24.5332 C.ar    1  UNL1       -0.0042
     12 C           7.3910   -4.5063   23.4242 C.ar    1  UNL1        0.0013
     13 C           8.0744   -4.7669   22.1146 C.ar    1  UNL1        0.0208
     14 C           8.8532   -6.0330   21.9140 C.ar    1  UNL1        0.0013
     15 C           8.9486   -7.0386   23.0230 C.ar    1  UNL1       -0.0042
     16 N           5.4568   -2.6924   18.1341 N.pl3   1  UNL1       -0.2954
     17 H           5.4296   -3.2367   17.3142 H       1  UNL1        0.1537
     18 C           4.2848   -1.8315   18.5020 C.ar    1  UNL1        0.0494
     19 C           3.4861   -2.1386   19.7340 C.ar    1  UNL1        0.0144
     20 C           2.3141   -1.2777   20.1019 C.ar    1  UNL1       -0.0017
     21 C           1.9410   -0.1096   19.2379 C.ar    1  UNL1       -0.0065
     22 C           2.7397    0.1974   18.0059 C.ar    1  UNL1       -0.0017
     23 C           3.9117   -0.6635   17.6380 C.ar    1  UNL1        0.0144
     24 C           0.7691    0.7513   19.6058 C.3     1  UNL1        0.0922
     25 N          -0.2876    0.2243   20.5309 N.3     1  UNL1       -0.3175
     26 H          -0.7782   -0.5488   20.0814 H       1  UNL1        0.1192
     27 H          -0.9513    0.9679   20.7478 H       1  UNL1        0.1192
@<TRIPOS>BOND
     1     9    10    1
     2    10    11   ar
     3    11    12   ar
     4    12    13   ar
     5    13     1    1
     6     1     2   ar
     7     2     3   ar
     8     3     4   ar
     9     4     5   ar
    10     5    16    1
    11    16    18    1
    12    18    19   ar
    13    19    20   ar
    14    20    21   ar
    15    21    24    1
    16    24    25    1
    17    21    22   ar
    18    22    23   ar
    19     5     6   ar
    20     6     7    1
    21    13    14   ar
    22    14    15   ar
    23    15    10   ar
    24     6     1   ar
    25    23    18   ar
    26    16    17    1
    27    25    26    1
    28    25    27    1
    29     7     8    1
@<TRIPOS>MOLECULE
*****
 27 29 0 0 0
SMALL
GASTEIGER

@<TRIPOS>ATOM
      1 C           3.8372   -2.2934   19.6489 C.ar    1  UNL1        0.1194
      2 N           3.5284   -3.5898   18.9605 N.ar    1  UNL1       -0.2208
      3 C           4.4163   -4.7805   19.1703 C.ar    1  UNL1        0.2002
      4 N           5.6131   -4.6747   20.0684 N.ar    1  UNL1       -0.2058
      5 C           5.9219   -3.3783   20.7567 C.ar    1  UNL1        0.1695
      6 C           5.0340   -2.1876   20.5470 C.ar    1  UNL1        0.1834
      7 O           5.3428   -0.8912   21.2354 O.3     1  UNL1       -0.5020
      8 H           6.0904   -0.8251   21.7964 H       1  UNL1        0.2924
      9 C           0.2856    2.4692   18.8099 C.3     1  UNL1        0.0310
     10 C           1.1735    1.2785   19.0197 C.ar    1  UNL1       -0.0218
     11 C           2.4650    1.1638   18.2654 C.ar    1  UNL1       -0.0042
     12 C           3.3529   -0.0268   18.4751 C.ar    1  UNL1        0.0013
     13 C           2.9493   -1.1028   19.4391 C.ar    1  UNL1        0.0208
     14 C           1.6579   -0.9881   20.1934 C.ar    1  UNL1        0.0013
     15 C           0.7700    0.2025   19.9837 C.ar    1  UNL1       -0.0042
     16 N           7.1186   -3.2725   21.6549 N.pl3   1  UNL1       -0.2954
     17 H           7.9325   -2.8174   21.3390 H       1  UNL1        0.1537
     18 C           7.0754   -3.8600   23.0344 C.ar    1  UNL1        0.0494
     19 C           6.3723   -3.1287   24.1394 C.ar    1  UNL1        0.0144
     20 C           6.3291   -3.7162   25.5188 C.ar    1  UNL1       -0.0017
     21 C           6.9888   -5.0352   25.7933 C.ar    1  UNL1       -0.0065
     22 C           7.6918   -5.7665   24.6883 C.ar    1  UNL1       -0.0017
     23 C           7.7350   -5.1789   23.3088 C.ar    1  UNL1        0.0144
     24 C           6.9455   -5.6227   27.1727 C.3     1  UNL1        0.0922
     25 N           5.6313   -5.7871   27.8770 N.3     1  UNL1       -0.3175
     26 H           5.2318   -4.8687   28.0701 H       1  UNL1        0.1192
     27 H           5.7760   -6.2862   28.7547 H       1  UNL1        0.1192
@<TRIPOS>BOND
     1     9    10    1
     2    10    11   ar
     3    11    12   ar
     4    12    13   ar
     5    13     1    1
     6     1     2   ar
     7     2     3   ar
     8     3     4   ar
     9     4     5   ar
    10     5    16    1
    11    16    18    1
    12    18    19   ar
    13    19    20   ar
    14    20    21   ar
    15    21    24    1
    16    24    25    1
    17    21    22   ar
    18    22    23   ar
    19     5     6   ar
    20     6     7    1
    21    13    14   ar
    22    14    15   ar
    23    15    10   ar
    24     6     1   ar
    25    23    18   ar
    26    16    17    1
    27    25    26    1
    28    25    27    1
    29     7     8    1
@<TRIPOS>MOLECULE
*****
 27 29 0 0 0
SMALL
GASTEIGER

@<TRIPOS>ATOM
      1 C          -7.0277  -19.2781   20.3583 C.ar    1  UNL1        0.1194
      2 N          -7.6760  -20.1845   19.3543 N.ar    1  UNL1       -0.2208
      3 C          -9.1705  -20.2209   19.2317 C.ar    1  UNL1        0.2002
      4 N         -10.0167  -19.3507   20.1130 N.ar    1  UNL1       -0.2058
      5 C          -9.3684  -18.4443   21.1169 C.ar    1  UNL1        0.1695
      6 C          -7.8739  -18.4079   21.2396 C.ar    1  UNL1        0.1834
      7 O          -7.2256  -17.5014   22.2436 O.3     1  UNL1       -0.5020
      8 H          -7.7542  -16.9579   22.7941 H       1  UNL1        0.2924
      9 C          -1.0495  -19.1327   20.8489 C.3     1  UNL1        0.0310
     10 C          -2.5441  -19.1691   20.7262 C.ar    1  UNL1       -0.0218
     11 C          -3.3808  -19.6240   21.8850 C.ar    1  UNL1       -0.0042
     12 C          -4.8754  -19.6603   21.7623 C.ar    1  UNL1        0.0013
     13 C          -5.5331  -19.2417   20.4809 C.ar    1  UNL1        0.0208
     14 C          -4.6964  -18.7868   19.3222 C.ar    1  UNL1        0.0013
     15 C          -3.2018  -18.7505   19.4448 C.ar    1  UNL1       -0.0042
     16 N         -10.2147  -17.5741   21.9983 N.pl3   1  UNL1       -0.2954
     17 H         -11.0986  -17.2711   21.6883 H       1  UNL1        0.1537
     18 C          -9.7141  -17.1655   23.3520 C.ar    1  UNL1        0.0494
     19 C          -9.1968  -15.7748   23.5720 C.ar    1  UNL1        0.0144
     20 C          -8.6962  -15.3662   24.9257 C.ar    1  UNL1       -0.0017
     21 C          -8.7128  -16.3484   26.0594 C.ar    1  UNL1       -0.0065
     22 C          -9.2300  -17.7391   25.8393 C.ar    1  UNL1       -0.0017
     23 C          -9.7306  -18.1477   24.4856 C.ar    1  UNL1        0.0144
     24 C          -8.2122  -15.9399   27.4131 C.3     1  UNL1        0.0922
     25 N          -8.5480  -14.5836   27.9590 N.3     1  UNL1       -0.3175
     26 H          -8.1002  -13.8668   27.3879 H       1  UNL1        0.1192
     27 H          -8.2130  -14.5113   28.9197 H       1  UNL1        0.1192
@<TRIPOS>BOND
     1     9    10    1
     2    10    11   ar
     3    11    12   ar
     4    12    13   ar
     5    13     1    1
     6     1     2   ar
     7     2     3   ar
     8     3     4   ar
     9     4     5   ar
    10     5    16    1
    11    16    18    1
    12    18    19   ar
    13    19    20   ar
    14    20    21   ar
    15    21    24    1
    16    24    25    1
    17    21    22   ar
    18    22    23   ar
    19     5     6   ar
    20     6     7    1
    21    13    14   ar
    22    14    15   ar
    23    15    10   ar
    24     6     1   ar
    25    23    18   ar
    26    16    17    1
    27    25    26    1
    28    25    27    1
    29     7     8    1
