@<TRIPOS>MOLECULE
*****
 38 41 0 0 0
SMALL
GASTEIGER

@<TRIPOS>ATOM
      1 N         -15.2453   -3.1865   20.1948 N.am    1  UNL1       -0.2683
      2 C         -16.5863   -3.3399   19.5404 C.2     1  UNL1        0.3045
      3 O         -16.7768   -2.9196   18.1130 O.2     1  UNL1       -0.2525
      4 N         -17.7367   -3.9136   20.3132 N.am    1  UNL1       -0.2887
      5 H         -15.1202   -3.4623   21.1315 H       1  UNL1        0.1564
      6 H         -17.6117   -4.1895   21.2499 H       1  UNL1        0.1510
      7 C         -11.7910   -2.9155   18.2597 C.ar    1  UNL1       -0.0212
      8 C         -12.9414   -3.4892   19.0326 C.ar    1  UNL1        0.0104
      9 C         -14.0948   -2.6128   19.4218 C.ar    1  UNL1        0.0514
     10 C         -14.0978   -1.1627   19.0382 C.ar    1  UNL1        0.0178
     11 C         -12.9474   -0.5890   18.2653 C.ar    1  UNL1        0.0383
     12 C         -11.7940   -1.4654   17.8761 C.ar    1  UNL1       -0.0011
     13 C         -12.9503    0.8611   17.8817 C.ar    1  UNL1        0.1839
     14 N         -11.8021    1.6165   17.2808 N.ar    1  UNL1       -0.1081
     15 N         -12.2441    3.0327   17.0593 N.ar    1  UNL1       -0.0227
     16 N         -13.6655    3.1525   17.5233 N.ar    1  UNL1       -0.0429
     17 N         -14.1019    1.8105   18.0315 N.ar    1  UNL1       -0.2113
     18 C         -15.4529    1.4764   18.5913 C.3     1  UNL1        0.1573
     19 C         -10.4500   -4.1921   16.4371 C.3     1  UNL1        0.0047
     20 C         -10.6376   -3.7919   17.8705 C.3     1  UNL1        0.0224
     21 C          -9.6717   -4.2682   18.9146 C.3     1  UNL1        0.0047
     22 C         -19.0777   -4.0671   19.6588 C.3     1  UNL1        0.0924
     23 C         -19.5041   -5.4032   19.1268 C.3     1  UNL1        0.0386
     24 C         -19.1207   -6.6574   19.8548 C.3     1  UNL1        0.0738
     25 N         -18.1231   -7.6004   19.2502 N.3     1  UNL1       -0.2726
     26 C         -18.1538   -9.0563   19.6097 C.3     1  UNL1        0.0721
     27 C         -17.1562   -9.9993   19.0051 C.3     1  UNL1        0.0174
     28 C         -16.1279   -9.4863   18.0409 C.3     1  UNL1        0.0031
     29 C         -16.0973   -8.0303   17.6814 C.3     1  UNL1        0.0204
     30 C         -17.0949   -7.0874   18.2861 C.3     1  UNL1        0.0724
     31 C         -15.0690   -7.5173   16.7173 C.3     1  UNL1        0.0277
     32 C         -13.6169   -7.5295   17.0928 C.ar    1  UNL1       -0.0220
     33 C         -13.1976   -7.1424   18.4800 C.ar    1  UNL1       -0.0020
     34 C         -11.7454   -7.1546   18.8554 C.ar    1  UNL1        0.0293
     35 C         -10.7125   -7.5538   17.8437 C.ar    1  UNL1        0.1401
     36 F          -9.2602   -7.5659   18.2191 F       1  UNL1       -0.2042
     37 C         -11.1317   -7.9409   16.4565 C.ar    1  UNL1        0.0293
     38 C         -12.5839   -7.9287   16.0810 C.ar    1  UNL1       -0.0020
@<TRIPOS>BOND
     1    19    20    1
     2    20    21    1
     3    20     7    1
     4     7     8   ar
     5     8     9   ar
     6     9     1    1
     7     1     2   am
     8     2     3    2
     9     2     4   am
    10     4    22    1
    11    22    23    1
    12    23    24    1
    13    24    25    1
    14    25    26    1
    15    26    27    1
    16    27    28    1
    17    28    29    1
    18    29    31    1
    19    31    32    1
    20    32    33   ar
    21    33    34   ar
    22    34    35   ar
    23    35    36    1
    24    35    37   ar
    25    37    38   ar
    26    29    30    1
    27     9    10   ar
    28    10    11   ar
    29    11    13    1
    30    13    14   ar
    31    14    15   ar
    32    15    16   ar
    33    16    17   ar
    34    17    18    1
    35    11    12   ar
    36    12     7   ar
    37    30    25    1
    38    17    13   ar
    39    38    32   ar
    40     1     5    1
    41     4     6    1
@<TRIPOS>MOLECULE
*****
 38 41 0 0 0
SMALL
GASTEIGER

@<TRIPOS>ATOM
      1 N         -16.4242   -2.4526   20.1530 N.am    1  UNL1       -0.2683
      2 C         -17.3851   -3.1579   19.2425 C.2     1  UNL1        0.3045
      3 O         -17.4598   -2.7795   17.7928 O.2     1  UNL1       -0.2525
      4 N         -18.2713   -4.2414   19.7814 N.am    1  UNL1       -0.2887
      5 H         -16.3751   -2.7008   21.1045 H       1  UNL1        0.1564
      6 H         -18.2222   -4.4897   20.7329 H       1  UNL1        0.1510
      7 C         -13.2828   -0.6218   18.5624 C.ar    1  UNL1       -0.0212
      8 C         -14.1690   -1.7053   19.1014 C.ar    1  UNL1        0.0104
      9 C         -15.5380   -1.3689   19.6140 C.ar    1  UNL1        0.0514
     10 C         -16.0208    0.0510   19.5875 C.ar    1  UNL1        0.0178
     11 C         -15.1346    1.1345   19.0485 C.ar    1  UNL1        0.0383
     12 C         -13.7656    0.7981   18.5359 C.ar    1  UNL1       -0.0011
     13 C         -15.6174    2.5545   19.0220 C.ar    1  UNL1        0.1839
     14 N         -15.0289    3.7003   19.7907 N.ar    1  UNL1       -0.1081
     15 N         -15.8211    4.9319   19.4660 N.ar    1  UNL1       -0.0227
     16 N         -16.8993    4.5472   18.4966 N.ar    1  UNL1       -0.0429
     17 N         -16.7733    3.0779   18.2222 N.ar    1  UNL1       -0.2113
     18 C         -17.6495    2.2734   17.3084 C.3     1  UNL1        0.1573
     19 C         -11.4473   -0.4031   16.7367 C.3     1  UNL1        0.0047
     20 C         -11.9138   -0.9582   18.0498 C.3     1  UNL1        0.0224
     21 C         -11.0113   -1.8496   18.8503 C.3     1  UNL1        0.0047
     22 C         -19.2322   -4.9467   18.8708 C.3     1  UNL1        0.0924
     23 C         -18.7799   -6.1400   18.0824 C.3     1  UNL1        0.0386
     24 C         -18.1426   -7.3037   18.7823 C.3     1  UNL1        0.0738
     25 N         -16.6746   -7.5646   18.6190 N.3     1  UNL1       -0.2726
     26 C         -16.2062   -8.8259   17.9557 C.3     1  UNL1        0.0721
     27 C         -14.7382   -9.0869   17.7924 C.3     1  UNL1        0.0174
     28 C         -13.7384   -8.0866   18.2923 C.3     1  UNL1        0.0031
     29 C         -14.2067   -6.8253   18.9555 C.3     1  UNL1        0.0204
     30 C         -15.6749   -6.5643   19.1188 C.3     1  UNL1        0.0724
     31 C         -13.2070   -5.8250   19.4554 C.3     1  UNL1        0.0277
     32 C         -12.0521   -5.4211   18.5877 C.ar    1  UNL1       -0.0220
     33 C         -10.6459   -5.6182   19.0712 C.ar    1  UNL1       -0.0020
     34 C          -9.4909   -5.2142   18.2034 C.ar    1  UNL1        0.0293
     35 C          -9.7421   -4.6132   16.8523 C.ar    1  UNL1        0.1401
     36 F          -8.5871   -4.2093   15.9845 F       1  UNL1       -0.2042
     37 C         -11.1483   -4.4161   16.3688 C.ar    1  UNL1        0.0293
     38 C         -12.3033   -4.8200   17.2365 C.ar    1  UNL1       -0.0020
@<TRIPOS>BOND
     1    19    20    1
     2    20    21    1
     3    20     7    1
     4     7     8   ar
     5     8     9   ar
     6     9     1    1
     7     1     2   am
     8     2     3    2
     9     2     4   am
    10     4    22    1
    11    22    23    1
    12    23    24    1
    13    24    25    1
    14    25    26    1
    15    26    27    1
    16    27    28    1
    17    28    29    1
    18    29    31    1
    19    31    32    1
    20    32    33   ar
    21    33    34   ar
    22    34    35   ar
    23    35    36    1
    24    35    37   ar
    25    37    38   ar
    26    29    30    1
    27     9    10   ar
    28    10    11   ar
    29    11    13    1
    30    13    14   ar
    31    14    15   ar
    32    15    16   ar
    33    16    17   ar
    34    17    18    1
    35    11    12   ar
    36    12     7   ar
    37    30    25    1
    38    17    13   ar
    39    38    32   ar
    40     1     5    1
    41     4     6    1
@<TRIPOS>MOLECULE
*****
 38 41 0 0 0
SMALL
GASTEIGER

@<TRIPOS>ATOM
      1 N           2.8093   -0.5054   23.8186 N.am    1  UNL1       -0.2683
      2 C           3.0011    0.9001   23.3309 C.2     1  UNL1        0.3045
      3 O           4.1013    1.2137   22.3606 O.2     1  UNL1       -0.2525
      4 N           2.0928    1.9919   23.8134 N.am    1  UNL1       -0.2887
      5 H           2.0872   -0.7112   24.4554 H       1  UNL1        0.1564
      6 H           1.3708    1.7861   24.4502 H       1  UNL1        0.1510
      7 C           4.4452   -3.2624   21.4791 C.ar    1  UNL1       -0.0212
      8 C           3.5369   -2.1705   21.9617 C.ar    1  UNL1        0.0104
      9 C           3.7176   -1.5973   23.3360 C.ar    1  UNL1        0.0514
     10 C           4.8066   -2.1158   24.2277 C.ar    1  UNL1        0.0178
     11 C           5.7148   -3.2076   23.7451 C.ar    1  UNL1        0.0383
     12 C           5.5341   -3.7809   22.3708 C.ar    1  UNL1       -0.0011
     13 C           6.8039   -3.7262   24.6368 C.ar    1  UNL1        0.1839
     14 N           6.6521   -4.7823   25.6912 N.ar    1  UNL1       -0.1081
     15 N           7.9903   -4.9886   26.3367 N.ar    1  UNL1       -0.0227
     16 N           8.9691   -4.0600   25.6813 N.ar    1  UNL1       -0.0429
     17 N           8.2359   -3.2798   24.6307 N.ar    1  UNL1       -0.2113
     18 C           8.8304   -2.2364   23.7319 C.3     1  UNL1        0.1573
     19 C           3.1616   -3.3325   19.2214 C.3     1  UNL1        0.0047
     20 C           4.2644   -3.8356   20.1048 C.3     1  UNL1        0.0224
     21 C           5.1866   -4.9120   19.6139 C.3     1  UNL1        0.0047
     22 C           2.2847    3.3974   23.3257 C.3     1  UNL1        0.0924
     23 C           1.1255    4.1568   22.7516 C.3     1  UNL1        0.0386
     24 C           0.5639    3.7708   21.4153 C.3     1  UNL1        0.0738
     25 N           0.9450    2.4609   20.7916 N.3     1  UNL1       -0.2726
     26 C           0.1625    1.2219   21.1118 C.3     1  UNL1        0.0721
     27 C           0.5436   -0.0879   20.4882 C.3     1  UNL1        0.0174
     28 C           1.7073   -0.1588   19.5443 C.3     1  UNL1        0.0031
     29 C           2.4899    1.0801   19.2241 C.3     1  UNL1        0.0204
     30 C           2.1087    2.3901   19.8478 C.3     1  UNL1        0.0724
     31 C           3.6535    1.0093   18.2804 C.3     1  UNL1        0.0277
     32 C           4.8039    0.0931   18.5756 C.ar    1  UNL1       -0.0220
     33 C           5.2331   -0.9234   17.5596 C.ar    1  UNL1       -0.0020
     34 C           6.3836   -1.8395   17.8549 C.ar    1  UNL1        0.0293
     35 C           7.1048   -1.7392   19.1663 C.ar    1  UNL1        0.1401
     36 F           8.2552   -2.6553   19.4616 F       1  UNL1       -0.2042
     37 C           6.6756   -0.7226   20.1824 C.ar    1  UNL1        0.0293
     38 C           5.5252    0.1935   19.8871 C.ar    1  UNL1       -0.0020
@<TRIPOS>BOND
     1    19    20    1
     2    20    21    1
     3    20     7    1
     4     7     8   ar
     5     8     9   ar
     6     9     1    1
     7     1     2   am
     8     2     3    2
     9     2     4   am
    10     4    22    1
    11    22    23    1
    12    23    24    1
    13    24    25    1
    14    25    26    1
    15    26    27    1
    16    27    28    1
    17    28    29    1
    18    29    31    1
    19    31    32    1
    20    32    33   ar
    21    33    34   ar
    22    34    35   ar
    23    35    36    1
    24    35    37   ar
    25    37    38   ar
    26    29    30    1
    27     9    10   ar
    28    10    11   ar
    29    11    13    1
    30    13    14   ar
    31    14    15   ar
    32    15    16   ar
    33    16    17   ar
    34    17    18    1
    35    11    12   ar
    36    12     7   ar
    37    30    25    1
    38    17    13   ar
    39    38    32   ar
    40     1     5    1
    41     4     6    1
@<TRIPOS>MOLECULE
*****
 38 41 0 0 0
SMALL
GASTEIGER

@<TRIPOS>ATOM
      1 N          -0.1272    1.0553   20.5123 N.am    1  UNL1       -0.2683
      2 C          -0.0470    2.4866   20.0706 C.2     1  UNL1        0.3045
      3 O           1.2631    3.2154   20.1228 O.2     1  UNL1       -0.2525
      4 N          -1.2768    3.1891   19.5767 N.am    1  UNL1       -0.2887
      5 H          -0.9870    0.5770   20.4780 H       1  UNL1        0.1564
      6 H          -2.1366    2.7107   19.5424 H       1  UNL1        0.1510
      7 C           2.8178   -0.1170   22.9003 C.ar    1  UNL1       -0.0212
      8 C           1.5880    0.5854   22.4064 C.ar    1  UNL1        0.0104
      9 C           1.1028    0.3529   21.0062 C.ar    1  UNL1        0.0514
     10 C           1.8474   -0.5821   20.1000 C.ar    1  UNL1        0.0178
     11 C           3.0773   -1.2845   20.5939 C.ar    1  UNL1        0.0383
     12 C           3.5625   -1.0520   21.9941 C.ar    1  UNL1       -0.0011
     13 C           3.8220   -2.2195   19.6877 C.ar    1  UNL1        0.1839
     14 N           3.7591   -3.7178   19.7225 N.ar    1  UNL1       -0.1081
     15 N           4.6585   -4.2448   18.6439 N.ar    1  UNL1       -0.0227
     16 N           5.2773   -3.0721   17.9425 N.ar    1  UNL1       -0.0429
     17 N           4.7603   -1.8205   18.5876 N.ar    1  UNL1       -0.2113
     18 C           5.1187   -0.4163   18.2005 C.3     1  UNL1        0.1573
     19 C           3.5901   -1.0513   25.1983 C.3     1  UNL1        0.0047
     20 C           3.3030    0.1155   24.3005 C.3     1  UNL1        0.0224
     21 C           3.5011    1.5149   24.8029 C.3     1  UNL1        0.0047
     22 C          -1.1967    4.6203   19.1350 C.3     1  UNL1        0.0924
     23 C          -2.2273    5.6070   19.5980 C.3     1  UNL1        0.0386
     24 C          -3.5797    5.1287   20.0366 C.3     1  UNL1        0.0738
     25 N          -3.7612    4.5462   21.4069 N.3     1  UNL1       -0.2726
     26 C          -4.9001    3.6086   21.6785 C.3     1  UNL1        0.0721
     27 C          -5.0816    3.0262   23.0488 C.3     1  UNL1        0.0174
     28 C          -4.1241    3.3812   24.1476 C.3     1  UNL1        0.0031
     29 C          -2.9851    4.3188   23.8760 C.3     1  UNL1        0.0204
     30 C          -2.8037    4.9013   22.5056 C.3     1  UNL1        0.0724
     31 C          -2.0277    4.6739   24.9746 C.3     1  UNL1        0.0277
     32 C          -1.2424    3.5967   25.6623 C.ar    1  UNL1       -0.0220
     33 C          -0.8739    3.7444   27.1088 C.ar    1  UNL1       -0.0020
     34 C          -0.0886    2.6671   27.7965 C.ar    1  UNL1        0.0293
     35 C           0.3282    1.4422   27.0377 C.ar    1  UNL1        0.1401
     36 F           1.1135    0.3649   27.7253 F       1  UNL1       -0.2042
     37 C          -0.0403    1.2945   25.5912 C.ar    1  UNL1        0.0293
     38 C          -0.8256    2.3717   24.9035 C.ar    1  UNL1       -0.0020
@<TRIPOS>BOND
     1    19    20    1
     2    20    21    1
     3    20     7    1
     4     7     8   ar
     5     8     9   ar
     6     9     1    1
     7     1     2   am
     8     2     3    2
     9     2     4   am
    10     4    22    1
    11    22    23    1
    12    23    24    1
    13    24    25    1
    14    25    26    1
    15    26    27    1
    16    27    28    1
    17    28    29    1
    18    29    31    1
    19    31    32    1
    20    32    33   ar
    21    33    34   ar
    22    34    35   ar
    23    35    36    1
    24    35    37   ar
    25    37    38   ar
    26    29    30    1
    27     9    10   ar
    28    10    11   ar
    29    11    13    1
    30    13    14   ar
    31    14    15   ar
    32    15    16   ar
    33    16    17   ar
    34    17    18    1
    35    11    12   ar
    36    12     7   ar
    37    30    25    1
    38    17    13   ar
    39    38    32   ar
    40     1     5    1
    41     4     6    1
@<TRIPOS>MOLECULE
*****
 38 41 0 0 0
SMALL
GASTEIGER

@<TRIPOS>ATOM
      1 N          -0.0983    0.6733   20.8840 N.am    1  UNL1       -0.2683
      2 C          -0.4235    2.1270   20.7086 C.2     1  UNL1        0.3045
      3 O           0.6565    3.1590   20.8462 O.2     1  UNL1       -0.2525
      4 N          -1.8285    2.5489   20.3957 N.am    1  UNL1       -0.2887
      5 H          -0.8071   -0.0041   20.7937 H       1  UNL1        0.1564
      6 H          -2.5372    1.8716   20.3055 H       1  UNL1        0.1510
      7 C           3.2435   -0.0311   22.9055 C.ar    1  UNL1       -0.0212
      8 C           1.8384    0.3906   22.5926 C.ar    1  UNL1        0.0104
      9 C           1.3068    0.2514   21.1969 C.ar    1  UNL1        0.0514
     10 C           2.1802   -0.3096   20.1141 C.ar    1  UNL1        0.0178
     11 C           3.5852   -0.7314   20.4270 C.ar    1  UNL1        0.0383
     12 C           4.1168   -0.5921   21.8227 C.ar    1  UNL1       -0.0011
     13 C           4.4587   -1.2924   19.3442 C.ar    1  UNL1        0.1839
     14 N           5.4835   -0.5322   18.5556 N.ar    1  UNL1       -0.1081
     15 N           6.1189   -1.4820   17.5840 N.ar    1  UNL1       -0.0227
     16 N           5.4867   -2.8293   17.7721 N.ar    1  UNL1       -0.0429
     17 N           4.4606   -2.7121   18.8600 N.ar    1  UNL1       -0.2113
     18 C           3.5895   -3.8200   19.3734 C.3     1  UNL1        0.1573
     19 C           4.3682    1.4102   24.7515 C.3     1  UNL1        0.0047
     20 C           3.7751    0.1081   24.3012 C.3     1  UNL1        0.0224
     21 C           3.7137   -1.0548   25.2466 C.3     1  UNL1        0.0047
     22 C          -2.1536    4.0027   20.2204 C.3     1  UNL1        0.0924
     23 C          -2.7215    4.7877   21.3656 C.3     1  UNL1        0.0386
     24 C          -1.8188    5.2812   22.4572 C.3     1  UNL1        0.0738
     25 N          -1.8197    4.6030   23.7951 N.3     1  UNL1       -0.2726
     26 C          -2.6071    5.1859   24.9310 C.3     1  UNL1        0.0721
     27 C          -2.6080    4.5077   26.2689 C.3     1  UNL1        0.0174
     28 C          -1.8214    3.2465   26.4710 C.3     1  UNL1        0.0031
     29 C          -1.0340    2.6636   25.3351 C.3     1  UNL1        0.0204
     30 C          -1.0331    3.3419   23.9972 C.3     1  UNL1        0.0724
     31 C          -0.2474    1.4025   25.5372 C.3     1  UNL1        0.0277
     32 C           0.3307    1.0870   26.8848 C.ar    1  UNL1       -0.0220
     33 C          -0.4655    0.2891   27.8745 C.ar    1  UNL1       -0.0020
     34 C           0.1128   -0.0263   29.2221 C.ar    1  UNL1        0.0293
     35 C           1.4872    0.4561   29.5801 C.ar    1  UNL1        0.1401
     36 F           2.0654    0.1406   30.9278 F       1  UNL1       -0.2042
     37 C           2.2834    1.2540   28.5905 C.ar    1  UNL1        0.0293
     38 C           1.7052    1.5694   27.2429 C.ar    1  UNL1       -0.0020
@<TRIPOS>BOND
     1    19    20    1
     2    20    21    1
     3    20     7    1
     4     7     8   ar
     5     8     9   ar
     6     9     1    1
     7     1     2   am
     8     2     3    2
     9     2     4   am
    10     4    22    1
    11    22    23    1
    12    23    24    1
    13    24    25    1
    14    25    26    1
    15    26    27    1
    16    27    28    1
    17    28    29    1
    18    29    31    1
    19    31    32    1
    20    32    33   ar
    21    33    34   ar
    22    34    35   ar
    23    35    36    1
    24    35    37   ar
    25    37    38   ar
    26    29    30    1
    27     9    10   ar
    28    10    11   ar
    29    11    13    1
    30    13    14   ar
    31    14    15   ar
    32    15    16   ar
    33    16    17   ar
    34    17    18    1
    35    11    12   ar
    36    12     7   ar
    37    30    25    1
    38    17    13   ar
    39    38    32   ar
    40     1     5    1
    41     4     6    1
@<TRIPOS>MOLECULE
*****
 38 41 0 0 0
SMALL
GASTEIGER

@<TRIPOS>ATOM
      1 N           4.8233   -2.7244   24.1985 N.am    1  UNL1       -0.2683
      2 C           6.1678   -2.4550   23.5904 C.2     1  UNL1        0.3045
      3 O           6.7650   -1.0813   23.6694 O.2     1  UNL1       -0.2525
      4 N           6.9151   -3.5594   22.9035 N.am    1  UNL1       -0.2887
      5 H           4.4312   -3.6260   24.1467 H       1  UNL1        0.1564
      6 H           6.5231   -4.4610   22.8517 H       1  UNL1        0.1510
      7 C           2.6648    0.5580   24.7619 C.ar    1  UNL1       -0.0212
      8 C           3.4120   -0.5464   24.0750 C.ar    1  UNL1        0.0104
      9 C           4.0760   -1.6199   24.8855 C.ar    1  UNL1        0.0514
     10 C           3.9927   -1.5890   26.3828 C.ar    1  UNL1        0.0178
     11 C           3.2454   -0.4846   27.0697 C.ar    1  UNL1        0.0383
     12 C           2.5815    0.5889   26.2593 C.ar    1  UNL1       -0.0011
     13 C           3.1621   -0.4537   28.5671 C.ar    1  UNL1        0.1839
     14 N           4.3214   -0.5238   29.5163 N.ar    1  UNL1       -0.1081
     15 N           3.7807   -0.4606   30.9140 N.ar    1  UNL1       -0.0227
     16 N           2.2871   -0.3515   30.8286 N.ar    1  UNL1       -0.0429
     17 N           1.9048   -0.3472   29.3782 N.ar    1  UNL1       -0.2113
     18 C           0.5100   -0.2530   28.8343 C.3     1  UNL1        0.1573
     19 C           0.6363    1.3992   23.3737 C.3     1  UNL1        0.0047
     20 C           2.0008    1.6315   23.9515 C.3     1  UNL1        0.0224
     21 C           2.7015    2.9372   23.7189 C.3     1  UNL1        0.0047
     22 C           8.2596   -3.2900   22.2954 C.3     1  UNL1        0.0924
     23 C           8.4178   -3.2700   20.8039 C.3     1  UNL1        0.0386
     24 C           7.5532   -2.3717   19.9700 C.3     1  UNL1        0.0738
     25 N           6.0967   -2.6842   19.7943 N.3     1  UNL1       -0.2726
     26 C           5.6789   -3.9321   19.0744 C.3     1  UNL1        0.0721
     27 C           4.2224   -4.2446   18.8988 C.3     1  UNL1        0.0174
     28 C           3.1836   -3.3093   19.4430 C.3     1  UNL1        0.0031
     29 C           3.6014   -2.0614   20.1629 C.3     1  UNL1        0.0204
     30 C           5.0580   -1.7489   20.3386 C.3     1  UNL1        0.0724
     31 C           2.5627   -1.1261   20.7072 C.3     1  UNL1        0.0277
     32 C           2.3041    0.1854   20.0267 C.ar    1  UNL1       -0.0220
     33 C           3.1853    1.3652   20.3125 C.ar    1  UNL1       -0.0020
     34 C           2.9266    2.6767   19.6320 C.ar    1  UNL1        0.0293
     35 C           1.7869    2.8084   18.6658 C.ar    1  UNL1        0.1401
     36 F           1.5283    4.1200   17.9853 F       1  UNL1       -0.2042
     37 C           0.9057    1.6286   18.3800 C.ar    1  UNL1        0.0293
     38 C           1.1643    0.3171   19.0605 C.ar    1  UNL1       -0.0020
@<TRIPOS>BOND
     1    19    20    1
     2    20    21    1
     3    20     7    1
     4     7     8   ar
     5     8     9   ar
     6     9     1    1
     7     1     2   am
     8     2     3    2
     9     2     4   am
    10     4    22    1
    11    22    23    1
    12    23    24    1
    13    24    25    1
    14    25    26    1
    15    26    27    1
    16    27    28    1
    17    28    29    1
    18    29    31    1
    19    31    32    1
    20    32    33   ar
    21    33    34   ar
    22    34    35   ar
    23    35    36    1
    24    35    37   ar
    25    37    38   ar
    26    29    30    1
    27     9    10   ar
    28    10    11   ar
    29    11    13    1
    30    13    14   ar
    31    14    15   ar
    32    15    16   ar
    33    16    17   ar
    34    17    18    1
    35    11    12   ar
    36    12     7   ar
    37    30    25    1
    38    17    13   ar
    39    38    32   ar
    40     1     5    1
    41     4     6    1
@<TRIPOS>MOLECULE
*****
 38 41 0 0 0
SMALL
GASTEIGER

@<TRIPOS>ATOM
      1 N           4.3128   -2.0102   24.4383 N.am    1  UNL1       -0.2683
      2 C           5.2925   -1.0302   25.0126 C.2     1  UNL1        0.3045
      3 O           5.8025    0.1014   24.1704 O.2     1  UNL1       -0.2525
      4 N           5.7621   -1.1817   26.4291 N.am    1  UNL1       -0.2887
      5 H           3.9781   -2.7529   24.9911 H       1  UNL1        0.1564
      6 H           5.4273   -1.9245   26.9819 H       1  UNL1        0.1510
      7 C           3.8762   -2.6411   20.5446 C.ar    1  UNL1       -0.0212
      8 C           4.3457   -2.7926   21.9610 C.ar    1  UNL1        0.0104
      9 C           3.8432   -1.8586   23.0218 C.ar    1  UNL1        0.0514
     10 C           2.8712   -0.7730   22.6660 C.ar    1  UNL1        0.0178
     11 C           2.4017   -0.6215   21.2495 C.ar    1  UNL1        0.0383
     12 C           2.9041   -1.5555   20.1888 C.ar    1  UNL1       -0.0011
     13 C           1.4296    0.4642   20.8936 C.ar    1  UNL1        0.1839
     14 N          -0.0543    0.3044   20.7432 N.ar    1  UNL1       -0.1081
     15 N          -0.6303    1.6416   20.3823 N.ar    1  UNL1       -0.0227
     16 N           0.4977    2.6278   20.3098 N.ar    1  UNL1       -0.0429
     17 N           1.7707    1.9001   20.6258 N.ar    1  UNL1       -0.2113
     18 C           3.1438    2.5026   20.6667 C.3     1  UNL1        0.1573
     19 C           5.4654   -3.1334   18.5491 C.3     1  UNL1        0.0047
     20 C           4.3786   -3.5751   19.4838 C.3     1  UNL1        0.0224
     21 C           3.7944   -4.9508   19.3579 C.3     1  UNL1        0.0047
     22 C           6.7417   -0.2017   27.0034 C.3     1  UNL1        0.0924
     23 C           6.2506    0.9681   27.8037 C.3     1  UNL1        0.0386
     24 C           4.8892    1.5394   27.5390 C.3     1  UNL1        0.0738
     25 N           3.6798    0.9219   28.1761 N.3     1  UNL1       -0.2726
     26 C           3.8311    0.0629   29.3964 C.3     1  UNL1        0.0721
     27 C           2.6217   -0.5547   30.0336 C.3     1  UNL1        0.0174
     28 C           1.2609   -0.3132   29.4503 C.3     1  UNL1        0.0031
     29 C           1.1097    0.5458   28.2300 C.3     1  UNL1        0.0204
     30 C           2.3191    1.1633   27.5928 C.3     1  UNL1        0.0724
     31 C          -0.2510    0.7872   27.6467 C.3     1  UNL1        0.0277
     32 C          -0.4024    1.6474   26.4273 C.ar    1  UNL1       -0.0220
     33 C          -1.1780    2.9290   26.5051 C.ar    1  UNL1       -0.0020
     34 C          -1.3294    3.7892   25.2855 C.ar    1  UNL1        0.0293
     35 C          -0.7052    3.3678   23.9883 C.ar    1  UNL1        0.1401
     36 F          -0.8566    4.2281   22.7688 F       1  UNL1       -0.2042
     37 C           0.0704    2.0863   23.9106 C.ar    1  UNL1        0.0293
     38 C           0.2218    1.2261   25.1300 C.ar    1  UNL1       -0.0020
@<TRIPOS>BOND
     1    19    20    1
     2    20    21    1
     3    20     7    1
     4     7     8   ar
     5     8     9   ar
     6     9     1    1
     7     1     2   am
     8     2     3    2
     9     2     4   am
    10     4    22    1
    11    22    23    1
    12    23    24    1
    13    24    25    1
    14    25    26    1
    15    26    27    1
    16    27    28    1
    17    28    29    1
    18    29    31    1
    19    31    32    1
    20    32    33   ar
    21    33    34   ar
    22    34    35   ar
    23    35    36    1
    24    35    37   ar
    25    37    38   ar
    26    29    30    1
    27     9    10   ar
    28    10    11   ar
    29    11    13    1
    30    13    14   ar
    31    14    15   ar
    32    15    16   ar
    33    16    17   ar
    34    17    18    1
    35    11    12   ar
    36    12     7   ar
    37    30    25    1
    38    17    13   ar
    39    38    32   ar
    40     1     5    1
    41     4     6    1
@<TRIPOS>MOLECULE
*****
 38 41 0 0 0
SMALL
GASTEIGER

@<TRIPOS>ATOM
      1 N           0.8210   -0.1911   28.1484 N.am    1  UNL1       -0.2683
      2 C           0.4311    1.2094   27.7788 C.2     1  UNL1        0.3045
      3 O           1.4217    2.3266   27.9229 O.2     1  UNL1       -0.2525
      4 N          -0.9494    1.4928   27.2651 N.am    1  UNL1       -0.2887
      5 H           0.1709   -0.9243   28.0538 H       1  UNL1        0.1564
      6 H          -1.5996    0.7596   27.1706 H       1  UNL1        0.1510
      7 C           4.7154   -0.9526   28.2126 C.ar    1  UNL1       -0.0212
      8 C           3.3349   -0.6693   27.6989 C.ar    1  UNL1        0.0104
      9 C           2.2016   -0.4744   28.6621 C.ar    1  UNL1        0.0514
     10 C           2.4488   -0.5628   30.1389 C.ar    1  UNL1        0.0178
     11 C           3.8293   -0.8462   30.6525 C.ar    1  UNL1        0.0383
     12 C           4.9626   -1.0410   29.6894 C.ar    1  UNL1       -0.0011
     13 C           4.0766   -0.9346   32.1294 C.ar    1  UNL1        0.1839
     14 N           3.9302   -2.1643   32.9758 N.ar    1  UNL1       -0.1081
     15 N           4.2769   -1.7987   34.3886 N.ar    1  UNL1       -0.0227
     16 N           4.6375   -0.3428   34.4154 N.ar    1  UNL1       -0.0429
     17 N           4.5137    0.1911   33.0192 N.ar    1  UNL1       -0.2113
     18 C           4.7803    1.6030   32.5883 C.3     1  UNL1        0.1573
     19 C           6.9540   -0.1361   27.1772 C.3     1  UNL1        0.0047
     20 C           5.8486   -1.1475   27.2494 C.3     1  UNL1        0.0224
     21 C           5.8766   -2.3538   26.3583 C.3     1  UNL1        0.0047
     22 C          -1.3394    2.8933   26.8955 C.3     1  UNL1        0.0924
     23 C          -1.1584    3.3751   25.4866 C.3     1  UNL1        0.0386
     24 C          -0.5745    2.4610   24.4505 C.3     1  UNL1        0.0738
     25 N           0.9022    2.1986   24.4284 N.3     1  UNL1       -0.2726
     26 C           1.8685    3.3385   24.5585 C.3     1  UNL1        0.0721
     27 C           3.3452    3.0762   24.5364 C.3     1  UNL1        0.0174
     28 C           3.8557    1.6739   24.3842 C.3     1  UNL1        0.0031
     29 C           2.8893    0.5340   24.2540 C.3     1  UNL1        0.0204
     30 C           1.4126    0.7964   24.2761 C.3     1  UNL1        0.0724
     31 C           3.3997   -0.8682   24.1017 C.3     1  UNL1        0.0277
     32 C           3.5069   -1.4833   22.7379 C.ar    1  UNL1       -0.0220
     33 C           4.3142   -2.7320   22.5396 C.ar    1  UNL1       -0.0020
     34 C           4.4214   -3.3471   21.1757 C.ar    1  UNL1        0.0293
     35 C           3.7213   -2.7135   20.0101 C.ar    1  UNL1        0.1401
     36 F           3.8285   -3.3287   18.6462 F       1  UNL1       -0.2042
     37 C           2.9141   -1.4649   20.2084 C.ar    1  UNL1        0.0293
     38 C           2.8069   -0.8498   21.5723 C.ar    1  UNL1       -0.0020
@<TRIPOS>BOND
     1    19    20    1
     2    20    21    1
     3    20     7    1
     4     7     8   ar
     5     8     9   ar
     6     9     1    1
     7     1     2   am
     8     2     3    2
     9     2     4   am
    10     4    22    1
    11    22    23    1
    12    23    24    1
    13    24    25    1
    14    25    26    1
    15    26    27    1
    16    27    28    1
    17    28    29    1
    18    29    31    1
    19    31    32    1
    20    32    33   ar
    21    33    34   ar
    22    34    35   ar
    23    35    36    1
    24    35    37   ar
    25    37    38   ar
    26    29    30    1
    27     9    10   ar
    28    10    11   ar
    29    11    13    1
    30    13    14   ar
    31    14    15   ar
    32    15    16   ar
    33    16    17   ar
    34    17    18    1
    35    11    12   ar
    36    12     7   ar
    37    30    25    1
    38    17    13   ar
    39    38    32   ar
    40     1     5    1
    41     4     6    1
@<TRIPOS>MOLECULE
*****
 38 41 0 0 0
SMALL
GASTEIGER

@<TRIPOS>ATOM
      1 N           2.4107   -0.2327   24.1579 N.am    1  UNL1       -0.2683
      2 C           3.5079    0.2762   25.0452 C.2     1  UNL1        0.3045
      3 O           4.8578    0.5834   24.4678 O.2     1  UNL1       -0.2525
      4 N           3.2552    0.4778   26.5100 N.am    1  UNL1       -0.2887
      5 H           1.5247   -0.4343   24.5369 H       1  UNL1        0.1564
      6 H           2.3692    0.2762   26.8890 H       1  UNL1        0.1510
      7 C           2.5254    0.4286   20.2465 C.ar    1  UNL1       -0.0212
      8 C           2.2726    0.6302   21.7112 C.ar    1  UNL1        0.0104
      9 C           2.6634   -0.4343   22.6931 C.ar    1  UNL1        0.0514
     10 C           3.3069   -1.7003   22.2104 C.ar    1  UNL1        0.0178
     11 C           3.5596   -1.9018   20.7457 C.ar    1  UNL1        0.0383
     12 C           3.1689   -0.8374   19.7637 C.ar    1  UNL1       -0.0011
     13 C           4.2032   -3.1679   20.2628 C.ar    1  UNL1        0.1839
     14 N           3.5315   -4.2537   19.4755 N.ar    1  UNL1       -0.1081
     15 N           4.5445   -5.3272   19.2086 N.ar    1  UNL1       -0.0227
     16 N           5.8423   -4.9049   19.8311 N.ar    1  UNL1       -0.0429
     17 N           5.6313   -3.5704   20.4826 N.ar    1  UNL1       -0.2113
     18 C           6.6668   -2.7776   21.2238 C.3     1  UNL1        0.1573
     19 C           0.9203    1.3096   18.4032 C.3     1  UNL1        0.0047
     20 C           2.1346    1.4930   19.2645 C.3     1  UNL1        0.0224
     21 C           2.9581    2.7409   19.1438 C.3     1  UNL1        0.0047
     22 C           4.3523    0.9866   27.3973 C.3     1  UNL1        0.0924
     23 C           4.0789    2.0998   28.3649 C.3     1  UNL1        0.0386
     24 C           2.9870    1.9568   29.3834 C.3     1  UNL1        0.0738
     25 N           1.6220    1.5011   28.9606 N.3     1  UNL1       -0.2726
     26 C           1.1404    0.1300   29.3325 C.3     1  UNL1        0.0721
     27 C          -0.2246   -0.3258   28.9097 C.3     1  UNL1        0.0174
     28 C          -1.1082    0.5895   28.1149 C.3     1  UNL1        0.0031
     29 C          -0.6267    1.9606   27.7430 C.3     1  UNL1        0.0204
     30 C           0.7385    2.4164   28.1659 C.3     1  UNL1        0.0724
     31 C          -1.5102    2.8759   26.9483 C.3     1  UNL1        0.0277
     32 C          -1.3470    2.9704   25.4603 C.ar    1  UNL1       -0.0220
     33 C          -2.4134    3.6194   24.6285 C.ar    1  UNL1       -0.0020
     34 C          -2.2501    3.7139   23.1404 C.ar    1  UNL1        0.0293
     35 C          -1.0206    3.1594   22.4840 C.ar    1  UNL1        0.1401
     36 F          -0.8574    3.2538   20.9959 F       1  UNL1       -0.2042
     37 C           0.0457    2.5103   23.3158 C.ar    1  UNL1        0.0293
     38 C          -0.1175    2.4159   24.8038 C.ar    1  UNL1       -0.0020
@<TRIPOS>BOND
     1    19    20    1
     2    20    21    1
     3    20     7    1
     4     7     8   ar
     5     8     9   ar
     6     9     1    1
     7     1     2   am
     8     2     3    2
     9     2     4   am
    10     4    22    1
    11    22    23    1
    12    23    24    1
    13    24    25    1
    14    25    26    1
    15    26    27    1
    16    27    28    1
    17    28    29    1
    18    29    31    1
    19    31    32    1
    20    32    33   ar
    21    33    34   ar
    22    34    35   ar
    23    35    36    1
    24    35    37   ar
    25    37    38   ar
    26    29    30    1
    27     9    10   ar
    28    10    11   ar
    29    11    13    1
    30    13    14   ar
    31    14    15   ar
    32    15    16   ar
    33    16    17   ar
    34    17    18    1
    35    11    12   ar
    36    12     7   ar
    37    30    25    1
    38    17    13   ar
    39    38    32   ar
    40     1     5    1
    41     4     6    1
