@<TRIPOS>MOLECULE
*****
 36 41 0 0 0
SMALL
GASTEIGER

@<TRIPOS>ATOM
      1 C           5.9364   -1.7123   21.3048 C.3     1  UNL1        0.1412
      2 N           6.8377   -2.5166   22.1940 N.3     1  UNL1       -0.2630
      3 C           7.9492   -1.7554   22.8538 C.3     1  UNL1        0.0742
      4 C           9.0059   -2.2654   23.7884 C.3     1  UNL1        0.0347
      5 C           9.2120   -3.6624   24.2940 C.3     1  UNL1        0.0735
      6 N           8.4125   -4.8946   23.9899 N.3     1  UNL1       -0.2727
      7 C           7.2093   -5.0341   23.1051 C.3     1  UNL1        0.0896
      8 C           6.5085   -3.9757   22.3059 C.3     1  UNL1        0.0902
      9 C           8.8776   -6.1539   24.6591 C.3     1  UNL1        0.0575
     10 C           9.0931   -6.5825   26.0804 C.3     1  UNL1        0.0160
     11 C           9.5355   -7.9348   25.6056 C.3     1  UNL1        0.0028
     12 C           9.3201   -7.5063   24.1843 C.3     1  UNL1        0.0160
     13 C           4.9443   -0.7611   21.9056 C.ar    1  UNL1       -0.0005
     14 C           3.9629   -1.2489   22.9297 C.ar    1  UNL1       -0.0028
     15 C           2.9708   -0.2977   23.5305 C.ar    1  UNL1       -0.0026
     16 C           2.9601    1.1413   23.1072 C.ar    1  UNL1        0.0021
     17 C           3.9416    1.6291   22.0831 C.ar    1  UNL1       -0.0026
     18 C           4.9337    0.6779   21.4823 C.ar    1  UNL1       -0.0028
     19 C           1.9680    2.0925   23.7080 C.3     1  UNL1        0.1556
     20 N           1.3488    1.7882   25.0399 N.ar    1  UNL1       -0.2255
     21 C          -0.0581    1.3229   25.2725 C.ar    1  UNL1        0.1975
     22 N          -0.2485    1.1429   26.7495 N.ar    1  UNL1       -0.2007
     23 C           1.0407    1.4969   27.4296 C.ar    1  UNL1        0.2210
     24 N           2.0279    1.8957   26.3730 N.ar    1  UNL1       -0.1448
     25 N           4.8764   -2.0824   18.8790 N.ar    1  UNL1       -0.2108
     26 N           5.4228   -2.1697   17.4848 N.ar    1  UNL1       -0.0428
     27 N           6.9114   -2.0004   17.5589 N.ar    1  UNL1       -0.0229
     28 N           7.2850   -1.8085   18.9989 N.ar    1  UNL1       -0.1110
     29 C           6.0273   -1.8591   19.8148 C.ar    1  UNL1        0.1798
     30 C           3.4326   -2.1980   19.2690 C.3     1  UNL1        0.1570
     31 C           0.8512    1.4832   19.4572 C.ar    1  UNL1       -0.0000
     32 C           0.5344    0.2998   20.3230 C.ar    1  UNL1       -0.0003
     33 C           1.3948   -0.9271   20.2602 C.ar    1  UNL1       -0.0023
     34 C           2.5721   -0.9709   19.3318 C.ar    1  UNL1        0.0022
     35 C           2.8889    0.2123   18.4660 C.ar    1  UNL1       -0.0023
     36 C           2.0285    1.4393   18.5287 C.ar    1  UNL1       -0.0003
@<TRIPOS>BOND
     1    31    32   ar
     2    32    33   ar
     3    33    34   ar
     4    34    30    1
     5    30    25    1
     6    25    26   ar
     7    26    27   ar
     8    27    28   ar
     9    28    29   ar
    10    29     1    1
    11     1    13    1
    12    13    14   ar
    13    14    15   ar
    14    15    16   ar
    15    16    19    1
    16    19    20    1
    17    20    21   ar
    18    21    22   ar
    19    22    23   ar
    20    23    24   ar
    21    16    17   ar
    22    17    18   ar
    23     1     2    1
    24     2     3    1
    25     3     4    1
    26     4     5    1
    27     5     6    1
    28     6     9    1
    29     9    10    1
    30    10    11    1
    31    11    12    1
    32     6     7    1
    33     7     8    1
    34    34    35   ar
    35    35    36   ar
    36    36    31   ar
    37    29    25   ar
    38    18    13   ar
    39     8     2    1
    40    24    20   ar
    41    12     9    1
@<TRIPOS>MOLECULE
*****
 36 41 0 0 0
SMALL
GASTEIGER

@<TRIPOS>ATOM
      1 C           1.0511    3.4485   19.3493 C.3     1  UNL1        0.1412
      2 N          -0.3352    3.6580   18.8162 N.3     1  UNL1       -0.2630
      3 C          -0.4310    3.9433   17.3466 C.3     1  UNL1        0.0742
      4 C          -1.6578    4.1956   16.5210 C.3     1  UNL1        0.0347
      5 C          -3.0914    4.2249   16.9610 C.3     1  UNL1        0.0735
      6 N          -3.6526    4.0091   18.3352 N.3     1  UNL1       -0.2727
      7 C          -2.9187    3.7108   19.6089 C.3     1  UNL1        0.0896
      8 C          -1.4422    3.5545   19.8229 C.3     1  UNL1        0.0902
      9 C          -5.1450    4.1042   18.4510 C.3     1  UNL1        0.0575
     10 C          -6.1741    5.1322   18.0840 C.3     1  UNL1        0.0160
     11 C          -7.2558    4.2388   18.6149 C.3     1  UNL1        0.0028
     12 C          -6.2269    3.2109   18.9819 C.3     1  UNL1        0.0160
     13 C           1.8667    2.2804   18.8798 C.ar    1  UNL1       -0.0005
     14 C           1.2032    0.9624   18.6102 C.ar    1  UNL1       -0.0028
     15 C           2.0189   -0.2056   18.1407 C.ar    1  UNL1       -0.0026
     16 C           3.4979   -0.0557   17.9408 C.ar    1  UNL1        0.0021
     17 C           4.1614    1.2623   18.2105 C.ar    1  UNL1       -0.0026
     18 C           3.3458    2.4303   18.6800 C.ar    1  UNL1       -0.0028
     19 C           4.3135   -1.2238   17.4713 C.3     1  UNL1        0.1556
     20 N           4.5873   -2.3692   18.4004 N.ar    1  UNL1       -0.2255
     21 C           5.9343   -2.7884   18.9100 C.ar    1  UNL1        0.1975
     22 N           5.7416   -3.9748   19.8075 N.ar    1  UNL1       -0.2007
     23 C           4.2755   -4.2888   19.8525 C.ar    1  UNL1        0.2210
     24 N           3.5622   -3.2964   18.9827 N.ar    1  UNL1       -0.1448
     25 N           1.8960    4.1122   21.7970 N.ar    1  UNL1       -0.2108
     26 N           2.4622    5.3518   22.4237 N.ar    1  UNL1       -0.0428
     27 N           2.5381    6.4127   21.3661 N.ar    1  UNL1       -0.0229
     28 N           2.0187    5.8289   20.0857 N.ar    1  UNL1       -0.1110
     29 C           1.6219    4.4071   20.3519 C.ar    1  UNL1        0.1798
     30 C           1.6474    2.8069   22.4929 C.3     1  UNL1        0.1570
     31 C           4.2728   -0.7427   21.6221 C.ar    1  UNL1       -0.0000
     32 C           2.7852   -0.9139   21.7111 C.ar    1  UNL1       -0.0003
     33 C           1.9102    0.2693   22.0014 C.ar    1  UNL1       -0.0023
     34 C           2.5226    1.6236   22.2026 C.ar    1  UNL1        0.0022
     35 C           4.0101    1.7949   22.1137 C.ar    1  UNL1       -0.0023
     36 C           4.8852    0.6117   21.8234 C.ar    1  UNL1       -0.0003
@<TRIPOS>BOND
     1    31    32   ar
     2    32    33   ar
     3    33    34   ar
     4    34    30    1
     5    30    25    1
     6    25    26   ar
     7    26    27   ar
     8    27    28   ar
     9    28    29   ar
    10    29     1    1
    11     1    13    1
    12    13    14   ar
    13    14    15   ar
    14    15    16   ar
    15    16    19    1
    16    19    20    1
    17    20    21   ar
    18    21    22   ar
    19    22    23   ar
    20    23    24   ar
    21    16    17   ar
    22    17    18   ar
    23     1     2    1
    24     2     3    1
    25     3     4    1
    26     4     5    1
    27     5     6    1
    28     6     9    1
    29     9    10    1
    30    10    11    1
    31    11    12    1
    32     6     7    1
    33     7     8    1
    34    34    35   ar
    35    35    36   ar
    36    36    31   ar
    37    29    25   ar
    38    18    13   ar
    39     8     2    1
    40    24    20   ar
    41    12     9    1
@<TRIPOS>MOLECULE
*****
 36 41 0 0 0
SMALL
GASTEIGER

@<TRIPOS>ATOM
      1 C           0.4678    2.1414   22.2670 C.3     1  UNL1        0.1412
      2 N           0.6217    2.4825   23.7196 N.3     1  UNL1       -0.2630
      3 C           1.2257    3.8240   24.0125 C.3     1  UNL1        0.0742
      4 C           1.5085    4.4514   25.3454 C.3     1  UNL1        0.0347
      5 C           1.2572    3.8924   26.7143 C.3     1  UNL1        0.0735
      6 N           0.6610    2.5678   27.0887 N.3     1  UNL1       -0.2727
      7 C           0.1689    1.4752   26.1865 C.3     1  UNL1        0.0896
      8 C           0.1515    1.4373   24.6871 C.3     1  UNL1        0.0902
      9 C           0.5411    2.3006   28.5598 C.3     1  UNL1        0.0575
     10 C           0.0395    1.1585   29.3930 C.3     1  UNL1        0.0160
     11 C           0.3715    1.9226   30.6403 C.3     1  UNL1        0.0028
     12 C           0.8731    3.0647   29.8073 C.3     1  UNL1        0.0160
     13 C           1.2270    0.9870   21.6831 C.ar    1  UNL1       -0.0005
     14 C           2.5938    0.6495   22.2009 C.ar    1  UNL1       -0.0028
     15 C           3.3529   -0.5050   21.6169 C.ar    1  UNL1       -0.0026
     16 C           2.7454   -1.3218   20.5153 C.ar    1  UNL1        0.0021
     17 C           1.3787   -0.9843   19.9976 C.ar    1  UNL1       -0.0026
     18 C           0.6195    0.1701   20.5814 C.ar    1  UNL1       -0.0028
     19 C           3.5047   -2.4762   19.9314 C.3     1  UNL1        0.1556
     20 N           4.7860   -2.2333   19.1904 N.ar    1  UNL1       -0.2255
     21 C           4.9083   -1.7948   17.7612 C.ar    1  UNL1        0.1975
     22 N           6.3680   -1.6766   17.4359 N.ar    1  UNL1       -0.2007
     23 C           7.1476   -2.0421   18.6641 C.ar    1  UNL1        0.2210
     24 N           6.1698   -2.3861   19.7484 N.ar    1  UNL1       -0.1448
     25 N          -0.0329    4.0777   20.4935 N.ar    1  UNL1       -0.2108
     26 N          -1.2640    4.6048   19.8180 N.ar    1  UNL1       -0.0428
     27 N          -2.4375    3.8076   20.3052 N.ar    1  UNL1       -0.0229
     28 N          -1.9316    2.7878   21.2820 N.ar    1  UNL1       -0.1110
     29 C          -0.4454    2.9547   21.3984 C.ar    1  UNL1        0.1798
     30 C           1.3654    4.5845   20.2985 C.3     1  UNL1        0.1570
     31 C           4.6112    1.7720   18.9552 C.ar    1  UNL1       -0.0000
     32 C           4.8530    2.7003   20.1084 C.ar    1  UNL1       -0.0003
     33 C           3.7711    3.6378   20.5561 C.ar    1  UNL1       -0.0023
     34 C           2.4473    3.6470   19.8508 C.ar    1  UNL1        0.0022
     35 C           2.2055    2.7187   18.6976 C.ar    1  UNL1       -0.0023
     36 C           3.2874    1.7812   18.2499 C.ar    1  UNL1       -0.0003
@<TRIPOS>BOND
     1    31    32   ar
     2    32    33   ar
     3    33    34   ar
     4    34    30    1
     5    30    25    1
     6    25    26   ar
     7    26    27   ar
     8    27    28   ar
     9    28    29   ar
    10    29     1    1
    11     1    13    1
    12    13    14   ar
    13    14    15   ar
    14    15    16   ar
    15    16    19    1
    16    19    20    1
    17    20    21   ar
    18    21    22   ar
    19    22    23   ar
    20    23    24   ar
    21    16    17   ar
    22    17    18   ar
    23     1     2    1
    24     2     3    1
    25     3     4    1
    26     4     5    1
    27     5     6    1
    28     6     9    1
    29     9    10    1
    30    10    11    1
    31    11    12    1
    32     6     7    1
    33     7     8    1
    34    34    35   ar
    35    35    36   ar
    36    36    31   ar
    37    29    25   ar
    38    18    13   ar
    39     8     2    1
    40    24    20   ar
    41    12     9    1
@<TRIPOS>MOLECULE
*****
 36 41 0 0 0
SMALL
GASTEIGER

@<TRIPOS>ATOM
      1 C           5.9270   -1.3170   21.2224 C.3     1  UNL1        0.1412
      2 N           6.6576   -2.1607   22.2247 N.3     1  UNL1       -0.2630
      3 C           7.4938   -1.4116   23.2196 C.3     1  UNL1        0.0742
      4 C           8.3344   -1.9588   24.3351 C.3     1  UNL1        0.0347
      5 C           8.5462   -3.3898   24.7311 C.3     1  UNL1        0.0735
      6 N           7.9700   -4.6275   24.1095 N.3     1  UNL1       -0.2727
      7 C           7.0394   -4.7395   22.9384 C.3     1  UNL1        0.0896
      8 C           6.4554   -3.6416   22.0996 C.3     1  UNL1        0.0902
      9 C           8.3781   -5.9244   24.7428 C.3     1  UNL1        0.0575
     10 C           9.0299   -6.3144   26.0364 C.3     1  UNL1        0.0160
     11 C           8.9555   -7.7587   25.6385 C.3     1  UNL1        0.0028
     12 C           8.3037   -7.3689   24.3450 C.3     1  UNL1        0.0160
     13 C           5.0948   -0.1571   21.6829 C.ar    1  UNL1       -0.0005
     14 C           5.3142    1.2044   21.0930 C.ar    1  UNL1       -0.0028
     15 C           4.4819    2.3643   21.5535 C.ar    1  UNL1       -0.0026
     16 C           3.4303    2.1626   22.6039 C.ar    1  UNL1        0.0021
     17 C           3.2109    0.8010   23.1938 C.ar    1  UNL1       -0.0026
     18 C           4.0431   -0.3588   22.7334 C.ar    1  UNL1       -0.0028
     19 C           2.5981    3.3225   23.0645 C.3     1  UNL1        0.1556
     20 N           1.2159    3.5186   22.5157 N.ar    1  UNL1       -0.2255
     21 C           0.8154    4.5187   21.4721 C.ar    1  UNL1        0.1975
     22 N          -0.6565    4.3672   21.2256 N.ar    1  UNL1       -0.2007
     23 C          -1.1656    3.2735   22.1170 C.ar    1  UNL1        0.2210
     24 N          -0.0083    2.7490   22.9143 N.ar    1  UNL1       -0.1448
     25 N           4.8911   -2.0125   18.8584 N.ar    1  UNL1       -0.2108
     26 N           5.4452   -2.2395   17.4831 N.ar    1  UNL1       -0.0428
     27 N           6.9251   -2.0005   17.5343 N.ar    1  UNL1       -0.0229
     28 N           7.2858   -1.6258   18.9413 N.ar    1  UNL1       -0.1110
     29 C           6.0287   -1.6333   19.7597 C.ar    1  UNL1        0.1798
     30 C           3.4522   -2.1420   19.2618 C.3     1  UNL1        0.1570
     31 C           0.8295    1.5101   19.4450 C.ar    1  UNL1       -0.0000
     32 C           0.5160    0.3179   20.2997 C.ar    1  UNL1       -0.0003
     33 C           1.3902   -0.8994   20.2386 C.ar    1  UNL1       -0.0023
     34 C           2.5779   -0.9246   19.3229 C.ar    1  UNL1        0.0022
     35 C           2.8914    0.2675   18.4681 C.ar    1  UNL1       -0.0023
     36 C           2.0172    1.4848   18.5292 C.ar    1  UNL1       -0.0003
@<TRIPOS>BOND
     1    31    32   ar
     2    32    33   ar
     3    33    34   ar
     4    34    30    1
     5    30    25    1
     6    25    26   ar
     7    26    27   ar
     8    27    28   ar
     9    28    29   ar
    10    29     1    1
    11     1    13    1
    12    13    14   ar
    13    14    15   ar
    14    15    16   ar
    15    16    19    1
    16    19    20    1
    17    20    21   ar
    18    21    22   ar
    19    22    23   ar
    20    23    24   ar
    21    16    17   ar
    22    17    18   ar
    23     1     2    1
    24     2     3    1
    25     3     4    1
    26     4     5    1
    27     5     6    1
    28     6     9    1
    29     9    10    1
    30    10    11    1
    31    11    12    1
    32     6     7    1
    33     7     8    1
    34    34    35   ar
    35    35    36   ar
    36    36    31   ar
    37    29    25   ar
    38    18    13   ar
    39     8     2    1
    40    24    20   ar
    41    12     9    1
@<TRIPOS>MOLECULE
*****
 36 41 0 0 0
SMALL
GASTEIGER

@<TRIPOS>ATOM
      1 C           4.0878    0.2476   22.0192 C.3     1  UNL1        0.1412
      2 N           3.0664    0.5521   23.0747 N.3     1  UNL1       -0.2630
      3 C           1.7160    0.9696   22.5723 C.3     1  UNL1        0.0742
      4 C           0.4961    1.3371   23.3642 C.3     1  UNL1        0.0347
      5 C           0.3254    1.3777   24.8538 C.3     1  UNL1        0.0735
      6 N           1.3322    1.0610   25.9197 N.3     1  UNL1       -0.2727
      7 C           2.7586    0.6254   25.7590 C.3     1  UNL1        0.0896
      8 C           3.5303    0.3989   24.4928 C.3     1  UNL1        0.0902
      9 C           0.8488    1.1980   27.3330 C.3     1  UNL1        0.0575
     10 C           1.4074    1.7917   28.5922 C.3     1  UNL1        0.0160
     11 C           0.1652    1.3917   29.3318 C.3     1  UNL1        0.0028
     12 C          -0.3934    0.7980   28.0727 C.3     1  UNL1        0.0160
     13 C           4.9498   -0.9740   22.1400 C.ar    1  UNL1       -0.0005
     14 C           6.4299   -0.8724   21.9185 C.ar    1  UNL1       -0.0028
     15 C           7.2919   -2.0941   22.0393 C.ar    1  UNL1       -0.0026
     16 C           6.6738   -3.4172   22.3816 C.ar    1  UNL1        0.0021
     17 C           5.1938   -3.5188   22.6031 C.ar    1  UNL1       -0.0026
     18 C           4.3317   -2.2973   22.4823 C.ar    1  UNL1       -0.0028
     19 C           7.5359   -4.6388   22.5023 C.3     1  UNL1        0.1556
     20 N           7.5544   -5.4202   23.7826 N.ar    1  UNL1       -0.2255
     21 C           7.1777   -4.9003   25.1382 C.ar    1  UNL1        0.1975
     22 N           7.3433   -6.0174   26.1255 N.ar    1  UNL1       -0.2007
     23 C           7.8225   -7.2276   25.3801 C.ar    1  UNL1        0.2210
     24 N           7.9529   -6.8584   23.9321 N.ar    1  UNL1       -0.1448
     25 N           3.7408    0.9126   19.4536 N.ar    1  UNL1       -0.2108
     26 N           4.1213    2.0869   18.6015 N.ar    1  UNL1       -0.0428
     27 N           4.8628    3.0647   19.4642 N.ar    1  UNL1       -0.0229
     28 N           4.9405    2.4947   20.8495 N.ar    1  UNL1       -0.1110
     29 C           4.2470    1.1646   20.8430 C.ar    1  UNL1        0.1798
     30 C           2.9864   -0.3007   18.9967 C.3     1  UNL1        0.1570
     31 C           5.0596   -4.2887   18.7778 C.ar    1  UNL1       -0.0000
     32 C           5.7953   -3.0389   18.3948 C.ar    1  UNL1       -0.0003
     33 C           5.1043   -1.7096   18.4678 C.ar    1  UNL1       -0.0023
     34 C           3.6775   -1.6301   18.9237 C.ar    1  UNL1        0.0022
     35 C           2.9417   -2.8798   19.3067 C.ar    1  UNL1       -0.0023
     36 C           3.6328   -4.2091   19.2337 C.ar    1  UNL1       -0.0003
@<TRIPOS>BOND
     1    31    32   ar
     2    32    33   ar
     3    33    34   ar
     4    34    30    1
     5    30    25    1
     6    25    26   ar
     7    26    27   ar
     8    27    28   ar
     9    28    29   ar
    10    29     1    1
    11     1    13    1
    12    13    14   ar
    13    14    15   ar
    14    15    16   ar
    15    16    19    1
    16    19    20    1
    17    20    21   ar
    18    21    22   ar
    19    22    23   ar
    20    23    24   ar
    21    16    17   ar
    22    17    18   ar
    23     1     2    1
    24     2     3    1
    25     3     4    1
    26     4     5    1
    27     5     6    1
    28     6     9    1
    29     9    10    1
    30    10    11    1
    31    11    12    1
    32     6     7    1
    33     7     8    1
    34    34    35   ar
    35    35    36   ar
    36    36    31   ar
    37    29    25   ar
    38    18    13   ar
    39     8     2    1
    40    24    20   ar
    41    12     9    1
@<TRIPOS>MOLECULE
*****
 36 41 0 0 0
SMALL
GASTEIGER

@<TRIPOS>ATOM
      1 C           5.7423   -1.6076   21.4514 C.3     1  UNL1        0.1412
      2 N           4.7620   -0.5608   21.8910 N.3     1  UNL1       -0.2630
      3 C           4.9325    0.7930   21.2678 C.3     1  UNL1        0.0742
      4 C           4.1238    2.0358   21.4953 C.3     1  UNL1        0.0347
      5 C           2.9452    2.2317   22.4020 C.3     1  UNL1        0.0735
      6 N           2.2839    1.2333   23.3053 N.3     1  UNL1       -0.2727
      7 C           2.6380   -0.2077   23.5249 C.3     1  UNL1        0.0896
      8 C           3.7409   -1.0061   22.8954 C.3     1  UNL1        0.0902
      9 C           1.1138    1.7432   24.0931 C.3     1  UNL1        0.0575
     10 C           0.3967    3.0566   24.1975 C.3     1  UNL1        0.0160
     11 C          -0.5411    2.4644   25.2073 C.3     1  UNL1        0.0028
     12 C           0.1759    1.1510   25.1031 C.3     1  UNL1        0.0160
     13 C           6.5106   -2.3919   22.4734 C.ar    1  UNL1       -0.0005
     14 C           7.3594   -1.6785   23.4837 C.ar    1  UNL1       -0.0028
     15 C           8.1276   -2.4630   24.5057 C.ar    1  UNL1       -0.0026
     16 C           8.0472   -3.9607   24.5174 C.ar    1  UNL1        0.0021
     17 C           7.1985   -4.6741   23.5071 C.ar    1  UNL1       -0.0026
     18 C           6.4302   -3.8898   22.4851 C.ar    1  UNL1       -0.0028
     19 C           8.8156   -4.7451   25.5394 C.3     1  UNL1        0.1556
     20 N           8.1534   -5.1595   26.8199 N.ar    1  UNL1       -0.2255
     21 C           6.7629   -4.7979   27.2506 C.ar    1  UNL1        0.1975
     22 N           6.5156   -5.4232   28.5915 N.ar    1  UNL1       -0.2007
     23 C           7.7534   -6.1713   28.9895 C.ar    1  UNL1        0.2210
     24 N           8.7655   -6.0083   27.8945 N.ar    1  UNL1       -0.1448
     25 N           4.8840   -2.1782   18.9851 N.ar    1  UNL1       -0.2108
     26 N           5.5420   -2.3690   17.6507 N.ar    1  UNL1       -0.0428
     27 N           7.0190   -2.1786   17.8307 N.ar    1  UNL1       -0.0229
     28 N           7.2738   -1.8702   19.2764 N.ar    1  UNL1       -0.1110
     29 C           5.9543   -1.8700   19.9899 C.ar    1  UNL1        0.1798
     30 C           3.4139   -2.2782   19.2655 C.3     1  UNL1        0.1570
     31 C           0.8677    1.4322   19.2743 C.ar    1  UNL1       -0.0000
     32 C           2.0537    1.3386   18.3606 C.ar    1  UNL1       -0.0003
     33 C           2.9023    0.1018   18.3577 C.ar    1  UNL1       -0.0023
     34 C           2.5651   -1.0413   19.2684 C.ar    1  UNL1        0.0022
     35 C           1.3792   -0.9478   20.1821 C.ar    1  UNL1       -0.0023
     36 C           0.5305    0.2890   20.1850 C.ar    1  UNL1       -0.0003
@<TRIPOS>BOND
     1    31    32   ar
     2    32    33   ar
     3    33    34   ar
     4    34    30    1
     5    30    25    1
     6    25    26   ar
     7    26    27   ar
     8    27    28   ar
     9    28    29   ar
    10    29     1    1
    11     1    13    1
    12    13    14   ar
    13    14    15   ar
    14    15    16   ar
    15    16    19    1
    16    19    20    1
    17    20    21   ar
    18    21    22   ar
    19    22    23   ar
    20    23    24   ar
    21    16    17   ar
    22    17    18   ar
    23     1     2    1
    24     2     3    1
    25     3     4    1
    26     4     5    1
    27     5     6    1
    28     6     9    1
    29     9    10    1
    30    10    11    1
    31    11    12    1
    32     6     7    1
    33     7     8    1
    34    34    35   ar
    35    35    36   ar
    36    36    31   ar
    37    29    25   ar
    38    18    13   ar
    39     8     2    1
    40    24    20   ar
    41    12     9    1
@<TRIPOS>MOLECULE
*****
 36 41 0 0 0
SMALL
GASTEIGER

@<TRIPOS>ATOM
      1 C           5.1080   -2.7745   21.7330 C.3     1  UNL1        0.1412
      2 N           6.1873   -3.0917   22.7252 N.3     1  UNL1       -0.2630
      3 C           7.5796   -3.1634   22.1715 C.3     1  UNL1        0.0742
      4 C           8.8602   -3.4565   22.8958 C.3     1  UNL1        0.0347
      5 C           9.0646   -3.7500   24.3524 C.3     1  UNL1        0.0735
      6 N           8.0392   -3.8231   25.4447 N.3     1  UNL1       -0.2727
      7 C           6.5559   -3.6207   25.3501 C.3     1  UNL1        0.0896
      8 C           5.7318   -3.2952   24.1397 C.3     1  UNL1        0.0902
      9 C           8.5667   -4.1407   26.8125 C.3     1  UNL1        0.0575
     10 C           9.5359   -5.1408   27.3698 C.3     1  UNL1        0.0160
     11 C           9.3128   -4.5897   28.7469 C.3     1  UNL1        0.0028
     12 C           8.3435   -3.5896   28.1898 C.3     1  UNL1        0.0160
     13 C           4.4234   -1.4404   21.7704 C.ar    1  UNL1       -0.0005
     14 C           5.2038   -0.2062   22.1137 C.ar    1  UNL1       -0.0028
     15 C           4.5190    1.1279   22.1511 C.ar    1  UNL1       -0.0026
     16 C           3.0539    1.2278   21.8453 C.ar    1  UNL1        0.0021
     17 C           2.2735   -0.0064   21.5021 C.ar    1  UNL1       -0.0026
     18 C           2.9582   -1.3405   21.4646 C.ar    1  UNL1       -0.0028
     19 C           2.3692    2.5619   21.8827 C.3     1  UNL1        0.1556
     20 N           0.9670    2.7000   21.3682 N.ar    1  UNL1       -0.2255
     21 C          -0.2859    2.6063   22.1876 C.ar    1  UNL1        0.1975
     22 N          -1.4558    2.8044   21.2698 N.ar    1  UNL1       -0.2007
     23 C          -0.9258    3.0205   19.8833 C.ar    1  UNL1        0.2210
     24 N           0.5715    2.9559   19.9442 N.ar    1  UNL1       -0.1448
     25 N           5.0340   -3.7338   19.2392 N.ar    1  UNL1       -0.2108
     26 N           4.4477   -4.9513   18.5880 N.ar    1  UNL1       -0.0428
     27 N           3.7647   -5.7613   19.6498 N.ar    1  UNL1       -0.0229
     28 N           3.9289   -5.0445   20.9572 N.ar    1  UNL1       -0.1110
     29 C           4.7134   -3.7914   20.7034 C.ar    1  UNL1        0.1798
     30 C           5.8055   -2.6491   18.5475 C.3     1  UNL1        0.1570
     31 C           4.0394    1.4717   18.1603 C.ar    1  UNL1       -0.0000
     32 C           3.1877    0.2635   17.9049 C.ar    1  UNL1       -0.0003
     33 C           3.7764   -1.1100   18.0340 C.ar    1  UNL1       -0.0023
     34 C           5.2168   -1.2755   18.4185 C.ar    1  UNL1        0.0022
     35 C           6.0685   -0.0675   18.6739 C.ar    1  UNL1       -0.0023
     36 C           5.4797    1.3061   18.5448 C.ar    1  UNL1       -0.0003
@<TRIPOS>BOND
     1    31    32   ar
     2    32    33   ar
     3    33    34   ar
     4    34    30    1
     5    30    25    1
     6    25    26   ar
     7    26    27   ar
     8    27    28   ar
     9    28    29   ar
    10    29     1    1
    11     1    13    1
    12    13    14   ar
    13    14    15   ar
    14    15    16   ar
    15    16    19    1
    16    19    20    1
    17    20    21   ar
    18    21    22   ar
    19    22    23   ar
    20    23    24   ar
    21    16    17   ar
    22    17    18   ar
    23     1     2    1
    24     2     3    1
    25     3     4    1
    26     4     5    1
    27     5     6    1
    28     6     9    1
    29     9    10    1
    30    10    11    1
    31    11    12    1
    32     6     7    1
    33     7     8    1
    34    34    35   ar
    35    35    36   ar
    36    36    31   ar
    37    29    25   ar
    38    18    13   ar
    39     8     2    1
    40    24    20   ar
    41    12     9    1
@<TRIPOS>MOLECULE
*****
 36 41 0 0 0
SMALL
GASTEIGER

@<TRIPOS>ATOM
      1 C           6.1447   -1.5110   30.8135 C.3     1  UNL1        0.1412
      2 N           6.5642   -2.9009   30.4365 N.3     1  UNL1       -0.2630
      3 C           6.8305   -3.8332   31.5811 C.3     1  UNL1        0.0742
      4 C           7.2603   -5.2697   31.5366 C.3     1  UNL1        0.0347
      5 C           7.5300   -6.1284   30.3368 C.3     1  UNL1        0.0735
      6 N           7.4366   -5.7630   28.8850 N.3     1  UNL1       -0.2727
      7 C           7.0503   -4.4485   28.2745 C.3     1  UNL1        0.0896
      8 C           6.6621   -3.1747   28.9651 C.3     1  UNL1        0.0902
      9 C           7.7740   -6.8567   27.9156 C.3     1  UNL1        0.0575
     10 C           8.6260   -8.0904   27.9628 C.3     1  UNL1        0.0160
     11 C           8.2513   -8.4035   26.5445 C.3     1  UNL1        0.0028
     12 C           7.3993   -7.1698   26.4972 C.3     1  UNL1        0.0160
     13 C           5.8725   -1.1731   32.2493 C.ar    1  UNL1       -0.0005
     14 C           6.8479   -0.3341   33.0204 C.ar    1  UNL1       -0.0028
     15 C           6.5756    0.0037   34.4563 C.ar    1  UNL1       -0.0026
     16 C           5.3280   -0.4976   35.1211 C.ar    1  UNL1        0.0021
     17 C           4.3525   -1.3366   34.3501 C.ar    1  UNL1       -0.0026
     18 C           4.6247   -1.6744   32.9143 C.ar    1  UNL1       -0.0028
     19 C           5.0557   -0.1597   36.5571 C.3     1  UNL1        0.1556
     20 N           3.9779    0.8238   36.9048 N.ar    1  UNL1       -0.2255
     21 C           3.3594    1.8209   35.9705 C.ar    1  UNL1        0.1975
     22 N           2.3286    2.5963   36.7362 N.ar    1  UNL1       -0.2007
     23 C           2.3102    2.0784   38.1439 C.ar    1  UNL1        0.2210
     24 N           3.3296    0.9829   38.2480 N.ar    1  UNL1       -0.1448
     25 N           4.7043    0.0360   29.1772 N.ar    1  UNL1       -0.2108
     26 N           5.0250    1.0838   28.1528 N.ar    1  UNL1       -0.0428
     27 N           6.5161    1.2364   28.0970 N.ar    1  UNL1       -0.0229
     28 N           7.1171    0.2831   29.0869 N.ar    1  UNL1       -0.1110
     29 C           5.9973   -0.4589   29.7545 C.ar    1  UNL1        0.1798
     30 C           3.3317   -0.4344   29.5575 C.3     1  UNL1        0.1570
     31 C           0.5294    2.3308   31.7373 C.ar    1  UNL1       -0.0000
     32 C           1.8034    1.8853   32.3919 C.ar    1  UNL1       -0.0003
     33 C           2.7375    0.9636   31.6653 C.ar    1  UNL1       -0.0023
     34 C           2.3976    0.4874   30.2841 C.ar    1  UNL1        0.0022
     35 C           1.1236    0.9329   29.6295 C.ar    1  UNL1       -0.0023
     36 C           0.1896    1.8546   30.3561 C.ar    1  UNL1       -0.0003
@<TRIPOS>BOND
     1    31    32   ar
     2    32    33   ar
     3    33    34   ar
     4    34    30    1
     5    30    25    1
     6    25    26   ar
     7    26    27   ar
     8    27    28   ar
     9    28    29   ar
    10    29     1    1
    11     1    13    1
    12    13    14   ar
    13    14    15   ar
    14    15    16   ar
    15    16    19    1
    16    19    20    1
    17    20    21   ar
    18    21    22   ar
    19    22    23   ar
    20    23    24   ar
    21    16    17   ar
    22    17    18   ar
    23     1     2    1
    24     2     3    1
    25     3     4    1
    26     4     5    1
    27     5     6    1
    28     6     9    1
    29     9    10    1
    30    10    11    1
    31    11    12    1
    32     6     7    1
    33     7     8    1
    34    34    35   ar
    35    35    36   ar
    36    36    31   ar
    37    29    25   ar
    38    18    13   ar
    39     8     2    1
    40    24    20   ar
    41    12     9    1
@<TRIPOS>MOLECULE
*****
 36 41 0 0 0
SMALL
GASTEIGER

@<TRIPOS>ATOM
      1 C           0.4773    3.6417   21.2331 C.3     1  UNL1        0.1412
      2 N          -0.8074    4.0096   21.9144 N.3     1  UNL1       -0.2630
      3 C          -0.6759    4.9005   23.1140 C.3     1  UNL1        0.0742
      4 C          -1.7584    5.4398   24.0016 C.3     1  UNL1        0.0347
      5 C          -3.2394    5.2213   23.9087 C.3     1  UNL1        0.0735
      6 N          -4.0040    4.4096   22.9054 N.3     1  UNL1       -0.2727
      7 C          -3.4763    3.6159   21.7471 C.3     1  UNL1        0.0896
      8 C          -2.0536    3.4379   21.3061 C.3     1  UNL1        0.0902
      9 C          -5.4931    4.3889   23.0840 C.3     1  UNL1        0.0575
     10 C          -6.4199    4.3767   24.2634 C.3     1  UNL1        0.0160
     11 C          -7.5992    4.3595   23.3365 C.3     1  UNL1        0.0028
     12 C          -6.6725    4.3717   22.1571 C.3     1  UNL1        0.0160
     13 C           1.4145    2.6636   21.8771 C.ar    1  UNL1       -0.0005
     14 C           2.8886    2.7531   21.6146 C.ar    1  UNL1       -0.0028
     15 C           3.8258    1.7749   22.2588 C.ar    1  UNL1       -0.0026
     16 C           3.2889    0.7073   23.1653 C.ar    1  UNL1        0.0021
     17 C           1.8148    0.6178   23.4278 C.ar    1  UNL1       -0.0026
     18 C           0.8775    1.5960   22.7838 C.ar    1  UNL1       -0.0028
     19 C           4.2261   -0.2709   23.8095 C.3     1  UNL1        0.1556
     20 N           4.8488   -1.3631   22.9914 N.ar    1  UNL1       -0.2255
     21 C           4.3571   -2.7763   22.8875 C.ar    1  UNL1        0.1975
     22 N           5.2770   -3.5206   21.9654 N.ar    1  UNL1       -0.2007
     23 C           6.3371   -2.5672   21.4995 C.ar    1  UNL1        0.2210
     24 N           6.0724   -1.2338   22.1336 N.ar    1  UNL1       -0.1448
     25 N           0.8305    3.5440   18.5852 N.ar    1  UNL1       -0.2108
     26 N           1.2367    4.5320   17.5322 N.ar    1  UNL1       -0.0428
     27 N           1.4821    5.8506   18.2038 N.ar    1  UNL1       -0.0229
     28 N           1.2275    5.6776   19.6718 N.ar    1  UNL1       -0.1110
     29 C           0.8247    4.2521   19.9076 C.ar    1  UNL1        0.1798
     30 C           0.4897    2.1013   18.3562 C.3     1  UNL1        0.1570
     31 C           3.3520   -1.1198   19.6533 C.ar    1  UNL1       -0.0000
     32 C           1.9291   -1.1453   20.1276 C.ar    1  UNL1       -0.0003
     33 C           0.9751   -0.0716   19.6952 C.ar    1  UNL1       -0.0023
     34 C           1.4438    1.0275   18.7886 C.ar    1  UNL1        0.0022
     35 C           2.8666    1.0531   18.3143 C.ar    1  UNL1       -0.0023
     36 C           3.8206   -0.0206   18.7467 C.ar    1  UNL1       -0.0003
@<TRIPOS>BOND
     1    31    32   ar
     2    32    33   ar
     3    33    34   ar
     4    34    30    1
     5    30    25    1
     6    25    26   ar
     7    26    27   ar
     8    27    28   ar
     9    28    29   ar
    10    29     1    1
    11     1    13    1
    12    13    14   ar
    13    14    15   ar
    14    15    16   ar
    15    16    19    1
    16    19    20    1
    17    20    21   ar
    18    21    22   ar
    19    22    23   ar
    20    23    24   ar
    21    16    17   ar
    22    17    18   ar
    23     1     2    1
    24     2     3    1
    25     3     4    1
    26     4     5    1
    27     5     6    1
    28     6     9    1
    29     9    10    1
    30    10    11    1
    31    11    12    1
    32     6     7    1
    33     7     8    1
    34    34    35   ar
    35    35    36   ar
    36    36    31   ar
    37    29    25   ar
    38    18    13   ar
    39     8     2    1
    40    24    20   ar
    41    12     9    1
