@<TRIPOS>MOLECULE
*****
 40 43 0 0 0
SMALL
GASTEIGER

@<TRIPOS>ATOM
      1 C           0.6330    1.9749   27.0195 C.ar    1  UNL1        0.0053
      2 C          -0.5937    2.3601   26.2470 C.ar    1  UNL1        0.0033
      3 C          -0.6551    2.1186   24.7679 C.ar    1  UNL1        0.0382
      4 C           0.5102    1.4920   24.0612 C.ar    1  UNL1        0.1529
      5 C           1.7369    1.1068   24.8337 C.ar    1  UNL1        0.0881
      6 C           1.7983    1.3483   26.3128 C.ar    1  UNL1        0.0181
      7 N           2.9022    0.4802   24.1270 N.am    1  UNL1       -0.2528
      8 C           2.8409    0.2387   22.6479 C.2     1  UNL1        0.2697
      9 O           4.0062   -0.3879   21.9413 O.2     1  UNL1       -0.2704
     10 C           1.6141    0.6239   21.8754 C.3     1  UNL1        0.2197
     11 O           0.4488    1.2505   22.5820 O.3     1  UNL1       -0.4686
     12 C           0.2982    1.1292   29.4532 C.ar    1  UNL1        0.0645
     13 N           0.3597    1.3706   30.9323 N.ar    1  UNL1       -0.2183
     14 C           0.8173    2.6993   31.4570 C.ar    1  UNL1        0.2145
     15 N           0.8787    2.9407   32.9362 N.pl3   1  UNL1       -0.3274
     16 N           1.2135    3.7865   30.5026 N.ar    1  UNL1       -0.1995
     17 C           1.1520    3.5450   29.0234 C.ar    1  UNL1        0.1293
     18 N           1.5482    4.6322   28.0689 N.pl3   1  UNL1       -0.3425
     19 C           0.6944    2.2164   28.4987 C.ar    1  UNL1        0.0449
     20 H           0.6187    2.2271   33.5626 H       1  UNL1        0.1452
     21 H           1.1791    3.8127   33.2806 H       1  UNL1        0.1452
     22 H           1.8486    5.5042   28.4133 H       1  UNL1        0.1437
     23 H           1.5079    4.4737   27.0981 H       1  UNL1        0.1437
     24 C          -1.6198   -0.5418   28.9249 C.3     1  UNL1        0.0067
     25 C          -0.1594   -0.1995   28.9284 C.3     1  UNL1        0.0460
     26 C           2.4548    0.0634   20.7667 C.ar    1  UNL1        0.0264
     27 C           2.4186   -1.4060   20.4674 C.ar    1  UNL1        0.0293
     28 C           3.2593   -1.9664   19.3587 C.ar    1  UNL1        0.1422
     29 F           3.2231   -3.4359   19.0594 F       1  UNL1       -0.2041
     30 C           4.1361   -1.0576   18.5494 C.ar    1  UNL1        0.0592
     31 C           4.1723    0.4118   18.8488 C.ar    1  UNL1        0.1422
     32 F           5.0492    1.3207   18.0394 F       1  UNL1       -0.2041
     33 C           3.3316    0.9723   19.9574 C.ar    1  UNL1        0.0293
     34 C           0.6793    0.8144   20.7178 C.3     1  UNL1        0.0535
     35 C          -0.1638    2.0520   20.6305 C.3     1  UNL1        0.0046
     36 C           4.1290    0.0950   24.8995 C.3     1  UNL1        0.1010
     37 C           4.3437   -1.3338   25.3024 C.3     1  UNL1        0.0539
     38 C           4.5149   -1.6872   26.7501 C.3     1  UNL1        0.1440
     39 O           3.3617   -1.5437   27.6986 O.3     1  UNL1       -0.3510
     40 C           3.4986   -0.6858   28.9214 C.3     1  UNL1        0.1741
@<TRIPOS>BOND
     1    24    25    1
     2    25    12    1
     3    12    13   ar
     4    13    14   ar
     5    14    15    1
     6    14    16   ar
     7    16    17   ar
     8    17    18    1
     9    17    19   ar
    10    19     1    1
    11     1     2   ar
    12     2     3   ar
    13     3     4   ar
    14     4     5   ar
    15     5     6   ar
    16     5     7    1
    17     7    36    1
    18    36    37    1
    19    37    38    1
    20    38    39    1
    21    39    40    1
    22     7     8   am
    23     8     9    2
    24     8    10    1
    25    10    34    1
    26    34    35    1
    27    10    26    1
    28    26    27   ar
    29    27    28   ar
    30    28    29    1
    31    28    30   ar
    32    30    31   ar
    33    31    32    1
    34    31    33   ar
    35    10    11    1
    36    19    12   ar
    37     6     1   ar
    38    33    26   ar
    39    11     4    1
    40    15    20    1
    41    15    21    1
    42    18    22    1
    43    18    23    1
@<TRIPOS>MOLECULE
*****
 40 43 0 0 0
SMALL
GASTEIGER

@<TRIPOS>ATOM
      1 C           0.6472    1.9738   26.9896 C.ar    1  UNL1        0.0053
      2 C          -0.5629    2.3912   26.2078 C.ar    1  UNL1        0.0033
      3 C          -0.6191    2.1517   24.7281 C.ar    1  UNL1        0.0382
      4 C           0.5349    1.4949   24.0303 C.ar    1  UNL1        0.1529
      5 C           1.7450    1.0776   24.8122 C.ar    1  UNL1        0.0881
      6 C           1.8012    1.3171   26.2918 C.ar    1  UNL1        0.0181
      7 N           2.8990    0.4208   24.1143 N.am    1  UNL1       -0.2528
      8 C           2.8429    0.1814   22.6347 C.2     1  UNL1        0.2697
      9 O           3.9968   -0.4754   21.9368 O.2     1  UNL1       -0.2704
     10 C           1.6327    0.5987   21.8527 C.3     1  UNL1        0.2197
     11 O           0.4787    1.2555   22.5506 O.3     1  UNL1       -0.4686
     12 C           0.2895    1.1299   29.4207 C.ar    1  UNL1        0.0645
     13 N           0.3457    1.3693   30.9004 N.ar    1  UNL1       -0.2183
     14 C           0.8159    2.6921   31.4288 C.ar    1  UNL1        0.2145
     15 N           0.8721    2.9315   32.9085 N.pl3   1  UNL1       -0.3274
     16 N           1.2298    3.7755   30.4775 N.ar    1  UNL1       -0.1995
     17 C           1.1736    3.5360   28.9978 C.ar    1  UNL1        0.1293
     18 N           1.5875    4.6194   28.0465 N.pl3   1  UNL1       -0.3425
     19 C           0.7034    2.2133   28.4694 C.ar    1  UNL1        0.0449
     20 H           0.6004    2.2205   33.5329 H       1  UNL1        0.1452
     21 H           1.1806    3.7997   33.2553 H       1  UNL1        0.1452
     22 H           1.8961    5.4876   28.3933 H       1  UNL1        0.1437
     23 H           1.5506    4.4623   27.0753 H       1  UNL1        0.1437
     24 C          -1.6408   -0.5353   28.9195 C.3     1  UNL1        0.0067
     25 C          -0.1807   -0.1929   28.8922 C.3     1  UNL1        0.0460
     26 C           2.4670    0.0167   20.7505 C.ar    1  UNL1        0.0264
     27 C           3.3646    0.9045   19.9405 C.ar    1  UNL1        0.0293
     28 C           4.1990    0.3224   18.8382 C.ar    1  UNL1        0.1422
     29 F           5.0967    1.2103   18.0283 F       1  UNL1       -0.2041
     30 C           4.1357   -1.1474   18.5458 C.ar    1  UNL1        0.0592
     31 C           3.2380   -2.0352   19.3557 C.ar    1  UNL1        0.1422
     32 F           3.1747   -3.5051   19.0633 F       1  UNL1       -0.2041
     33 C           2.4037   -1.4532   20.4581 C.ar    1  UNL1        0.0293
     34 C           0.7122    0.8139   20.6881 C.3     1  UNL1        0.0535
     35 C          -0.1215    2.0585   20.6110 C.3     1  UNL1        0.0046
     36 C           4.1092    0.0035   24.8962 C.3     1  UNL1        0.1010
     37 C           4.1378   -1.3324   25.5778 C.3     1  UNL1        0.0539
     38 C           4.4152   -1.4176   27.0495 C.3     1  UNL1        0.1440
     39 O           3.2828   -1.3531   28.0311 O.3     1  UNL1       -0.3510
     40 C           3.5003   -0.7532   29.3886 C.3     1  UNL1        0.1741
@<TRIPOS>BOND
     1    24    25    1
     2    25    12    1
     3    12    13   ar
     4    13    14   ar
     5    14    15    1
     6    14    16   ar
     7    16    17   ar
     8    17    18    1
     9    17    19   ar
    10    19     1    1
    11     1     2   ar
    12     2     3   ar
    13     3     4   ar
    14     4     5   ar
    15     5     6   ar
    16     5     7    1
    17     7    36    1
    18    36    37    1
    19    37    38    1
    20    38    39    1
    21    39    40    1
    22     7     8   am
    23     8     9    2
    24     8    10    1
    25    10    34    1
    26    34    35    1
    27    10    26    1
    28    26    27   ar
    29    27    28   ar
    30    28    29    1
    31    28    30   ar
    32    30    31   ar
    33    31    32    1
    34    31    33   ar
    35    10    11    1
    36    19    12   ar
    37     6     1   ar
    38    33    26   ar
    39    11     4    1
    40    15    20    1
    41    15    21    1
    42    18    22    1
    43    18    23    1
@<TRIPOS>MOLECULE
*****
 40 43 0 0 0
SMALL
GASTEIGER

@<TRIPOS>ATOM
      1 C           1.8343    0.9515   26.7037 C.ar    1  UNL1        0.0053
      2 C           0.8260    1.6769   25.8629 C.ar    1  UNL1        0.0033
      3 C           0.8245    1.4991   24.3735 C.ar    1  UNL1        0.0382
      4 C           1.8313    0.5958   23.7250 C.ar    1  UNL1        0.1529
      5 C           2.8395   -0.1296   24.5658 C.ar    1  UNL1        0.0881
      6 C           2.8410    0.0482   26.0552 C.ar    1  UNL1        0.0181
      7 N           3.8463   -1.0329   23.9173 N.am    1  UNL1       -0.2528
      8 C           3.8448   -1.2107   22.4279 C.2     1  UNL1        0.2697
      9 O           4.8515   -2.1140   21.7794 O.2     1  UNL1       -0.2704
     10 C           2.8365   -0.4852   21.5870 C.3     1  UNL1        0.2197
     11 O           1.8297    0.4180   22.2355 O.3     1  UNL1       -0.4686
     12 C           0.7299    0.5428   29.0197 C.ar    1  UNL1        0.0645
     13 N           0.7314    0.7205   30.5091 N.ar    1  UNL1       -0.2183
     14 C           1.8389    1.4848   31.1721 C.ar    1  UNL1        0.2145
     15 N           1.8404    1.6626   32.6615 N.pl3   1  UNL1       -0.3274
     16 N           2.9448    2.0713   30.3456 N.ar    1  UNL1       -0.1995
     17 C           2.9432    1.8935   28.8562 C.ar    1  UNL1        0.1293
     18 N           4.0491    2.4800   28.0297 N.pl3   1  UNL1       -0.3425
     19 C           1.8358    1.1292   28.1932 C.ar    1  UNL1        0.0449
     20 H           1.1145    1.2776   33.2039 H       1  UNL1        0.1452
     21 H           2.5672    2.1642   33.0966 H       1  UNL1        0.1452
     22 H           4.7760    2.9816   28.4648 H       1  UNL1        0.1437
     23 H           4.0482    2.3633   27.0522 H       1  UNL1        0.1437
     24 C          -1.7096   -0.3509   29.0340 C.3     1  UNL1        0.0067
     25 C          -0.3775   -0.2215   28.3566 C.3     1  UNL1        0.0460
     26 C           3.5831   -1.2259   20.5174 C.ar    1  UNL1        0.0264
     27 C           3.1628   -2.6135   20.1331 C.ar    1  UNL1        0.0293
     28 C           3.9095   -3.3542   19.0635 C.ar    1  UNL1        0.1422
     29 F           3.4890   -4.7419   18.6792 F       1  UNL1       -0.2041
     30 C           5.0764   -2.7072   18.3783 C.ar    1  UNL1        0.0592
     31 C           5.4967   -1.3196   18.7626 C.ar    1  UNL1        0.1422
     32 F           6.6637   -0.6726   18.0774 F       1  UNL1       -0.2041
     33 C           4.7501   -0.5789   19.8322 C.ar    1  UNL1        0.0293
     34 C           2.0875   -0.0170   20.3746 C.3     1  UNL1        0.0535
     35 C           0.5878    0.0121   20.3844 C.3     1  UNL1        0.0046
     36 C           4.8545   -1.7583   24.7582 C.3     1  UNL1        0.1010
     37 C           6.2092   -1.1575   24.9901 C.3     1  UNL1        0.0539
     38 C           6.4761   -0.3683   26.2375 C.3     1  UNL1        0.1440
     39 O           6.2406    1.1131   26.2526 O.3     1  UNL1       -0.3510
     40 C           5.9900    1.8457   24.9679 C.3     1  UNL1        0.1741
@<TRIPOS>BOND
     1    24    25    1
     2    25    12    1
     3    12    13   ar
     4    13    14   ar
     5    14    15    1
     6    14    16   ar
     7    16    17   ar
     8    17    18    1
     9    17    19   ar
    10    19     1    1
    11     1     2   ar
    12     2     3   ar
    13     3     4   ar
    14     4     5   ar
    15     5     6   ar
    16     5     7    1
    17     7    36    1
    18    36    37    1
    19    37    38    1
    20    38    39    1
    21    39    40    1
    22     7     8   am
    23     8     9    2
    24     8    10    1
    25    10    34    1
    26    34    35    1
    27    10    26    1
    28    26    27   ar
    29    27    28   ar
    30    28    29    1
    31    28    30   ar
    32    30    31   ar
    33    31    32    1
    34    31    33   ar
    35    10    11    1
    36    19    12   ar
    37     6     1   ar
    38    33    26   ar
    39    11     4    1
    40    15    20    1
    41    15    21    1
    42    18    22    1
    43    18    23    1
@<TRIPOS>MOLECULE
*****
 40 43 0 0 0
SMALL
GASTEIGER

@<TRIPOS>ATOM
      1 C           1.3248    1.2401   26.4977 C.ar    1  UNL1        0.0053
      2 C           0.4082    1.9906   25.5777 C.ar    1  UNL1        0.0033
      3 C           0.5111    1.7963   24.0940 C.ar    1  UNL1        0.0382
      4 C           1.5305    0.8514   23.5302 C.ar    1  UNL1        0.1529
      5 C           2.4471    0.1008   24.4502 C.ar    1  UNL1        0.0881
      6 C           2.3443    0.2952   25.9340 C.ar    1  UNL1        0.0181
      7 N           3.4666   -0.8441   23.8864 N.am    1  UNL1       -0.2528
      8 C           3.5694   -1.0385   22.4026 C.2     1  UNL1        0.2697
      9 O           4.5889   -1.9834   21.8389 O.2     1  UNL1       -0.2704
     10 C           2.6528   -0.2879   21.4826 C.3     1  UNL1        0.2197
     11 O           1.6333    0.6570   22.0463 O.3     1  UNL1       -0.4686
     12 C           2.0820    2.4555   28.6656 C.ar    1  UNL1        0.0645
     13 N           1.9792    2.6499   30.1494 N.ar    1  UNL1       -0.2183
     14 C           1.0165    1.8231   30.9492 C.ar    1  UNL1        0.2145
     15 N           0.9137    2.0175   32.4330 N.pl3   1  UNL1       -0.3274
     16 N           0.1565    0.8020   30.2652 N.ar    1  UNL1       -0.1995
     17 C           0.2594    0.6077   28.7813 C.ar    1  UNL1        0.1293
     18 N          -0.6006   -0.4134   28.0973 N.pl3   1  UNL1       -0.3425
     19 C           1.2220    1.4344   27.9816 C.ar    1  UNL1        0.0449
     20 H           1.4781    2.6877   32.8819 H       1  UNL1        0.1452
     21 H           0.2819    1.4749   32.9579 H       1  UNL1        0.1452
     22 H          -1.2324   -0.9561   28.6223 H       1  UNL1        0.1437
     23 H          -0.5331   -0.5410   27.1235 H       1  UNL1        0.1437
     24 C           4.4777    2.8562   27.7436 C.3     1  UNL1        0.0067
     25 C           3.0447    3.2823   27.8657 C.3     1  UNL1        0.0460
     26 C           3.4500   -1.0660   20.4782 C.ar    1  UNL1        0.0264
     27 C           4.6801   -0.4629   19.8673 C.ar    1  UNL1        0.0293
     28 C           5.4774   -1.2410   18.8628 C.ar    1  UNL1        0.1422
     29 F           6.7075   -0.6378   18.2519 F       1  UNL1       -0.2041
     30 C           5.0446   -2.6222   18.4693 C.ar    1  UNL1        0.0592
     31 C           3.8146   -3.2253   19.0802 C.ar    1  UNL1        0.1422
     32 F           3.3818   -4.6066   18.6866 F       1  UNL1       -0.2041
     33 C           3.0172   -2.4473   20.0846 C.ar    1  UNL1        0.0293
     34 C           2.0130    0.1925   20.2137 C.3     1  UNL1        0.0535
     35 C           0.5185    0.2658   20.1084 C.3     1  UNL1        0.0046
     36 C           4.3832   -1.5947   24.8064 C.3     1  UNL1        0.1010
     37 C           5.7937   -1.1254   25.0068 C.3     1  UNL1        0.0539
     38 C           6.9396   -1.9708   24.5353 C.3     1  UNL1        0.1440
     39 O           6.7128   -3.4101   24.1791 O.3     1  UNL1       -0.3510
     40 C           6.8069   -4.4685   25.2378 C.3     1  UNL1        0.1741
@<TRIPOS>BOND
     1    24    25    1
     2    25    12    1
     3    12    13   ar
     4    13    14   ar
     5    14    15    1
     6    14    16   ar
     7    16    17   ar
     8    17    18    1
     9    17    19   ar
    10    19     1    1
    11     1     2   ar
    12     2     3   ar
    13     3     4   ar
    14     4     5   ar
    15     5     6   ar
    16     5     7    1
    17     7    36    1
    18    36    37    1
    19    37    38    1
    20    38    39    1
    21    39    40    1
    22     7     8   am
    23     8     9    2
    24     8    10    1
    25    10    34    1
    26    34    35    1
    27    10    26    1
    28    26    27   ar
    29    27    28   ar
    30    28    29    1
    31    28    30   ar
    32    30    31   ar
    33    31    32    1
    34    31    33   ar
    35    10    11    1
    36    19    12   ar
    37     6     1   ar
    38    33    26   ar
    39    11     4    1
    40    15    20    1
    41    15    21    1
    42    18    22    1
    43    18    23    1
@<TRIPOS>MOLECULE
*****
 40 43 0 0 0
SMALL
GASTEIGER

@<TRIPOS>ATOM
      1 C           1.3074    1.2352   26.4213 C.ar    1  UNL1        0.0053
      2 C           0.3708    1.9282   25.4766 C.ar    1  UNL1        0.0033
      3 C           0.4896    1.6980   23.9992 C.ar    1  UNL1        0.0382
      4 C           1.5450    0.7749   23.4665 C.ar    1  UNL1        0.1529
      5 C           2.4817    0.0819   24.4111 C.ar    1  UNL1        0.0881
      6 C           2.3629    0.3121   25.8886 C.ar    1  UNL1        0.0181
      7 N           3.5372   -0.8412   23.8784 N.am    1  UNL1       -0.2528
      8 C           3.6560   -1.0714   22.4010 C.2     1  UNL1        0.2697
      9 O           4.7115   -1.9945   21.8682 O.2     1  UNL1       -0.2704
     10 C           2.7193   -0.3784   21.4562 C.3     1  UNL1        0.2197
     11 O           1.6638    0.5447   21.9889 O.3     1  UNL1       -0.4686
     12 C           2.0389    2.5051   28.5667 C.ar    1  UNL1        0.0645
     13 N           1.9202    2.7353   30.0441 N.ar    1  UNL1       -0.2183
     14 C           0.9511    1.9257   30.8538 C.ar    1  UNL1        0.2145
     15 N           0.8323    2.1559   32.3312 N.pl3   1  UNL1       -0.3274
     16 N           0.1007    0.8860   30.1860 N.ar    1  UNL1       -0.1995
     17 C           0.2195    0.6559   28.7085 C.ar    1  UNL1        0.1293
     18 N          -0.6308   -0.3838   28.0407 N.pl3   1  UNL1       -0.3425
     19 C           1.1886    1.4654   27.8988 C.ar    1  UNL1        0.0449
     20 H           1.3904    2.8383   32.7695 H       1  UNL1        0.1452
     21 H           0.1963    1.6246   32.8626 H       1  UNL1        0.1452
     22 H          -1.2668   -0.9151   28.5721 H       1  UNL1        0.1437
     23 H          -0.5528   -0.5349   27.0709 H       1  UNL1        0.1437
     24 C           4.4402    2.8819   27.6491 C.3     1  UNL1        0.0067
     25 C           3.0081    3.3146   27.7570 C.3     1  UNL1        0.0460
     26 C           3.5496   -1.1545   20.4773 C.ar    1  UNL1        0.0264
     27 C           3.1398   -2.5417   20.0802 C.ar    1  UNL1        0.0293
     28 C           3.9702   -3.3178   19.1013 C.ar    1  UNL1        0.1422
     29 F           3.5602   -4.7050   18.7042 F       1  UNL1       -0.2041
     30 C           5.2103   -2.7067   18.5195 C.ar    1  UNL1        0.0592
     31 C           5.6201   -1.3195   18.9166 C.ar    1  UNL1        0.1422
     32 F           6.8603   -0.7084   18.3348 F       1  UNL1       -0.2041
     33 C           4.7898   -0.5434   19.8955 C.ar    1  UNL1        0.0293
     34 C           2.0710    0.0450   20.1715 C.3     1  UNL1        0.0535
     35 C           0.5768    0.1425   20.0820 C.3     1  UNL1        0.0046
     36 C           4.4738   -1.5342   24.8231 C.3     1  UNL1        0.1010
     37 C           5.7839   -0.8978   25.1817 C.3     1  UNL1        0.0539
     38 C           6.0409   -0.4534   26.5912 C.3     1  UNL1        0.1440
     39 O           5.6135   -1.3181   27.7400 O.3     1  UNL1       -0.3510
     40 C           4.4608   -0.9010   28.6044 C.3     1  UNL1        0.1741
@<TRIPOS>BOND
     1    24    25    1
     2    25    12    1
     3    12    13   ar
     4    13    14   ar
     5    14    15    1
     6    14    16   ar
     7    16    17   ar
     8    17    18    1
     9    17    19   ar
    10    19     1    1
    11     1     2   ar
    12     2     3   ar
    13     3     4   ar
    14     4     5   ar
    15     5     6   ar
    16     5     7    1
    17     7    36    1
    18    36    37    1
    19    37    38    1
    20    38    39    1
    21    39    40    1
    22     7     8   am
    23     8     9    2
    24     8    10    1
    25    10    34    1
    26    34    35    1
    27    10    26    1
    28    26    27   ar
    29    27    28   ar
    30    28    29    1
    31    28    30   ar
    32    30    31   ar
    33    31    32    1
    34    31    33   ar
    35    10    11    1
    36    19    12   ar
    37     6     1   ar
    38    33    26   ar
    39    11     4    1
    40    15    20    1
    41    15    21    1
    42    18    22    1
    43    18    23    1
@<TRIPOS>MOLECULE
*****
 40 43 0 0 0
SMALL
GASTEIGER

@<TRIPOS>ATOM
      1 C           1.3493    1.4121   26.5355 C.ar    1  UNL1        0.0053
      2 C           0.4515    2.1708   25.6036 C.ar    1  UNL1        0.0033
      3 C           0.5473    1.9486   24.1233 C.ar    1  UNL1        0.0382
      4 C           1.5409    0.9677   23.5748 C.ar    1  UNL1        0.1529
      5 C           2.4386    0.2091   24.5067 C.ar    1  UNL1        0.0881
      6 C           2.3428    0.4312   25.9870 C.ar    1  UNL1        0.0181
      7 N           3.4321   -0.7718   23.9582 N.am    1  UNL1       -0.2528
      8 C           3.5279   -0.9940   22.4779 C.2     1  UNL1        0.2697
      9 O           4.5215   -1.9748   21.9295 O.2     1  UNL1       -0.2704
     10 C           2.6302   -0.2353   21.5460 C.3     1  UNL1        0.2197
     11 O           1.6367    0.7456   22.0944 O.3     1  UNL1       -0.4686
     12 C           0.1920    0.9347   28.8121 C.ar    1  UNL1        0.0645
     13 N           0.0962    1.1568   30.2924 N.ar    1  UNL1       -0.2183
     14 C           1.0619    2.0785   30.9766 C.ar    1  UNL1        0.2145
     15 N           0.9661    2.3006   32.4570 N.pl3   1  UNL1       -0.3274
     16 N           2.1233    2.7780   30.1804 N.ar    1  UNL1       -0.1995
     17 C           2.2191    2.5559   28.7000 C.ar    1  UNL1        0.1293
     18 N           3.2806    3.2554   27.9038 N.pl3   1  UNL1       -0.3425
     19 C           1.2535    1.6342   28.0159 C.ar    1  UNL1        0.0449
     20 H           0.2694    1.8415   32.9796 H       1  UNL1        0.1452
     21 H           1.5999    2.9055   32.9060 H       1  UNL1        0.1452
     22 H           3.9144    3.8603   28.3528 H       1  UNL1        0.1437
     23 H           3.3435    3.1096   26.9322 H       1  UNL1        0.1437
     24 C          -1.7275   -0.8115   28.9406 C.3     1  UNL1        0.0067
     25 C          -0.7737    0.0130   28.1279 C.3     1  UNL1        0.0460
     26 C           3.4054   -1.0510   20.5543 C.ar    1  UNL1        0.0264
     27 C           4.6716   -0.5069   19.9621 C.ar    1  UNL1        0.0293
     28 C           5.4469   -1.3227   18.9703 C.ar    1  UNL1        0.1422
     29 F           6.7131   -0.7784   18.3782 F       1  UNL1       -0.2041
     30 C           4.9560   -2.6825   18.5708 C.ar    1  UNL1        0.0592
     31 C           3.6899   -3.2267   19.1630 C.ar    1  UNL1        0.1422
     32 F           3.1990   -4.5866   18.7635 F       1  UNL1       -0.2041
     33 C           2.9145   -2.4110   20.1548 C.ar    1  UNL1        0.0293
     34 C           2.0017    0.2401   20.2697 C.3     1  UNL1        0.0535
     35 C           0.5080    0.2681   20.1342 C.3     1  UNL1        0.0046
     36 C           4.3299   -1.5305   24.8901 C.3     1  UNL1        0.1010
     37 C           5.7037   -1.0119   25.1961 C.3     1  UNL1        0.0539
     38 C           5.9934   -0.3998   26.5346 C.3     1  UNL1        0.1440
     39 O           5.5373   -1.0864   27.7878 O.3     1  UNL1       -0.3510
     40 C           5.9560   -2.5001   28.0634 C.3     1  UNL1        0.1741
@<TRIPOS>BOND
     1    24    25    1
     2    25    12    1
     3    12    13   ar
     4    13    14   ar
     5    14    15    1
     6    14    16   ar
     7    16    17   ar
     8    17    18    1
     9    17    19   ar
    10    19     1    1
    11     1     2   ar
    12     2     3   ar
    13     3     4   ar
    14     4     5   ar
    15     5     6   ar
    16     5     7    1
    17     7    36    1
    18    36    37    1
    19    37    38    1
    20    38    39    1
    21    39    40    1
    22     7     8   am
    23     8     9    2
    24     8    10    1
    25    10    34    1
    26    34    35    1
    27    10    26    1
    28    26    27   ar
    29    27    28   ar
    30    28    29    1
    31    28    30   ar
    32    30    31   ar
    33    31    32    1
    34    31    33   ar
    35    10    11    1
    36    19    12   ar
    37     6     1   ar
    38    33    26   ar
    39    11     4    1
    40    15    20    1
    41    15    21    1
    42    18    22    1
    43    18    23    1
@<TRIPOS>MOLECULE
*****
 40 43 0 0 0
SMALL
GASTEIGER

@<TRIPOS>ATOM
      1 C           0.7138    1.6876   26.7917 C.ar    1  UNL1        0.0053
      2 C          -0.5412    2.0303   26.0450 C.ar    1  UNL1        0.0033
      3 C          -0.6167    1.8081   24.5636 C.ar    1  UNL1        0.0382
      4 C           0.5627    1.2431   23.8288 C.ar    1  UNL1        0.1529
      5 C           1.8176    0.9004   24.5755 C.ar    1  UNL1        0.0881
      6 C           1.8932    1.1227   26.0570 C.ar    1  UNL1        0.0181
      7 N           2.9970    0.3355   23.8407 N.am    1  UNL1       -0.2528
      8 C           2.9214    0.1132   22.3592 C.2     1  UNL1        0.2697
      9 O           4.1008   -0.4517   21.6245 O.2     1  UNL1       -0.2704
     10 C           1.6664    0.4559   21.6124 C.3     1  UNL1        0.2197
     11 O           0.4870    1.0209   22.3472 O.3     1  UNL1       -0.4686
     12 C           1.2010    3.2484   28.8109 C.ar    1  UNL1        0.0645
     13 N           1.2766    3.4707   30.2923 N.ar    1  UNL1       -0.2183
     14 C           0.9406    2.3544   31.2364 C.ar    1  UNL1        0.2145
     15 N           1.0163    2.5767   32.7178 N.pl3   1  UNL1       -0.3274
     16 N           0.5290    1.0159   30.6988 N.ar    1  UNL1       -0.1995
     17 C           0.4534    0.7936   29.2173 C.ar    1  UNL1        0.1293
     18 N           0.0418   -0.5449   28.6797 N.pl3   1  UNL1       -0.3425
     19 C           0.7894    1.9099   28.2733 C.ar    1  UNL1        0.0449
     20 H           1.2864    3.4552   33.0706 H       1  UNL1        0.1452
     21 H           0.7957    1.8440   33.3374 H       1  UNL1        0.1452
     22 H          -0.1787   -1.2775   29.2993 H       1  UNL1        0.1437
     23 H          -0.0078   -0.6908   27.7074 H       1  UNL1        0.1437
     24 C           2.8774    5.0336   27.9431 C.3     1  UNL1        0.0067
     25 C           1.5370    4.3647   27.8668 C.3     1  UNL1        0.0460
     26 C           2.5119   -0.0511   20.4820 C.ar    1  UNL1        0.0264
     27 C           2.5612   -1.5201   20.1826 C.ar    1  UNL1        0.0293
     28 C           3.4067   -2.0272   19.0521 C.ar    1  UNL1        0.1422
     29 F           3.4559   -3.4963   18.7527 F       1  UNL1       -0.2041
     30 C           4.2030   -1.0654   18.2211 C.ar    1  UNL1        0.0592
     31 C           4.1538    0.4036   18.5205 C.ar    1  UNL1        0.1422
     32 F           4.9501    1.3655   17.6894 F       1  UNL1       -0.2041
     33 C           3.3083    0.9108   19.6509 C.ar    1  UNL1        0.0293
     34 C           0.7051    0.6225   20.4731 C.3     1  UNL1        0.0535
     35 C          -0.1667    1.8410   20.3995 C.3     1  UNL1        0.0046
     36 C           4.2519   -0.0072   24.5874 C.3     1  UNL1        0.1010
     37 C           4.4656   -1.4026   25.0945 C.3     1  UNL1        0.0539
     38 C           5.1447   -2.4202   24.2265 C.3     1  UNL1        0.1440
     39 O           4.3399   -3.2405   23.2624 O.3     1  UNL1       -0.3510
     40 C           4.9855   -3.7920   22.0259 C.3     1  UNL1        0.1741
@<TRIPOS>BOND
     1    24    25    1
     2    25    12    1
     3    12    13   ar
     4    13    14   ar
     5    14    15    1
     6    14    16   ar
     7    16    17   ar
     8    17    18    1
     9    17    19   ar
    10    19     1    1
    11     1     2   ar
    12     2     3   ar
    13     3     4   ar
    14     4     5   ar
    15     5     6   ar
    16     5     7    1
    17     7    36    1
    18    36    37    1
    19    37    38    1
    20    38    39    1
    21    39    40    1
    22     7     8   am
    23     8     9    2
    24     8    10    1
    25    10    34    1
    26    34    35    1
    27    10    26    1
    28    26    27   ar
    29    27    28   ar
    30    28    29    1
    31    28    30   ar
    32    30    31   ar
    33    31    32    1
    34    31    33   ar
    35    10    11    1
    36    19    12   ar
    37     6     1   ar
    38    33    26   ar
    39    11     4    1
    40    15    20    1
    41    15    21    1
    42    18    22    1
    43    18    23    1
@<TRIPOS>MOLECULE
*****
 40 43 0 0 0
SMALL
GASTEIGER

@<TRIPOS>ATOM
      1 C           7.3954   -2.6418   31.8582 C.ar    1  UNL1        0.0053
      2 C           8.6780   -2.3117   32.5624 C.ar    1  UNL1        0.0033
      3 C           8.6966   -1.2623   33.6339 C.ar    1  UNL1        0.0382
      4 C           7.4327   -0.5429   34.0013 C.ar    1  UNL1        0.1529
      5 C           6.1501   -0.8730   33.2971 C.ar    1  UNL1        0.0881
      6 C           6.1314   -1.9225   32.2256 C.ar    1  UNL1        0.0181
      7 N           4.8861   -0.1537   33.6645 N.am    1  UNL1       -0.2528
      8 C           4.9048    0.8958   34.7360 C.2     1  UNL1        0.2697
      9 O           3.6408    1.6151   35.1033 O.2     1  UNL1       -0.2704
     10 C           6.1874    1.2259   35.4403 C.3     1  UNL1        0.2197
     11 O           7.4514    0.5066   35.0729 O.3     1  UNL1       -0.4686
     12 C           7.7426   -3.3308   29.3773 C.ar    1  UNL1        0.0645
     13 N           7.7240   -4.3802   28.3057 N.ar    1  UNL1       -0.2183
     14 C           7.3393   -5.7902   28.6434 C.ar    1  UNL1        0.2145
     15 N           7.3207   -6.8397   27.5718 N.pl3   1  UNL1       -0.3274
     16 N           6.9734   -6.1508   30.0527 N.ar    1  UNL1       -0.1995
     17 C           6.9921   -5.1013   31.1243 C.ar    1  UNL1        0.1293
     18 N           6.6262   -5.4618   32.5336 N.pl3   1  UNL1       -0.3425
     19 C           7.3767   -3.6913   30.7866 C.ar    1  UNL1        0.0449
     20 H           7.5609   -6.6030   26.6469 H       1  UNL1        0.1452
     21 H           7.0682   -7.7651   27.7934 H       1  UNL1        0.1452
     22 H           6.3737   -6.3872   32.7552 H       1  UNL1        0.1437
     23 H           6.6384   -4.7730   33.2369 H       1  UNL1        0.1437
     24 C           7.0925   -0.9634   28.5272 C.3     1  UNL1        0.0067
     25 C           8.1273   -1.9208   29.0396 C.3     1  UNL1        0.0460
     26 C           5.2566    2.1743   36.1361 C.ar    1  UNL1        0.0264
     27 C           4.4854    1.7204   37.3399 C.ar    1  UNL1        0.0293
     28 C           3.5546    2.6688   38.0358 C.ar    1  UNL1        0.1422
     29 F           2.7835    2.2148   39.2396 F       1  UNL1       -0.2041
     30 C           3.3950    4.0710   37.5278 C.ar    1  UNL1        0.0592
     31 C           4.1662    4.5250   36.3240 C.ar    1  UNL1        0.1422
     32 F           4.0066    5.9273   35.8160 F       1  UNL1       -0.2041
     33 C           5.0970    3.5766   35.6281 C.ar    1  UNL1        0.0293
     34 C           7.1468    1.8854   36.3861 C.3     1  UNL1        0.0535
     35 C           8.0855    1.0503   37.2056 C.3     1  UNL1        0.0046
     36 C           3.6035   -0.4838   32.9603 C.3     1  UNL1        0.1010
     37 C           3.2157    0.2635   31.7188 C.3     1  UNL1        0.0539
     38 C           2.6055   -0.4704   30.5615 C.3     1  UNL1        0.1440
     39 O           1.2005   -0.1632   30.1354 O.3     1  UNL1       -0.3510
     40 C           0.8787    0.0087   28.6805 C.3     1  UNL1        0.1741
@<TRIPOS>BOND
     1    24    25    1
     2    25    12    1
     3    12    13   ar
     4    13    14   ar
     5    14    15    1
     6    14    16   ar
     7    16    17   ar
     8    17    18    1
     9    17    19   ar
    10    19     1    1
    11     1     2   ar
    12     2     3   ar
    13     3     4   ar
    14     4     5   ar
    15     5     6   ar
    16     5     7    1
    17     7    36    1
    18    36    37    1
    19    37    38    1
    20    38    39    1
    21    39    40    1
    22     7     8   am
    23     8     9    2
    24     8    10    1
    25    10    34    1
    26    34    35    1
    27    10    26    1
    28    26    27   ar
    29    27    28   ar
    30    28    29    1
    31    28    30   ar
    32    30    31   ar
    33    31    32    1
    34    31    33   ar
    35    10    11    1
    36    19    12   ar
    37     6     1   ar
    38    33    26   ar
    39    11     4    1
    40    15    20    1
    41    15    21    1
    42    18    22    1
    43    18    23    1
@<TRIPOS>MOLECULE
*****
 40 43 0 0 0
SMALL
GASTEIGER

@<TRIPOS>ATOM
      1 C           2.7467    0.3117   28.1056 C.ar    1  UNL1        0.0053
      2 C           3.5743   -0.8805   28.4844 C.ar    1  UNL1        0.0033
      3 C           4.2447   -1.6970   27.4195 C.ar    1  UNL1        0.0382
      4 C           4.0874   -1.3211   25.9759 C.ar    1  UNL1        0.1529
      5 C           3.2597   -0.1289   25.5972 C.ar    1  UNL1        0.0881
      6 C           2.5894    0.6875   26.6620 C.ar    1  UNL1        0.0181
      7 N           3.1025    0.2469   24.1535 N.am    1  UNL1       -0.2528
      8 C           3.7728   -0.5695   23.0887 C.2     1  UNL1        0.2697
      9 O           3.6155   -0.1937   21.6450 O.2     1  UNL1       -0.2704
     10 C           4.6006   -1.7618   23.4674 C.3     1  UNL1        0.2197
     11 O           4.7579   -2.1376   24.9110 O.3     1  UNL1       -0.4686
     12 C           0.6660    0.8180   29.5770 C.ar    1  UNL1        0.0645
     13 N          -0.0044    1.6345   30.6418 N.ar    1  UNL1       -0.2183
     14 C           0.7354    2.7611   31.3003 C.ar    1  UNL1        0.2145
     15 N           0.0649    3.5775   32.3651 N.pl3   1  UNL1       -0.3274
     16 N           2.1456    3.0712   30.8939 N.ar    1  UNL1       -0.1995
     17 C           2.8160    2.2547   29.8290 C.ar    1  UNL1        0.1293
     18 N           4.2262    2.5649   29.4226 N.pl3   1  UNL1       -0.3425
     19 C           2.0762    1.1282   29.1706 C.ar    1  UNL1        0.0449
     20 H          -0.8606    3.3739   32.6319 H       1  UNL1        0.1452
     21 H           0.5505    4.3169   32.7973 H       1  UNL1        0.1452
     22 H           4.7117    3.3043   29.8548 H       1  UNL1        0.1437
     23 H           4.6662    2.0290   28.7237 H       1  UNL1        0.1437
     24 C          -1.5727   -0.3465   28.9589 C.3     1  UNL1        0.0067
     25 C          -0.0737   -0.3086   28.9184 C.3     1  UNL1        0.0460
     26 C           4.7486   -1.8053   21.9754 C.ar    1  UNL1        0.0264
     27 C           5.7887   -0.9615   21.2999 C.ar    1  UNL1        0.0293
     28 C           5.9366   -1.0050   19.8078 C.ar    1  UNL1        0.1422
     29 F           6.9769   -0.1611   19.1325 F       1  UNL1       -0.2041
     30 C           5.0446   -1.8922   18.9912 C.ar    1  UNL1        0.0592
     31 C           4.0045   -2.7360   19.6667 C.ar    1  UNL1        0.1422
     32 F           3.1124   -3.6232   18.8500 F       1  UNL1       -0.2041
     33 C           3.8564   -2.6925   21.1587 C.ar    1  UNL1        0.0293
     34 C           5.4796   -2.9692   23.3279 C.3     1  UNL1        0.0535
     35 C           6.3482   -3.4007   24.4723 C.3     1  UNL1        0.0046
     36 C           2.2748    1.4392   23.7748 C.3     1  UNL1        0.1010
     37 C           0.8027    1.2838   23.5325 C.3     1  UNL1        0.0539
     38 C          -0.1584    2.2979   24.0786 C.3     1  UNL1        0.1440
     39 O           0.0380    2.8499   25.4594 O.3     1  UNL1       -0.3510
     40 C          -0.9277    2.4983   26.5520 C.3     1  UNL1        0.1741
@<TRIPOS>BOND
     1    24    25    1
     2    25    12    1
     3    12    13   ar
     4    13    14   ar
     5    14    15    1
     6    14    16   ar
     7    16    17   ar
     8    17    18    1
     9    17    19   ar
    10    19     1    1
    11     1     2   ar
    12     2     3   ar
    13     3     4   ar
    14     4     5   ar
    15     5     6   ar
    16     5     7    1
    17     7    36    1
    18    36    37    1
    19    37    38    1
    20    38    39    1
    21    39    40    1
    22     7     8   am
    23     8     9    2
    24     8    10    1
    25    10    34    1
    26    34    35    1
    27    10    26    1
    28    26    27   ar
    29    27    28   ar
    30    28    29    1
    31    28    30   ar
    32    30    31   ar
    33    31    32    1
    34    31    33   ar
    35    10    11    1
    36    19    12   ar
    37     6     1   ar
    38    33    26   ar
    39    11     4    1
    40    15    20    1
    41    15    21    1
    42    18    22    1
    43    18    23    1
