@<TRIPOS>MOLECULE
*****
 52 55 0 0 0
SMALL
GASTEIGER

@<TRIPOS>ATOM
      1 C           2.1895    0.5269   24.1165 C.3     1  UNL1        0.0760
      2 C           0.9884    1.3405   26.2719 C.2     1  UNL1        0.2403
      3 O           2.2446    2.0330   26.7105 O.2     1  UNL1       -0.2733
      4 N           0.9608    0.5874   24.9748 N.am    1  UNL1       -0.3043
      5 H           0.1364    0.1329   24.6870 H       1  UNL1        0.1494
      6 C          -0.2402    1.4010   27.1302 C.3     1  UNL1        0.1496
      7 N          -2.6051    4.5091   26.4250 N.am    1  UNL1       -0.2567
      8 C          -2.6027    5.9987   26.6011 C.3     1  UNL1        0.1168
      9 C          -1.4215    3.6998   26.8656 C.2     1  UNL1        0.3046
     10 O          -0.2354    4.3802   27.4825 O.2     1  UNL1       -0.2526
     11 N          -1.4239    2.2102   26.6895 N.am    1  UNL1       -0.2824
     12 H          -2.2023    1.7637   26.2847 H       1  UNL1        0.1514
     13 C          -3.7910    3.8287   25.8081 C.3     1  UNL1        0.1413
     14 C          -3.2743    3.6133   21.9673 C.ar    1  UNL1        0.0875
     15 N          -2.7535    3.8946   23.3455 N.ar    1  UNL1       -0.2453
     16 C          -3.8710    3.6643   24.3193 C.ar    1  UNL1        0.0858
     17 C          -5.0824    3.2406   23.5428 C.ar    1  UNL1        0.0530
     18 S          -4.7137    3.2091   22.0892 S.2     1  UNL1       -0.0705
     19 C          -2.9090    4.6987   19.6352 C.3     1  UNL1        0.0069
     20 C          -2.4930    3.7179   20.6911 C.3     1  UNL1        0.0465
     21 C          -1.2956    2.8417   20.4708 C.3     1  UNL1        0.0069
     22 C          -0.2852    0.6524   28.4292 C.3     1  UNL1        0.0270
     23 C           0.6365    1.0364   29.5486 C.3     1  UNL1        0.0022
     24 C          -1.2520   -0.4803   28.6089 C.3     1  UNL1        0.0022
     25 C           3.1847   -0.5788   24.3084 C.3     1  UNL1        0.0216
     26 C           3.5669   -1.4531   23.1511 C.3     1  UNL1        0.0217
     27 C           4.9806   -1.4580   22.6495 C.3     1  UNL1        0.0792
     28 N           5.9532   -2.4805   23.1580 N.am    1  UNL1       -0.2720
     29 C           5.8808   -3.8952   22.6643 C.2     1  UNL1        0.4019
     30 O           4.8358   -4.2872   21.6622 O.2     1  UNL1       -0.2264
     31 H           6.6391   -2.2232   23.8157 H       1  UNL1        0.1527
     32 O           6.8534   -4.9177   23.1727 O.3     1  UNL1       -0.4291
     33 C           7.7544   -4.5876   24.3257 C.3     1  UNL1        0.2447
     34 C           7.2483   -4.7114   25.7323 C.ar    1  UNL1        0.0714
     35 C           6.9103   -5.9909   26.4384 C.ar    1  UNL1        0.1053
     36 N           6.4446   -5.6476   27.8223 N.ar    1  UNL1       -0.2350
     37 C           6.4947   -4.1559   27.9716 C.ar    1  UNL1        0.1343
     38 S           6.9914   -3.5773   26.6799 S.2     1  UNL1       -0.0652
     39 C           5.4217   -0.4405   21.6396 C.3     1  UNL1        0.0460
     40 C           5.0442   -0.6032   20.1969 C.ar    1  UNL1       -0.0205
     41 C           5.5284    0.3863   19.1788 C.ar    1  UNL1       -0.0042
     42 C           5.1510    0.2236   17.7363 C.ar    1  UNL1       -0.0003
     43 C           4.2893   -0.9285   17.3118 C.ar    1  UNL1       -0.0000
     44 C           3.8051   -1.9180   18.3299 C.ar    1  UNL1       -0.0003
     45 C           4.1825   -1.7553   19.7724 C.ar    1  UNL1       -0.0042
     46 C           2.4228    1.5721   23.0661 C.3     1  UNL1        0.0459
     47 C           2.0505    1.2976   21.6392 C.ar    1  UNL1       -0.0205
     48 C           1.1994    0.1097   21.3014 C.ar    1  UNL1       -0.0042
     49 C           0.8270   -0.1648   19.8745 C.ar    1  UNL1       -0.0003
     50 C           1.3059    0.7488   18.7854 C.ar    1  UNL1       -0.0000
     51 C           2.1571    1.9368   19.1232 C.ar    1  UNL1       -0.0003
     52 C           2.5294    2.2113   20.5501 C.ar    1  UNL1       -0.0042
@<TRIPOS>BOND
     1    19    20    1
     2    20    21    1
     3    20    14    1
     4    14    15   ar
     5    15    16   ar
     6    16    13    1
     7    13     7    1
     8     7     8    1
     9     7     9   am
    10     9    10    2
    11     9    11   am
    12     6    11    1
    13     6     2    1
    14     2     3    2
    15     2     4   am
    16     4     1    1
    17     1    25    1
    18    25    26    1
    19    27    26    1
    20    27    39    1
    21    39    40    1
    22    40    41   ar
    23    41    42   ar
    24    42    43   ar
    25    43    44   ar
    26    44    45   ar
    27    27    28    1
    28    28    29   am
    29    29    30    2
    30    29    32    1
    31    32    33    1
    32    33    34    1
    33    34    35   ar
    34    35    36   ar
    35    36    37   ar
    36    37    38   ar
    37     1    46    1
    38    46    47    1
    39    47    48   ar
    40    48    49   ar
    41    49    50   ar
    42    50    51   ar
    43    51    52   ar
    44     6    22    1
    45    22    23    1
    46    22    24    1
    47    16    17   ar
    48    17    18   ar
    49    18    14   ar
    50    45    40   ar
    51    38    34   ar
    52    52    47   ar
    53    11    12    1
    54     4     5    1
    55    28    31    1
@<TRIPOS>MOLECULE
*****
 52 55 0 0 0
SMALL
GASTEIGER

@<TRIPOS>ATOM
      1 C           0.7418    0.7208   19.7844 C.3     1  UNL1        0.0760
      2 C           0.1942    3.1705   20.4546 C.2     1  UNL1        0.2403
      3 O           1.6428    3.5331   20.3131 O.2     1  UNL1       -0.2733
      4 N          -0.2563    1.7643   20.1902 N.am    1  UNL1       -0.3043
      5 H          -1.2071    1.5263   20.2831 H       1  UNL1        0.1494
      6 C          -0.8040    4.2140   20.8605 C.3     1  UNL1        0.1496
      7 N          -3.4476    3.6086   23.7579 N.am    1  UNL1       -0.2567
      8 C          -4.8478    3.0978   23.9267 C.3     1  UNL1        0.1168
      9 C          -2.8259    3.6559   22.3936 C.2     1  UNL1        0.3046
     10 O          -3.6044    3.1924   21.1981 O.2     1  UNL1       -0.2526
     11 N          -1.4257    4.1667   22.2248 N.am    1  UNL1       -0.2824
     12 H          -0.9148    4.4710   23.0094 H       1  UNL1        0.1514
     13 C          -2.6692    4.0722   24.9533 C.3     1  UNL1        0.1413
     14 C          -0.8939    1.6579   27.4201 C.ar    1  UNL1        0.0875
     15 N          -2.0192    2.5897   27.0805 N.ar    1  UNL1       -0.2453
     16 C          -1.7872    3.1103   25.6930 C.ar    1  UNL1        0.0858
     17 C          -0.5185    2.5003   25.1751 C.ar    1  UNL1        0.0530
     18 S           0.0337    1.6027   26.2425 S.2     1  UNL1       -0.0705
     19 C           0.0094    1.5476   29.8537 C.3     1  UNL1        0.0069
     20 C          -0.7256    0.9122   28.7108 C.3     1  UNL1        0.0465
     21 C          -1.2921   -0.4687   28.8585 C.3     1  UNL1        0.0069
     22 C          -1.1804    5.3048   19.9021 C.3     1  UNL1        0.0270
     23 C          -1.7896    4.9602   18.5754 C.3     1  UNL1        0.0022
     24 C          -0.9476    6.7400   20.2705 C.3     1  UNL1        0.0022
     25 C           1.2437   -0.2695   20.7930 C.3     1  UNL1        0.0216
     26 C           2.0704    0.1966   21.9545 C.3     1  UNL1        0.0217
     27 C           3.2870   -0.5775   22.3678 C.3     1  UNL1        0.0792
     28 N           3.3082   -1.2942   23.6853 N.am    1  UNL1       -0.2720
     29 C           3.7469   -0.5723   24.9249 C.2     1  UNL1        0.4019
     30 O           4.1644    0.8663   24.8469 O.2     1  UNL1       -0.2264
     31 H           3.0341   -2.2384   23.7365 H       1  UNL1        0.1527
     32 O           3.7680   -1.2890   26.2424 O.3     1  UNL1       -0.4291
     33 C           4.7005   -0.8374   27.3270 C.3     1  UNL1        0.2447
     34 C           4.2488   -0.8486   28.7573 C.ar    1  UNL1        0.0714
     35 C           5.0980   -1.1838   29.9475 C.ar    1  UNL1        0.1053
     36 N           4.2426   -1.0689   31.1744 N.ar    1  UNL1       -0.2350
     37 C           2.8648   -0.6628   30.7424 C.ar    1  UNL1        0.1343
     38 S           2.8686   -0.5266   29.2486 S.2     1  UNL1       -0.0652
     39 C           4.4824   -0.6349   21.4636 C.3     1  UNL1        0.0460
     40 C           4.6612   -1.7948   20.5293 C.ar    1  UNL1       -0.0205
     41 C           3.4711   -2.5967   20.0929 C.ar    1  UNL1       -0.0042
     42 C           3.6499   -3.7565   19.1587 C.ar    1  UNL1       -0.0003
     43 C           5.0188   -4.1145   18.6609 C.ar    1  UNL1       -0.0000
     44 C           6.2090   -3.3126   19.0973 C.ar    1  UNL1       -0.0003
     45 C           6.0302   -2.1527   20.0315 C.ar    1  UNL1       -0.0042
     46 C           1.2381    0.6676   18.3698 C.3     1  UNL1        0.0459
     47 C           2.7109    0.6004   18.0937 C.ar    1  UNL1       -0.0205
     48 C           3.2631   -0.4956   17.2312 C.ar    1  UNL1       -0.0042
     49 C           4.7359   -0.5628   16.9551 C.ar    1  UNL1       -0.0003
     50 C           5.6566    0.4659   17.5416 C.ar    1  UNL1       -0.0000
     51 C           5.1045    1.5619   18.4042 C.ar    1  UNL1       -0.0003
     52 C           3.6317    1.6292   18.6803 C.ar    1  UNL1       -0.0042
@<TRIPOS>BOND
     1    19    20    1
     2    20    21    1
     3    20    14    1
     4    14    15   ar
     5    15    16   ar
     6    16    13    1
     7    13     7    1
     8     7     8    1
     9     7     9   am
    10     9    10    2
    11     9    11   am
    12     6    11    1
    13     6     2    1
    14     2     3    2
    15     2     4   am
    16     4     1    1
    17     1    25    1
    18    25    26    1
    19    27    26    1
    20    27    39    1
    21    39    40    1
    22    40    41   ar
    23    41    42   ar
    24    42    43   ar
    25    43    44   ar
    26    44    45   ar
    27    27    28    1
    28    28    29   am
    29    29    30    2
    30    29    32    1
    31    32    33    1
    32    33    34    1
    33    34    35   ar
    34    35    36   ar
    35    36    37   ar
    36    37    38   ar
    37     1    46    1
    38    46    47    1
    39    47    48   ar
    40    48    49   ar
    41    49    50   ar
    42    50    51   ar
    43    51    52   ar
    44     6    22    1
    45    22    23    1
    46    22    24    1
    47    16    17   ar
    48    17    18   ar
    49    18    14   ar
    50    45    40   ar
    51    38    34   ar
    52    52    47   ar
    53    11    12    1
    54     4     5    1
    55    28    31    1
@<TRIPOS>MOLECULE
*****
 52 55 0 0 0
SMALL
GASTEIGER

@<TRIPOS>ATOM
      1 C           5.9141   -2.6834   23.5129 C.3     1  UNL1        0.0760
      2 C           6.8242   -3.1374   25.9037 C.2     1  UNL1        0.2403
      3 O           8.2001   -2.7435   25.4547 O.2     1  UNL1       -0.2733
      4 N           5.6812   -3.1074   24.9327 N.am    1  UNL1       -0.3043
      5 H           4.7781   -3.3660   25.2274 H       1  UNL1        0.1494
      6 C           6.5912   -3.5614   27.3235 C.3     1  UNL1        0.1496
      7 N           4.7122   -0.7424   29.3906 N.am    1  UNL1       -0.2567
      8 C           3.4203    0.0189   29.3550 C.3     1  UNL1        0.1168
      9 C           5.0058   -1.7712   28.3393 C.2     1  UNL1        0.3046
     10 O           4.0073   -2.0388   27.2522 O.2     1  UNL1       -0.2526
     11 N           6.2977   -2.5325   28.3749 N.am    1  UNL1       -0.2824
     12 H           6.9530   -2.3570   29.0884 H       1  UNL1        0.1514
     13 C           5.7106   -0.4749   30.4776 C.3     1  UNL1        0.1413
     14 C           5.0707   -0.4337   34.3057 C.ar    1  UNL1        0.0875
     15 N           5.6027    0.2093   33.0593 N.ar    1  UNL1       -0.2453
     16 C           5.3426   -0.7200   31.9110 C.ar    1  UNL1        0.0858
     17 C           4.6498   -1.9374   32.4476 C.ar    1  UNL1        0.0530
     18 S           4.4817   -1.7605   33.9276 S.2     1  UNL1       -0.0705
     19 C           6.2081   -0.2597   36.6351 C.3     1  UNL1        0.0069
     20 C           5.1191    0.1478   35.6875 C.3     1  UNL1        0.0465
     21 C           4.0784    1.1370   36.1218 C.3     1  UNL1        0.0069
     22 C           6.6518   -5.0141   27.6920 C.3     1  UNL1        0.0270
     23 C           6.5565   -5.4276   29.1307 C.3     1  UNL1        0.0022
     24 C           6.8075   -6.0534   26.6217 C.3     1  UNL1        0.0022
     25 C           5.8540   -1.2306   23.1445 C.3     1  UNL1        0.0216
     26 C           4.8519   -0.3305   23.8044 C.3     1  UNL1        0.0217
     27 C           3.3875   -0.5144   23.5364 C.3     1  UNL1        0.0792
     28 N           2.3740    0.0805   24.4685 N.am    1  UNL1       -0.2720
     29 C           1.8129    1.4445   24.1948 C.2     1  UNL1        0.4019
     30 O           2.2653    2.2134   22.9891 O.2     1  UNL1       -0.2264
     31 H           2.0770   -0.4242   25.2599 H       1  UNL1        0.1527
     32 O           0.7994    2.0394   25.1270 O.3     1  UNL1       -0.4291
     33 C          -0.1318    1.1460   25.8916 C.3     1  UNL1        0.2447
     34 C          -0.1453    1.1842   27.3911 C.ar    1  UNL1        0.0714
     35 C          -0.8721    0.2292   28.2909 C.ar    1  UNL1        0.1053
     36 N          -0.6104    0.6390   29.7100 N.ar    1  UNL1       -0.2350
     37 C           0.2783    1.8472   29.6871 C.ar    1  UNL1        0.1343
     38 S           0.5657    2.1842   28.2540 S.2     1  UNL1       -0.0652
     39 C           2.9367   -1.2932   22.3364 C.3     1  UNL1        0.0460
     40 C           2.7630   -0.6028   21.0160 C.ar    1  UNL1       -0.0205
     41 C           3.9556   -0.0395   20.3017 C.ar    1  UNL1       -0.0042
     42 C           3.7819    0.6509   18.9814 C.ar    1  UNL1       -0.0003
     43 C           2.4156    0.7780   18.3755 C.ar    1  UNL1       -0.0000
     44 C           1.2230    0.2147   19.0899 C.ar    1  UNL1       -0.0003
     45 C           1.3967   -0.4757   20.4102 C.ar    1  UNL1       -0.0042
     46 C           6.2073   -3.7123   22.4614 C.3     1  UNL1        0.0459
     47 C           5.7442   -3.4964   21.0511 C.ar    1  UNL1       -0.0205
     48 C           6.6406   -2.8089   20.0644 C.ar    1  UNL1       -0.0042
     49 C           6.1776   -2.5929   18.6540 C.ar    1  UNL1       -0.0003
     50 C           4.8181   -3.0645   18.2305 C.ar    1  UNL1       -0.0000
     51 C           3.9216   -3.7521   19.2173 C.ar    1  UNL1       -0.0003
     52 C           4.3847   -3.9680   20.6276 C.ar    1  UNL1       -0.0042
@<TRIPOS>BOND
     1    19    20    1
     2    20    21    1
     3    20    14    1
     4    14    15   ar
     5    15    16   ar
     6    16    13    1
     7    13     7    1
     8     7     8    1
     9     7     9   am
    10     9    10    2
    11     9    11   am
    12     6    11    1
    13     6     2    1
    14     2     3    2
    15     2     4   am
    16     4     1    1
    17     1    25    1
    18    25    26    1
    19    27    26    1
    20    27    39    1
    21    39    40    1
    22    40    41   ar
    23    41    42   ar
    24    42    43   ar
    25    43    44   ar
    26    44    45   ar
    27    27    28    1
    28    28    29   am
    29    29    30    2
    30    29    32    1
    31    32    33    1
    32    33    34    1
    33    34    35   ar
    34    35    36   ar
    35    36    37   ar
    36    37    38   ar
    37     1    46    1
    38    46    47    1
    39    47    48   ar
    40    48    49   ar
    41    49    50   ar
    42    50    51   ar
    43    51    52   ar
    44     6    22    1
    45    22    23    1
    46    22    24    1
    47    16    17   ar
    48    17    18   ar
    49    18    14   ar
    50    45    40   ar
    51    38    34   ar
    52    52    47   ar
    53    11    12    1
    54     4     5    1
    55    28    31    1
@<TRIPOS>MOLECULE
*****
 52 55 0 0 0
SMALL
GASTEIGER

@<TRIPOS>ATOM
      1 C           0.5189    1.6496   20.2701 C.3     1  UNL1        0.0760
      2 C          -1.2818    3.3286   21.0999 C.2     1  UNL1        0.2403
      3 O          -2.3625    2.4180   20.5973 O.2     1  UNL1       -0.2733
      4 N           0.1590    2.9444   20.9363 N.am    1  UNL1       -0.3043
      5 H           0.8684    3.5421   21.2662 H       1  UNL1        0.1494
      6 C          -1.6416    4.6235   21.7661 C.3     1  UNL1        0.1496
      7 N          -3.0513    4.3676   25.4672 N.am    1  UNL1       -0.2567
      8 C          -4.3075    3.9562   26.1761 C.3     1  UNL1        0.1168
      9 C          -2.9746    4.2898   23.9712 C.2     1  UNL1        0.3046
     10 O          -4.1541    3.8007   23.1841 O.2     1  UNL1       -0.2526
     11 N          -1.7183    4.7012   23.2622 N.am    1  UNL1       -0.2824
     12 H          -0.9442    5.0223   23.7788 H       1  UNL1        0.1514
     13 C          -1.8718    4.8567   26.2542 C.3     1  UNL1        0.1413
     14 C          -0.2448    1.8431   28.0809 C.ar    1  UNL1        0.0875
     15 N          -1.2812    2.4111   27.1571 N.ar    1  UNL1       -0.2453
     16 C          -1.0616    3.8922   27.0687 C.ar    1  UNL1        0.0858
     17 C           0.1106    4.2397   27.9379 C.ar    1  UNL1        0.0530
     18 S           0.6154    2.9733   28.5635 S.2     1  UNL1       -0.0705
     19 C          -1.3122   -0.4421   28.7043 C.3     1  UNL1        0.0069
     20 C          -0.0949    0.3986   28.4563 C.3     1  UNL1        0.0465
     21 C           1.2722   -0.2053   28.5836 C.3     1  UNL1        0.0069
     22 C          -1.9248    5.8405   20.9364 C.3     1  UNL1        0.0270
     23 C          -0.7936    6.6996   20.4546 C.3     1  UNL1        0.0022
     24 C          -3.3393    6.1985   20.5884 C.3     1  UNL1        0.0022
     25 C           0.8597    1.6270   18.8095 C.3     1  UNL1        0.0216
     26 C           1.8310    0.6132   18.2817 C.3     1  UNL1        0.0217
     27 C           3.2598    0.6348   18.7380 C.3     1  UNL1        0.0792
     28 N           4.0294   -0.6474   18.8545 N.am    1  UNL1       -0.2720
     29 C           4.4546   -1.3820   17.6176 C.2     1  UNL1        0.4019
     30 O           4.1101   -0.8343   16.2643 O.2     1  UNL1       -0.2264
     31 H           4.2556   -1.0069   19.7427 H       1  UNL1        0.1527
     32 O           5.2242   -2.6642   17.7340 O.3     1  UNL1       -0.4291
     33 C           4.7538   -3.7390   18.6686 C.3     1  UNL1        0.2447
     34 C           5.2915   -3.8047   20.0674 C.ar    1  UNL1        0.0714
     35 C           4.4785   -3.9641   21.3179 C.ar    1  UNL1        0.1053
     36 N           5.4211   -3.9804   22.4846 N.ar    1  UNL1       -0.2350
     37 C           6.8166   -3.8312   21.9552 C.ar    1  UNL1        0.1343
     38 S           6.7365   -3.7227   20.4613 S.2     1  UNL1       -0.0652
     39 C           3.9189    1.9386   19.0779 C.3     1  UNL1        0.0460
     40 C           4.3840    2.2010   20.4797 C.ar    1  UNL1       -0.0205
     41 C           3.6067    3.1278   21.3667 C.ar    1  UNL1       -0.0042
     42 C           4.0718    3.3901   22.7684 C.ar    1  UNL1       -0.0003
     43 C           5.3142    2.7256   23.2831 C.ar    1  UNL1       -0.0000
     44 C           6.0915    1.7988   22.3961 C.ar    1  UNL1       -0.0003
     45 C           5.6264    1.5365   20.9944 C.ar    1  UNL1       -0.0042
     46 C           0.5379    0.3773   21.0645 C.3     1  UNL1        0.0459
     47 C           1.4506    0.2454   22.2476 C.ar    1  UNL1       -0.0205
     48 C           2.6614   -0.6361   22.1661 C.ar    1  UNL1       -0.0042
     49 C           3.5741   -0.7680   23.3492 C.ar    1  UNL1       -0.0003
     50 C           3.2759   -0.0183   24.6137 C.ar    1  UNL1       -0.0000
     51 C           2.0650    0.8633   24.6952 C.ar    1  UNL1       -0.0003
     52 C           1.1523    0.9952   23.5121 C.ar    1  UNL1       -0.0042
@<TRIPOS>BOND
     1    19    20    1
     2    20    21    1
     3    20    14    1
     4    14    15   ar
     5    15    16   ar
     6    16    13    1
     7    13     7    1
     8     7     8    1
     9     7     9   am
    10     9    10    2
    11     9    11   am
    12     6    11    1
    13     6     2    1
    14     2     3    2
    15     2     4   am
    16     4     1    1
    17     1    25    1
    18    25    26    1
    19    27    26    1
    20    27    39    1
    21    39    40    1
    22    40    41   ar
    23    41    42   ar
    24    42    43   ar
    25    43    44   ar
    26    44    45   ar
    27    27    28    1
    28    28    29   am
    29    29    30    2
    30    29    32    1
    31    32    33    1
    32    33    34    1
    33    34    35   ar
    34    35    36   ar
    35    36    37   ar
    36    37    38   ar
    37     1    46    1
    38    46    47    1
    39    47    48   ar
    40    48    49   ar
    41    49    50   ar
    42    50    51   ar
    43    51    52   ar
    44     6    22    1
    45    22    23    1
    46    22    24    1
    47    16    17   ar
    48    17    18   ar
    49    18    14   ar
    50    45    40   ar
    51    38    34   ar
    52    52    47   ar
    53    11    12    1
    54     4     5    1
    55    28    31    1
@<TRIPOS>MOLECULE
*****
 52 55 0 0 0
SMALL
GASTEIGER

@<TRIPOS>ATOM
      1 C           2.3762    0.0546   21.2641 C.3     1  UNL1        0.0760
      2 C           0.3922    1.6774   20.8396 C.2     1  UNL1        0.2403
      3 O          -0.4920    0.5108   20.5121 O.2     1  UNL1       -0.2733
      4 N           1.8263    1.4493   21.2156 N.am    1  UNL1       -0.3043
      5 H           2.4067    2.2150   21.4305 H       1  UNL1        0.1494
      6 C          -0.1577    3.0721   20.7911 C.3     1  UNL1        0.1496
      7 N          -3.1398    4.0448   23.2223 N.am    1  UNL1       -0.2567
      8 C          -4.6318    3.9098   23.2971 C.3     1  UNL1        0.1168
      9 C          -2.3948    3.4910   22.0441 C.2     1  UNL1        0.3046
     10 O          -3.1418    2.8021   20.9407 O.2     1  UNL1       -0.2526
     11 N          -0.9027    3.6260   21.9693 N.am    1  UNL1       -0.2824
     12 H          -0.4124    4.0781   22.6935 H       1  UNL1        0.1514
     13 C          -2.3928    4.7336   24.3257 C.3     1  UNL1        0.1413
     14 C           0.3497    2.8250   26.3010 C.ar    1  UNL1        0.0875
     15 N          -0.0810    3.6615   25.1327 N.ar    1  UNL1       -0.2453
     16 C          -1.5493    3.9336   25.2737 C.ar    1  UNL1        0.0858
     17 C          -2.0261    3.2652   26.5291 C.ar    1  UNL1        0.0530
     18 S          -0.8525    2.5800   27.1640 S.2     1  UNL1       -0.0705
     19 C           2.2872    1.1831   25.7528 C.3     1  UNL1        0.0069
     20 C           1.7387    2.3217   26.5606 C.3     1  UNL1        0.0465
     21 C           2.5793    2.9571   27.6282 C.3     1  UNL1        0.0069
     22 C           0.0375    3.9130   19.5644 C.3     1  UNL1        0.0270
     23 C          -0.2820    5.3782   19.6008 C.3     1  UNL1        0.0022
     24 C           0.5520    3.2888   18.3013 C.3     1  UNL1        0.0022
     25 C           2.7438   -0.5613   22.5814 C.3     1  UNL1        0.0216
     26 C           4.1683   -0.9387   22.8614 C.3     1  UNL1        0.0217
     27 C           4.4744   -2.1638   23.6710 C.3     1  UNL1        0.0792
     28 N           4.3481   -2.1262   25.1652 N.am    1  UNL1       -0.2720
     29 C           5.4613   -1.5627   25.9980 C.2     1  UNL1        0.4019
     30 O           6.7006   -1.0368   25.3366 O.2     1  UNL1       -0.2264
     31 H           3.5347   -2.4714   25.5994 H       1  UNL1        0.1527
     32 O           5.3351   -1.5251   27.4922 O.3     1  UNL1       -0.4291
     33 C           5.0459   -0.2282   28.1881 C.3     1  UNL1        0.2447
     34 C           3.8941   -0.1304   29.1440 C.ar    1  UNL1        0.0714
     35 C           2.5096   -0.6597   28.9135 C.ar    1  UNL1        0.1053
     36 N           1.6844   -0.3427   30.1254 N.ar    1  UNL1       -0.2350
     37 C           2.5589    0.3825   31.1049 C.ar    1  UNL1        0.1343
     38 S           3.9246    0.5137   30.4983 S.2     1  UNL1       -0.0652
     39 C           4.9067   -3.4265   22.9864 C.3     1  UNL1        0.0460
     40 C           5.0600   -3.4561   21.4945 C.ar    1  UNL1       -0.0205
     41 C           6.2808   -2.8648   20.8542 C.ar    1  UNL1       -0.0042
     42 C           6.4341   -2.8945   19.3624 C.ar    1  UNL1       -0.0003
     43 C           5.3666   -3.5153   18.5109 C.ar    1  UNL1       -0.0000
     44 C           4.1458   -4.1065   19.1512 C.ar    1  UNL1       -0.0003
     45 C           3.9925   -4.0769   20.6430 C.ar    1  UNL1       -0.0042
     46 C           2.5585   -0.7243   19.9951 C.3     1  UNL1        0.0459
     47 C           3.6487   -0.3498   19.0353 C.ar    1  UNL1       -0.0205
     48 C           4.8709    0.3650   19.5304 C.ar    1  UNL1       -0.0042
     49 C           5.9611    0.7395   18.5705 C.ar    1  UNL1       -0.0003
     50 C           5.8291    0.3992   17.1157 C.ar    1  UNL1       -0.0000
     51 C           4.6068   -0.3156   16.6205 C.ar    1  UNL1       -0.0003
     52 C           3.5166   -0.6901   17.5803 C.ar    1  UNL1       -0.0042
@<TRIPOS>BOND
     1    19    20    1
     2    20    21    1
     3    20    14    1
     4    14    15   ar
     5    15    16   ar
     6    16    13    1
     7    13     7    1
     8     7     8    1
     9     7     9   am
    10     9    10    2
    11     9    11   am
    12     6    11    1
    13     6     2    1
    14     2     3    2
    15     2     4   am
    16     4     1    1
    17     1    25    1
    18    25    26    1
    19    27    26    1
    20    27    39    1
    21    39    40    1
    22    40    41   ar
    23    41    42   ar
    24    42    43   ar
    25    43    44   ar
    26    44    45   ar
    27    27    28    1
    28    28    29   am
    29    29    30    2
    30    29    32    1
    31    32    33    1
    32    33    34    1
    33    34    35   ar
    34    35    36   ar
    35    36    37   ar
    36    37    38   ar
    37     1    46    1
    38    46    47    1
    39    47    48   ar
    40    48    49   ar
    41    49    50   ar
    42    50    51   ar
    43    51    52   ar
    44     6    22    1
    45    22    23    1
    46    22    24    1
    47    16    17   ar
    48    17    18   ar
    49    18    14   ar
    50    45    40   ar
    51    38    34   ar
    52    52    47   ar
    53    11    12    1
    54     4     5    1
    55    28    31    1
@<TRIPOS>MOLECULE
*****
 52 55 0 0 0
SMALL
GASTEIGER

@<TRIPOS>ATOM
      1 C           4.4366   -1.4268   23.6977 C.3     1  UNL1        0.0760
      2 C           5.4473   -1.5531   26.0878 C.2     1  UNL1        0.2403
      3 O           6.0130   -0.1739   25.9215 O.2     1  UNL1       -0.2733
      4 N           4.6591   -2.1796   24.9759 N.am    1  UNL1       -0.3043
      5 H           4.2877   -3.0848   25.0851 H       1  UNL1        0.1494
      6 C           5.6698   -2.3059   27.3660 C.3     1  UNL1        0.1496
      7 N           5.2499   -0.3871   30.8145 N.am    1  UNL1       -0.2567
      8 C           6.0344    0.5313   31.7039 C.3     1  UNL1        0.1168
      9 C           5.8520   -0.8873   29.5350 C.2     1  UNL1        0.3046
     10 O           7.2388   -0.4691   29.1449 O.2     1  UNL1       -0.2526
     11 N           5.0675   -1.8057   28.6456 N.am    1  UNL1       -0.2824
     12 H           4.1574   -2.0802   28.9016 H       1  UNL1        0.1514
     13 C           3.8632   -0.8053   31.2046 C.3     1  UNL1        0.1413
     14 C           0.6405    0.6133   29.5712 C.ar    1  UNL1        0.0875
     15 N           1.6312   -0.4960   29.7666 N.ar    1  UNL1       -0.2453
     16 C           2.6797   -0.0172   30.7264 C.ar    1  UNL1        0.0858
     17 C           2.3372    1.3879   31.1242 C.ar    1  UNL1        0.0530
     18 S           1.0769    1.7776   30.4103 S.2     1  UNL1       -0.0705
     19 C          -0.7747    1.6121   27.6348 C.3     1  UNL1        0.0069
     20 C          -0.5734    0.5665   28.6913 C.3     1  UNL1        0.0465
     21 C          -1.5859   -0.5260   28.8677 C.3     1  UNL1        0.0069
     22 C           6.4944   -3.5588   27.3647 C.3     1  UNL1        0.0270
     23 C           7.5134   -3.7850   26.2874 C.3     1  UNL1        0.0022
     24 C           6.3001   -4.5857   28.4407 C.3     1  UNL1        0.0022
     25 C           3.1410   -0.7069   23.4670 C.3     1  UNL1        0.0216
     26 C           3.1375    0.6341   22.7951 C.3     1  UNL1        0.0217
     27 C           2.3838    0.8286   21.5128 C.3     1  UNL1        0.0792
     28 N           1.5208    2.0413   21.3267 N.am    1  UNL1       -0.2720
     29 C           0.0957    1.8869   20.8845 C.2     1  UNL1        0.4019
     30 O          -0.4662    0.5199   20.6284 O.2     1  UNL1       -0.2264
     31 H           1.8896    2.9385   21.4948 H       1  UNL1        0.1527
     32 O          -0.7673    3.0995   20.6984 O.3     1  UNL1       -0.4291
     33 C          -1.6300    3.5861   21.8248 C.3     1  UNL1        0.2447
     34 C          -3.1234    3.5766   21.6839 C.ar    1  UNL1        0.0714
     35 C          -4.1154    3.6614   22.8058 C.ar    1  UNL1        0.1053
     36 N          -5.4920    3.6178   22.2117 N.ar    1  UNL1       -0.2350
     37 C          -5.3508    3.5060   20.7225 C.ar    1  UNL1        0.1343
     38 S          -3.8869    3.4806   20.3964 S.2     1  UNL1       -0.0652
     39 C           2.4932   -0.1895   20.4167 C.3     1  UNL1        0.0460
     40 C           3.4877    0.0033   19.3104 C.ar    1  UNL1       -0.0205
     41 C           4.6014    0.9957   19.4676 C.ar    1  UNL1       -0.0042
     42 C           5.5958    1.1885   18.3614 C.ar    1  UNL1       -0.0003
     43 C           5.4765    0.3889   17.0979 C.ar    1  UNL1       -0.0000
     44 C           4.3628   -0.6035   16.9407 C.ar    1  UNL1       -0.0003
     45 C           3.3684   -0.7963   18.0469 C.ar    1  UNL1       -0.0042
     46 C           5.5098   -1.3939   22.6502 C.3     1  UNL1        0.0459
     47 C           5.3834   -2.2428   21.4200 C.ar    1  UNL1       -0.0205
     48 C           6.3786   -2.1028   20.3065 C.ar    1  UNL1       -0.0042
     49 C           6.2522   -2.9517   19.0764 C.ar    1  UNL1       -0.0003
     50 C           5.1305   -3.9407   18.9597 C.ar    1  UNL1       -0.0000
     51 C           4.1352   -4.0808   20.0732 C.ar    1  UNL1       -0.0003
     52 C           4.2616   -3.2319   21.3033 C.ar    1  UNL1       -0.0042
@<TRIPOS>BOND
     1    19    20    1
     2    20    21    1
     3    20    14    1
     4    14    15   ar
     5    15    16   ar
     6    16    13    1
     7    13     7    1
     8     7     8    1
     9     7     9   am
    10     9    10    2
    11     9    11   am
    12     6    11    1
    13     6     2    1
    14     2     3    2
    15     2     4   am
    16     4     1    1
    17     1    25    1
    18    25    26    1
    19    27    26    1
    20    27    39    1
    21    39    40    1
    22    40    41   ar
    23    41    42   ar
    24    42    43   ar
    25    43    44   ar
    26    44    45   ar
    27    27    28    1
    28    28    29   am
    29    29    30    2
    30    29    32    1
    31    32    33    1
    32    33    34    1
    33    34    35   ar
    34    35    36   ar
    35    36    37   ar
    36    37    38   ar
    37     1    46    1
    38    46    47    1
    39    47    48   ar
    40    48    49   ar
    41    49    50   ar
    42    50    51   ar
    43    51    52   ar
    44     6    22    1
    45    22    23    1
    46    22    24    1
    47    16    17   ar
    48    17    18   ar
    49    18    14   ar
    50    45    40   ar
    51    38    34   ar
    52    52    47   ar
    53    11    12    1
    54     4     5    1
    55    28    31    1
@<TRIPOS>MOLECULE
*****
 52 55 0 0 0
SMALL
GASTEIGER

@<TRIPOS>ATOM
      1 C           1.8693    0.7605   23.1928 C.3     1  UNL1        0.0760
      2 C           1.5439    1.3140   25.7104 C.2     1  UNL1        0.2403
      3 O           1.7674    2.7684   25.4195 O.2     1  UNL1       -0.2733
      4 N           1.5948    0.3100   24.5970 N.am    1  UNL1       -0.3043
      5 H           1.4481   -0.6446   24.7879 H       1  UNL1        0.1494
      6 C           1.2694    0.8635   27.1145 C.3     1  UNL1        0.1496
      7 N           4.3691    0.6687   29.5853 N.am    1  UNL1       -0.2567
      8 C           5.2470    1.5911   30.3778 C.3     1  UNL1        0.1168
      9 C           3.2583    1.2273   28.7462 C.2     1  UNL1        0.3046
     10 O           3.0254    2.7084   28.6997 O.2     1  UNL1       -0.2526
     11 N           2.3803    0.3048   27.9536 N.am    1  UNL1       -0.2824
     12 H           2.5331   -0.6673   27.9841 H       1  UNL1        0.1514
     13 C           4.6019   -0.8124   29.6317 C.3     1  UNL1        0.1413
     14 C           5.9966   -2.0858   26.2407 C.ar    1  UNL1        0.0875
     15 N           5.1500   -1.1363   27.0356 N.ar    1  UNL1       -0.2453
     16 C           5.2799   -1.5014   28.4847 C.ar    1  UNL1        0.0858
     17 C           6.2067   -2.6765   28.5854 C.ar    1  UNL1        0.0530
     18 S           6.6497   -3.0377   27.1986 S.2     1  UNL1       -0.0705
     19 C           5.3711   -3.0400   23.9066 C.3     1  UNL1        0.0069
     20 C           6.1613   -2.0837   24.7498 C.3     1  UNL1        0.0465
     21 C           7.1161   -1.1253   24.1020 C.3     1  UNL1        0.0069
     22 C          -0.1158    0.9716   27.6796 C.3     1  UNL1        0.0270
     23 C          -1.0048    2.1095   27.2734 C.3     1  UNL1        0.0022
     24 C          -0.6120   -0.0580   28.6510 C.3     1  UNL1        0.0022
     25 C           0.7308    1.0013   22.2464 C.3     1  UNL1        0.0216
     26 C           0.3752    2.4011   21.8417 C.3     1  UNL1        0.0217
     27 C          -0.4611    2.6390   20.6193 C.3     1  UNL1        0.0792
     28 N          -1.9547    2.5260   20.6988 N.am    1  UNL1       -0.2720
     29 C          -2.7613    3.6455   21.2871 C.2     1  UNL1        0.4019
     30 O          -2.0743    4.8780   21.7959 O.2     1  UNL1       -0.2264
     31 H          -2.4056    1.7170   20.3648 H       1  UNL1        0.1527
     32 O          -4.2550    3.5325   21.3665 O.3     1  UNL1       -0.4291
     33 C          -4.9100    3.1442   22.6588 C.3     1  UNL1        0.2447
     34 C          -5.9283    4.0500   23.2854 C.ar    1  UNL1        0.0714
     35 C          -6.0286    4.3890   24.7431 C.ar    1  UNL1        0.1053
     36 N          -7.1874    5.3244   24.9229 N.ar    1  UNL1       -0.2350
     37 C          -7.8034    5.5634   23.5762 C.ar    1  UNL1        0.1343
     38 S          -7.0252    4.7757   22.5642 S.2     1  UNL1       -0.0652
     39 C           0.1963    2.9899   19.3175 C.3     1  UNL1        0.0460
     40 C           1.4434    2.2741   18.8901 C.ar    1  UNL1       -0.0205
     41 C           2.7632    2.9862   18.9162 C.ar    1  UNL1       -0.0042
     42 C           4.0102    2.2704   18.4888 C.ar    1  UNL1       -0.0003
     43 C           3.9373    0.8425   18.0354 C.ar    1  UNL1       -0.0000
     44 C           2.6174    0.1303   18.0092 C.ar    1  UNL1       -0.0003
     45 C           1.3704    0.8461   18.4366 C.ar    1  UNL1       -0.0042
     46 C           3.2823    0.9703   22.7352 C.3     1  UNL1        0.0459
     47 C           3.9413   -0.0431   21.8471 C.ar    1  UNL1       -0.0205
     48 C           3.2014   -1.2858   21.4495 C.ar    1  UNL1       -0.0042
     49 C           3.8604   -2.2993   20.5613 C.ar    1  UNL1       -0.0003
     50 C           5.2592   -2.0699   20.0708 C.ar    1  UNL1       -0.0000
     51 C           5.9992   -0.8271   20.4684 C.ar    1  UNL1       -0.0003
     52 C           5.3402    0.1863   21.3566 C.ar    1  UNL1       -0.0042
@<TRIPOS>BOND
     1    19    20    1
     2    20    21    1
     3    20    14    1
     4    14    15   ar
     5    15    16   ar
     6    16    13    1
     7    13     7    1
     8     7     8    1
     9     7     9   am
    10     9    10    2
    11     9    11   am
    12     6    11    1
    13     6     2    1
    14     2     3    2
    15     2     4   am
    16     4     1    1
    17     1    25    1
    18    25    26    1
    19    27    26    1
    20    27    39    1
    21    39    40    1
    22    40    41   ar
    23    41    42   ar
    24    42    43   ar
    25    43    44   ar
    26    44    45   ar
    27    27    28    1
    28    28    29   am
    29    29    30    2
    30    29    32    1
    31    32    33    1
    32    33    34    1
    33    34    35   ar
    34    35    36   ar
    35    36    37   ar
    36    37    38   ar
    37     1    46    1
    38    46    47    1
    39    47    48   ar
    40    48    49   ar
    41    49    50   ar
    42    50    51   ar
    43    51    52   ar
    44     6    22    1
    45    22    23    1
    46    22    24    1
    47    16    17   ar
    48    17    18   ar
    49    18    14   ar
    50    45    40   ar
    51    38    34   ar
    52    52    47   ar
    53    11    12    1
    54     4     5    1
    55    28    31    1
@<TRIPOS>MOLECULE
*****
 52 55 0 0 0
SMALL
GASTEIGER

@<TRIPOS>ATOM
      1 C           3.5239   -0.7179   23.5530 C.3     1  UNL1        0.0760
      2 C           2.8579    1.7715   23.8835 C.2     1  UNL1        0.2403
      3 O           4.1013    2.2000   23.1622 O.2     1  UNL1       -0.2733
      4 N           2.5692    0.3125   24.0789 N.am    1  UNL1       -0.3043
      5 H           1.7531    0.0313   24.5524 H       1  UNL1        0.1494
      6 C           1.9032    2.8020   24.4095 C.3     1  UNL1        0.1496
      7 N           0.1104    1.8987   27.8329 N.am    1  UNL1       -0.2567
      8 C          -0.9525    0.9732   28.3466 C.3     1  UNL1        0.1168
      9 C           0.4753    1.8876   26.3781 C.2     1  UNL1        0.3046
     10 O          -0.2227    0.9512   25.4368 O.2     1  UNL1       -0.2526
     11 N           1.5382    2.8130   25.8644 N.am    1  UNL1       -0.2824
     12 H           1.9964    3.4277   26.4822 H       1  UNL1        0.1514
     13 C           0.8084    2.8351   28.7741 C.3     1  UNL1        0.1413
     14 C           2.4992    1.0896   31.8007 C.ar    1  UNL1        0.0875
     15 N           2.3182    1.2634   30.3218 N.ar    1  UNL1       -0.2453
     16 C           1.2949    2.3380   30.1032 C.ar    1  UNL1        0.0858
     17 C           0.8433    2.8284   31.4470 C.ar    1  UNL1        0.0530
     18 S           1.5876    2.0568   32.4961 S.2     1  UNL1       -0.0705
     19 C           3.9462    0.4025   33.8462 C.3     1  UNL1        0.0069
     20 C           3.4286    0.1190   32.4672 C.3     1  UNL1        0.0465
     21 C           3.8403   -1.1352   31.7547 C.3     1  UNL1        0.0069
     22 C           1.3133    3.8214   23.4805 C.3     1  UNL1        0.0270
     23 C           0.9415    3.4336   22.0800 C.3     1  UNL1        0.0022
     24 C           1.0953    5.2285   23.9521 C.3     1  UNL1        0.0022
     25 C           4.8067   -0.9924   24.2804 C.3     1  UNL1        0.0216
     26 C           5.9852   -1.5495   23.5384 C.3     1  UNL1        0.0217
     27 C           6.1852   -3.0338   23.4542 C.3     1  UNL1        0.0792
     28 N           5.8249   -3.9064   24.6199 N.am    1  UNL1       -0.2720
     29 C           6.8828   -4.3284   25.5960 C.2     1  UNL1        0.4019
     30 O           8.3009   -3.8779   25.4065 O.2     1  UNL1       -0.2264
     31 H           4.8941   -4.2021   24.7443 H       1  UNL1        0.1527
     32 O           6.5225   -5.2010   26.7617 O.3     1  UNL1       -0.4291
     33 C           7.5155   -5.4298   27.8624 C.3     1  UNL1        0.2447
     34 C           7.2044   -4.9789   29.2588 C.ar    1  UNL1        0.0714
     35 C           7.2419   -5.8342   30.4905 C.ar    1  UNL1        0.1053
     36 N           6.8619   -4.9775   31.6616 N.ar    1  UNL1       -0.2350
     37 C           6.5896   -3.5926   31.1537 C.ar    1  UNL1        0.1343
     38 S           6.8013   -3.5935   29.6688 S.2     1  UNL1       -0.0652
     39 C           6.7454   -3.6454   22.2044 C.3     1  UNL1        0.0460
     40 C           6.0066   -3.5085   20.9061 C.ar    1  UNL1       -0.0205
     41 C           6.6104   -2.7248   19.7786 C.ar    1  UNL1       -0.0042
     42 C           5.8717   -2.5879   18.4804 C.ar    1  UNL1       -0.0003
     43 C           4.5291   -3.2348   18.3096 C.ar    1  UNL1       -0.0000
     44 C           3.9253   -4.0184   19.4371 C.ar    1  UNL1       -0.0003
     45 C           4.6641   -4.1553   20.7353 C.ar    1  UNL1       -0.0042
     46 C           3.1959   -1.4739   22.2996 C.3     1  UNL1        0.0459
     47 C           3.1745   -0.7630   20.9789 C.ar    1  UNL1       -0.0205
     48 C           1.9633   -0.8521   20.0987 C.ar    1  UNL1       -0.0042
     49 C           1.9419   -0.1413   18.7780 C.ar    1  UNL1       -0.0003
     50 C           3.1318    0.6587   18.3375 C.ar    1  UNL1       -0.0000
     51 C           4.3432    0.7479   19.2177 C.ar    1  UNL1       -0.0003
     52 C           4.3645    0.0370   20.5384 C.ar    1  UNL1       -0.0042
@<TRIPOS>BOND
     1    19    20    1
     2    20    21    1
     3    20    14    1
     4    14    15   ar
     5    15    16   ar
     6    16    13    1
     7    13     7    1
     8     7     8    1
     9     7     9   am
    10     9    10    2
    11     9    11   am
    12     6    11    1
    13     6     2    1
    14     2     3    2
    15     2     4   am
    16     4     1    1
    17     1    25    1
    18    25    26    1
    19    27    26    1
    20    27    39    1
    21    39    40    1
    22    40    41   ar
    23    41    42   ar
    24    42    43   ar
    25    43    44   ar
    26    44    45   ar
    27    27    28    1
    28    28    29   am
    29    29    30    2
    30    29    32    1
    31    32    33    1
    32    33    34    1
    33    34    35   ar
    34    35    36   ar
    35    36    37   ar
    36    37    38   ar
    37     1    46    1
    38    46    47    1
    39    47    48   ar
    40    48    49   ar
    41    49    50   ar
    42    50    51   ar
    43    51    52   ar
    44     6    22    1
    45    22    23    1
    46    22    24    1
    47    16    17   ar
    48    17    18   ar
    49    18    14   ar
    50    45    40   ar
    51    38    34   ar
    52    52    47   ar
    53    11    12    1
    54     4     5    1
    55    28    31    1
@<TRIPOS>MOLECULE
*****
 52 55 0 0 0
SMALL
GASTEIGER

@<TRIPOS>ATOM
      1 C           3.5976   -1.0245   23.5974 C.3     1  UNL1        0.0760
      2 C           2.1416    1.0041   24.3149 C.2     1  UNL1        0.2403
      3 O           3.0069    1.9150   23.4955 O.2     1  UNL1       -0.2733
      4 N           2.4369   -0.4657   24.3659 N.am    1  UNL1       -0.3043
      5 H           1.8690   -1.0636   24.9037 H       1  UNL1        0.1494
      6 C           0.9809    1.5629   25.0834 C.3     1  UNL1        0.1496
      7 N          -1.2326    4.5150   23.6219 N.am    1  UNL1       -0.2567
      8 C          -1.2522    6.0147   23.6019 C.3     1  UNL1        0.1168
      9 C          -0.1357    3.7888   24.3427 C.2     1  UNL1        0.3046
     10 O           0.9415    4.5624   25.0436 O.2     1  UNL1       -0.2526
     11 N          -0.1160    2.2891   24.3626 N.am    1  UNL1       -0.2824
     12 H          -0.8230    1.7813   23.9026 H       1  UNL1        0.1514
     13 C          -2.3097    3.7414   22.9210 C.3     1  UNL1        0.1413
     14 C          -1.8933    3.8928   19.0649 C.ar    1  UNL1        0.0875
     15 N          -1.3093    3.7892   20.4427 N.ar    1  UNL1       -0.2453
     16 C          -2.4393    3.8196   21.4286 C.ar    1  UNL1        0.0858
     17 C          -3.7217    3.9421   20.6602 C.ar    1  UNL1        0.0530
     18 S          -3.3843    3.9873   19.1994 S.2     1  UNL1       -0.0705
     19 C          -1.8420    4.0643   16.4730 C.3     1  UNL1        0.0069
     20 C          -1.1218    3.9005   17.7786 C.3     1  UNL1        0.0465
     21 C           0.3699    3.7445   17.7977 C.3     1  UNL1        0.0069
     22 C           0.9171    1.3956   26.5727 C.3     1  UNL1        0.0270
     23 C          -0.4099    1.2347   27.2532 C.3     1  UNL1        0.0022
     24 C           2.1804    1.3892   27.3814 C.3     1  UNL1        0.0022
     25 C           4.9815   -0.9528   24.1715 C.3     1  UNL1        0.0216
     26 C           6.1453   -1.4901   23.3925 C.3     1  UNL1        0.0217
     27 C           6.3404   -2.9716   23.2616 C.3     1  UNL1        0.0792
     28 N           5.9358   -3.8832   24.3820 N.am    1  UNL1       -0.2720
     29 C           6.9742   -4.4290   25.3169 C.2     1  UNL1        0.4019
     30 O           8.4169   -4.0631   25.1315 O.2     1  UNL1       -0.2264
     31 H           4.9889   -4.1234   24.5037 H       1  UNL1        0.1527
     32 O           6.5696   -5.3406   26.4373 O.3     1  UNL1       -0.4291
     33 C           7.6090   -6.1380   27.1679 C.3     1  UNL1        0.2447
     34 C           7.7042   -6.0552   28.6626 C.ar    1  UNL1        0.0714
     35 C           6.6995   -5.4181   29.5762 C.ar    1  UNL1        0.1053
     36 N           7.1952   -5.5641   30.9844 N.ar    1  UNL1       -0.2350
     37 C           8.5063   -6.2914   30.9411 C.ar    1  UNL1        0.1343
     38 S           8.8209   -6.5949   29.5062 S.2     1  UNL1       -0.0652
     39 C           6.9400   -3.5414   22.0103 C.3     1  UNL1        0.0460
     40 C           6.2634   -3.3261   20.6889 C.ar    1  UNL1       -0.0205
     41 C           4.9553   -3.9997   20.3976 C.ar    1  UNL1       -0.0042
     42 C           4.2788   -3.7844   19.0763 C.ar    1  UNL1       -0.0003
     43 C           4.9104   -2.8954   18.0463 C.ar    1  UNL1       -0.0000
     44 C           6.2185   -2.2218   18.3377 C.ar    1  UNL1       -0.0003
     45 C           6.8950   -2.4371   19.6590 C.ar    1  UNL1       -0.0042
     46 C           3.3743   -1.6551   22.2548 C.3     1  UNL1        0.0459
     47 C           3.1137   -0.7929   21.0553 C.ar    1  UNL1       -0.0205
     48 C           1.7488   -0.7649   20.4340 C.ar    1  UNL1       -0.0042
     49 C           1.4882    0.0973   19.2345 C.ar    1  UNL1       -0.0003
     50 C           2.5925    0.9315   18.6563 C.ar    1  UNL1       -0.0000
     51 C           3.9576    0.9036   19.2776 C.ar    1  UNL1       -0.0003
     52 C           4.2182    0.0414   20.4771 C.ar    1  UNL1       -0.0042
@<TRIPOS>BOND
     1    19    20    1
     2    20    21    1
     3    20    14    1
     4    14    15   ar
     5    15    16   ar
     6    16    13    1
     7    13     7    1
     8     7     8    1
     9     7     9   am
    10     9    10    2
    11     9    11   am
    12     6    11    1
    13     6     2    1
    14     2     3    2
    15     2     4   am
    16     4     1    1
    17     1    25    1
    18    25    26    1
    19    27    26    1
    20    27    39    1
    21    39    40    1
    22    40    41   ar
    23    41    42   ar
    24    42    43   ar
    25    43    44   ar
    26    44    45   ar
    27    27    28    1
    28    28    29   am
    29    29    30    2
    30    29    32    1
    31    32    33    1
    32    33    34    1
    33    34    35   ar
    34    35    36   ar
    35    36    37   ar
    36    37    38   ar
    37     1    46    1
    38    46    47    1
    39    47    48   ar
    40    48    49   ar
    41    49    50   ar
    42    50    51   ar
    43    51    52   ar
    44     6    22    1
    45    22    23    1
    46    22    24    1
    47    16    17   ar
    48    17    18   ar
    49    18    14   ar
    50    45    40   ar
    51    38    34   ar
    52    52    47   ar
    53    11    12    1
    54     4     5    1
    55    28    31    1
