@<TRIPOS>MOLECULE
*****
 46 50 0 0 0
SMALL
GASTEIGER

@<TRIPOS>ATOM
      1 N           0.2392    3.3413   25.4601 N.ar    1  UNL1       -0.3260
      2 C           1.2351    2.4203   26.1003 C.ar    1  UNL1        0.0433
      3 C           1.6780    1.4266   25.0676 C.ar    1  UNL1        0.0383
      4 C           0.9558    1.7335   23.7892 C.ar    1  UNL1        0.0256
      5 C           0.9930    1.0883   22.4356 C.ar    1  UNL1        0.0389
      6 C           0.1410    1.6265   21.3246 C.ar    1  UNL1        0.1392
      7 C          -0.7482    2.8098   21.5672 C.ar    1  UNL1        0.0384
      8 C          -0.7854    3.4550   22.9208 C.ar    1  UNL1        0.0203
      9 C           0.0666    2.9169   24.0318 C.ar    1  UNL1        0.0606
     10 C          -0.4611    4.4859   26.1306 C.3     1  UNL1        0.1324
     11 C          -4.8744    5.1019   25.5032 C.ar    1  UNL1        0.0015
     12 C          -4.3856    3.9151   26.2796 C.ar    1  UNL1       -0.0002
     13 C          -2.9146    3.7098   26.4887 C.ar    1  UNL1       -0.0024
     14 C          -1.9322    4.6912   25.9215 C.ar    1  UNL1        0.0004
     15 C          -2.4210    5.8780   25.1451 C.ar    1  UNL1       -0.0024
     16 C          -3.8920    6.0834   24.9360 C.ar    1  UNL1       -0.0002
     17 C          -9.2876    5.7180   24.8759 C.ar    1  UNL1        0.2249
     18 C          -8.5005    4.8893   23.9044 C.ar    1  UNL1        0.0577
     19 C          -7.0295    4.6839   24.1135 C.ar    1  UNL1        0.0063
     20 C          -6.3455    5.3073   25.2941 C.ar    1  UNL1        0.0194
     21 C          -7.1326    6.1360   26.2655 C.ar    1  UNL1        0.1020
     22 N          -8.6037    6.3414   26.0564 N.ar    1  UNL1       -0.2101
     23 O         -10.7587    5.9234   24.6667 O.3     1  UNL1       -0.4602
     24 C         -13.1337    4.8890   24.4683 C.3     1  UNL1        0.0512
     25 C         -11.7212    4.8130   24.9674 C.3     1  UNL1        0.2072
     26 C           1.7056    2.4821   27.5233 C.3     1  UNL1        0.0495
     27 C           1.3287    1.3950   28.4857 C.3     1  UNL1        0.0376
     28 C           2.7797    1.1458   28.7725 C.3     1  UNL1        0.0059
     29 C          -0.1224    1.6442   28.1989 C.3     1  UNL1        0.0059
     30 C           0.9518    0.3080   29.4482 C.2     1  UNL1        0.0500
     31 O          -0.3496   -0.4200   29.2852 O.co2   1  UNL1       -0.5492
     32 O           1.8762   -0.0511   30.5735 O.co2   1  UNL1       -0.5492
     33 S           2.6691    0.3202   25.2766 S.3     1  UNL1       -0.1142
     34 C           3.9241    0.2726   24.4563 C.3     1  UNL1        0.0434
     35 C           3.4814   -1.0280   23.8544 C.3     1  UNL1        0.0112
     36 C           4.3668    1.5732   25.0583 C.3     1  UNL1        0.0112
     37 C           5.1791    0.2251   23.6361 C.3     1  UNL1        0.0112
     38 O           0.1782    0.9812   19.9709 O.3     1  UNL1       -0.4690
     39 C           1.4009    1.1108   19.1117 C.3     1  UNL1        0.2508
     40 C           2.3331   -0.0535   18.9534 C.ar    1  UNL1        0.1026
     41 C           2.3826   -1.1230   20.0040 C.ar    1  UNL1        0.0181
     42 C           3.3149   -2.2874   19.8456 C.ar    1  UNL1       -0.0014
     43 C           4.1977   -2.3823   18.6366 C.ar    1  UNL1       -0.0027
     44 C           5.1299   -3.5467   18.4782 C.3     1  UNL1        0.0327
     45 C           4.1482   -1.3129   17.5860 C.ar    1  UNL1        0.0943
     46 N           3.2160   -0.1485   17.7443 N.ar    1  UNL1       -0.2448
@<TRIPOS>UNITY_ATOM_ATTR
31 1
charge -1
@<TRIPOS>BOND
     1    24    25    1
     2    25    23    1
     3    23    17    1
     4    17    18   ar
     5    18    19   ar
     6    19    20   ar
     7    20    11    1
     8    11    12   ar
     9    12    13   ar
    10    13    14   ar
    11    14    10    1
    12    10     1    1
    13     1     2   ar
    14     2    26    1
    15    26    27    1
    16    27    28    1
    17    27    29    1
    18    27    30    1
    19    30    31   ar
    20    30    32   ar
    21     2     3   ar
    22     3    33    1
    23    33    34    1
    24    34    35    1
    25    34    36    1
    26    34    37    1
    27     3     4   ar
    28     4     5   ar
    29     5     6   ar
    30     6    38    1
    31    38    39    1
    32    39    40    1
    33    40    41   ar
    34    41    42   ar
    35    42    43   ar
    36    43    44    1
    37    43    45   ar
    38    45    46   ar
    39     6     7   ar
    40     7     8   ar
    41     8     9   ar
    42    14    15   ar
    43    15    16   ar
    44    20    21   ar
    45    21    22   ar
    46    22    17   ar
    47    16    11   ar
    48     9     1   ar
    49     9     4   ar
    50    46    40   ar
@<TRIPOS>MOLECULE
*****
 46 50 0 0 0
SMALL
GASTEIGER

@<TRIPOS>ATOM
      1 N          -2.3891    4.8021   23.8404 N.ar    1  UNL1       -0.3260
      2 C          -3.7305    5.0636   23.2221 C.ar    1  UNL1        0.0433
      3 C          -3.7605    4.3947   21.8799 C.ar    1  UNL1        0.0383
      4 C          -2.4377    3.7196   21.6686 C.ar    1  UNL1        0.0256
      5 C          -1.8955    2.9082   20.5295 C.ar    1  UNL1        0.0389
      6 C          -0.5057    2.3487   20.6021 C.ar    1  UNL1        0.1392
      7 C           0.3418    2.6005   21.8138 C.ar    1  UNL1        0.0384
      8 C          -0.2004    3.4118   22.9529 C.ar    1  UNL1        0.0203
      9 C          -1.5902    3.9714   22.8803 C.ar    1  UNL1        0.0606
     10 C          -1.9277    5.2861   25.1831 C.3     1  UNL1        0.1324
     11 C           0.2510    2.4908   27.9560 C.ar    1  UNL1        0.0015
     12 C           0.7951    3.8641   27.6958 C.ar    1  UNL1       -0.0002
     13 C           0.0689    4.7959   26.7715 C.ar    1  UNL1       -0.0024
     14 C          -1.2015    4.3544   26.1073 C.ar    1  UNL1        0.0004
     15 C          -1.7457    2.9810   26.3676 C.ar    1  UNL1       -0.0024
     16 C          -1.0195    2.0492   27.2919 C.ar    1  UNL1       -0.0002
     17 C           2.4295   -0.3047   30.7289 C.ar    1  UNL1        0.2249
     18 C           2.3327   -0.6237   29.2664 C.ar    1  UNL1        0.0577
     19 C           1.6065    0.3081   28.3421 C.ar    1  UNL1        0.0063
     20 C           0.9772    1.5590   28.8803 C.ar    1  UNL1        0.0194
     21 C           1.0741    1.8779   30.3428 C.ar    1  UNL1        0.1020
     22 N           1.8003    0.9461   31.2671 N.ar    1  UNL1       -0.2101
     23 O           3.1557   -1.2365   31.6532 O.3     1  UNL1       -0.4602
     24 C           4.3774   -1.6348   33.9112 C.3     1  UNL1        0.0512
     25 C           3.8598   -0.6959   32.8622 C.3     1  UNL1        0.2072
     26 C          -4.8460    5.8552   23.8378 C.3     1  UNL1        0.0495
     27 C          -5.2289    5.6231   25.2694 C.3     1  UNL1        0.0376
     28 C          -5.5701    4.1985   24.9472 C.3     1  UNL1        0.0059
     29 C          -4.8877    7.0478   25.5916 C.3     1  UNL1        0.0059
     30 C          -5.6119    5.3910   26.7010 C.2     1  UNL1        0.0500
     31 O          -6.8858    5.9712   27.2401 O.co2   1  UNL1       -0.5492
     32 O          -4.7211    4.5787   27.5935 O.co2   1  UNL1       -0.5492
     33 S          -4.9113    4.3998   20.9177 S.3     1  UNL1       -0.1142
     34 C          -4.7183    4.9098   19.5203 C.3     1  UNL1        0.0434
     35 C          -5.0954    3.5636   18.9768 C.3     1  UNL1        0.0112
     36 C          -4.3412    6.2560   20.0638 C.3     1  UNL1        0.0112
     37 C          -4.5253    5.4199   18.1230 C.3     1  UNL1        0.0112
     38 O           0.0365    1.5372   19.4630 O.3     1  UNL1       -0.4690
     39 C           1.4948    1.6085   19.1188 C.3     1  UNL1        0.2508
     40 C           2.3019    0.3490   19.0087 C.ar    1  UNL1        0.1026
     41 C           2.2542   -0.6708   20.1076 C.ar    1  UNL1        0.0181
     42 C           3.0614   -1.9304   19.9975 C.ar    1  UNL1       -0.0014
     43 C           3.9161   -2.1701   18.7884 C.ar    1  UNL1       -0.0027
     44 C           4.7232   -3.4296   18.6783 C.3     1  UNL1        0.0327
     45 C           3.9638   -1.1503   17.6894 C.ar    1  UNL1        0.0943
     46 N           3.1567    0.1092   17.7995 N.ar    1  UNL1       -0.2448
@<TRIPOS>UNITY_ATOM_ATTR
31 1
charge -1
@<TRIPOS>BOND
     1    24    25    1
     2    25    23    1
     3    23    17    1
     4    17    18   ar
     5    18    19   ar
     6    19    20   ar
     7    20    11    1
     8    11    12   ar
     9    12    13   ar
    10    13    14   ar
    11    14    10    1
    12    10     1    1
    13     1     2   ar
    14     2    26    1
    15    26    27    1
    16    27    28    1
    17    27    29    1
    18    27    30    1
    19    30    31   ar
    20    30    32   ar
    21     2     3   ar
    22     3    33    1
    23    33    34    1
    24    34    35    1
    25    34    36    1
    26    34    37    1
    27     3     4   ar
    28     4     5   ar
    29     5     6   ar
    30     6    38    1
    31    38    39    1
    32    39    40    1
    33    40    41   ar
    34    41    42   ar
    35    42    43   ar
    36    43    44    1
    37    43    45   ar
    38    45    46   ar
    39     6     7   ar
    40     7     8   ar
    41     8     9   ar
    42    14    15   ar
    43    15    16   ar
    44    20    21   ar
    45    21    22   ar
    46    22    17   ar
    47    16    11   ar
    48     9     1   ar
    49     9     4   ar
    50    46    40   ar
@<TRIPOS>MOLECULE
*****
 46 50 0 0 0
SMALL
GASTEIGER

@<TRIPOS>ATOM
      1 N           3.8569    0.1755   21.4378 N.ar    1  UNL1       -0.3260
      2 C           3.2834   -0.5274   20.2432 C.ar    1  UNL1        0.0433
      3 C           3.5981   -1.9886   20.3700 C.ar    1  UNL1        0.0383
      4 C           4.3660   -2.1887   21.6429 C.ar    1  UNL1        0.0256
      5 C           4.9403   -3.4159   22.2862 C.ar    1  UNL1        0.0389
      6 C           5.6745   -3.3057   23.5896 C.ar    1  UNL1        0.1392
      7 C           5.8345   -1.9682   24.2495 C.ar    1  UNL1        0.0384
      8 C           5.2602   -0.7410   23.6061 C.ar    1  UNL1        0.0203
      9 C           4.5260   -0.8512   22.3028 C.ar    1  UNL1        0.0606
     10 C           3.7756    1.6468   21.7181 C.3     1  UNL1        0.1324
     11 C           0.4207    3.2758   24.2363 C.ar    1  UNL1        0.0015
     12 C           0.8019    1.8288   24.3400 C.ar    1  UNL1       -0.0002
     13 C           1.9202    1.2858   23.5006 C.ar    1  UNL1       -0.0024
     14 C           2.6573    2.1898   22.5575 C.ar    1  UNL1        0.0004
     15 C           2.2760    3.6368   22.4538 C.ar    1  UNL1       -0.0024
     16 C           1.1577    4.1798   23.2931 C.ar    1  UNL1       -0.0002
     17 C          -2.9342    4.9048   26.7543 C.ar    1  UNL1        0.2249
     18 C          -2.7915    3.4240   26.5624 C.ar    1  UNL1        0.0577
     19 C          -1.6732    2.8810   25.7230 C.ar    1  UNL1        0.0063
     20 C          -0.6976    3.8188   25.0756 C.ar    1  UNL1        0.0194
     21 C          -0.8405    5.2996   25.2676 C.ar    1  UNL1        0.1020
     22 N          -1.9588    5.8426   26.1070 N.ar    1  UNL1       -0.2101
     23 O          -4.0525    5.4478   27.5937 O.3     1  UNL1       -0.4602
     24 C          -5.9636    5.2640   25.8432 C.3     1  UNL1        0.0512
     25 C          -5.2723    6.0229   26.9369 C.3     1  UNL1        0.2072
     26 C           2.5279    0.1175   19.1193 C.3     1  UNL1        0.0495
     27 C           1.3558    1.0054   19.4156 C.3     1  UNL1        0.0376
     28 C           2.0006    2.1155   18.6400 C.3     1  UNL1        0.0059
     29 C           0.7110   -0.1048   20.1913 C.3     1  UNL1        0.0059
     30 C           0.1837    1.8933   19.7120 C.2     1  UNL1        0.0500
     31 O          -0.5898    1.7145   20.9847 O.co2   1  UNL1       -0.5492
     32 O          -0.2149    2.9600   18.7357 O.co2   1  UNL1       -0.5492
     33 S           3.2125   -3.0613   19.3950 S.3     1  UNL1       -0.1142
     34 C           4.1890   -4.1459   19.0482 C.3     1  UNL1        0.0434
     35 C           3.2988   -5.1579   19.7062 C.3     1  UNL1        0.0112
     36 C           5.0793   -3.1337   18.3902 C.3     1  UNL1        0.0112
     37 C           5.1656   -5.2303   18.7013 C.3     1  UNL1        0.0112
     38 O           6.2488   -4.5330   24.2330 O.3     1  UNL1       -0.4690
     39 C           7.4481   -4.4199   25.1268 C.3     1  UNL1        0.2508
     40 C           7.3269   -4.7353   26.5882 C.ar    1  UNL1        0.1026
     41 C           7.8518   -6.0356   27.1209 C.ar    1  UNL1        0.0181
     42 C           7.7305   -6.3510   28.5824 C.ar    1  UNL1       -0.0014
     43 C           7.0843   -5.3662   29.5111 C.ar    1  UNL1       -0.0027
     44 C           6.9630   -5.6816   30.9725 C.3     1  UNL1        0.0327
     45 C           6.5593   -4.0659   28.9783 C.ar    1  UNL1        0.0943
     46 N           6.6806   -3.7505   27.5169 N.ar    1  UNL1       -0.2448
@<TRIPOS>UNITY_ATOM_ATTR
31 1
charge -1
@<TRIPOS>BOND
     1    24    25    1
     2    25    23    1
     3    23    17    1
     4    17    18   ar
     5    18    19   ar
     6    19    20   ar
     7    20    11    1
     8    11    12   ar
     9    12    13   ar
    10    13    14   ar
    11    14    10    1
    12    10     1    1
    13     1     2   ar
    14     2    26    1
    15    26    27    1
    16    27    28    1
    17    27    29    1
    18    27    30    1
    19    30    31   ar
    20    30    32   ar
    21     2     3   ar
    22     3    33    1
    23    33    34    1
    24    34    35    1
    25    34    36    1
    26    34    37    1
    27     3     4   ar
    28     4     5   ar
    29     5     6   ar
    30     6    38    1
    31    38    39    1
    32    39    40    1
    33    40    41   ar
    34    41    42   ar
    35    42    43   ar
    36    43    44    1
    37    43    45   ar
    38    45    46   ar
    39     6     7   ar
    40     7     8   ar
    41     8     9   ar
    42    14    15   ar
    43    15    16   ar
    44    20    21   ar
    45    21    22   ar
    46    22    17   ar
    47    16    11   ar
    48     9     1   ar
    49     9     4   ar
    50    46    40   ar
@<TRIPOS>MOLECULE
*****
 46 50 0 0 0
SMALL
GASTEIGER

@<TRIPOS>ATOM
      1 N           4.1052    0.3053   22.2908 N.ar    1  UNL1       -0.3260
      2 C           3.9743   -0.7230   21.2067 C.ar    1  UNL1        0.0433
      3 C           4.4535   -2.0354   21.7525 C.ar    1  UNL1        0.0383
      4 C           4.8806   -1.8182   23.1739 C.ar    1  UNL1        0.0256
      5 C           5.4376   -2.7509   24.2082 C.ar    1  UNL1        0.0389
      6 C           5.7794   -2.2368   25.5753 C.ar    1  UNL1        0.1392
      7 C           5.5641   -0.7901   25.9080 C.ar    1  UNL1        0.0384
      8 C           5.0070    0.1425   24.8737 C.ar    1  UNL1        0.0203
      9 C           4.6653   -0.3715   23.5066 C.ar    1  UNL1        0.0606
     10 C           3.7401    1.7559   22.1789 C.3     1  UNL1        0.1324
     11 C          -0.3566    3.1471   23.4162 C.ar    1  UNL1        0.0015
     12 C           0.3723    3.8513   22.3105 C.ar    1  UNL1       -0.0002
     13 C           1.7379    3.3875   21.8980 C.ar    1  UNL1       -0.0024
     14 C           2.3746    2.2196   22.5913 C.ar    1  UNL1        0.0004
     15 C           1.6456    1.5155   23.6971 C.ar    1  UNL1       -0.0024
     16 C           0.2800    1.9792   24.1096 C.ar    1  UNL1       -0.0002
     17 C          -4.4534    4.5382   24.6537 C.ar    1  UNL1        0.2249
     18 C          -3.6306    3.7029   25.5893 C.ar    1  UNL1        0.0577
     19 C          -2.2651    3.2392   25.1769 C.ar    1  UNL1        0.0063
     20 C          -1.7222    3.6108   23.8287 C.ar    1  UNL1        0.0194
     21 C          -2.5450    4.4461   22.8932 C.ar    1  UNL1        0.1020
     22 N          -3.9106    4.9098   23.3056 N.ar    1  UNL1       -0.2101
     23 O          -5.8189    5.0019   25.0662 O.3     1  UNL1       -0.4602
     24 C          -7.9894    4.4517   23.7484 C.3     1  UNL1        0.0512
     25 C          -6.8336    5.3674   24.0237 C.3     1  UNL1        0.2072
     26 C           3.4554   -0.4814   19.8202 C.3     1  UNL1        0.0495
     27 C           2.1059    0.1429   19.6227 C.3     1  UNL1        0.0376
     28 C           2.7089    1.1515   18.6905 C.3     1  UNL1        0.0059
     29 C           1.5029   -0.8657   20.5550 C.3     1  UNL1        0.0059
     30 C           0.7563    0.7672   19.4252 C.2     1  UNL1        0.0500
     31 O           0.4392    1.4780   18.1429 O.co2   1  UNL1       -0.5492
     32 O          -0.2761    0.6808   20.5099 O.co2   1  UNL1       -0.5492
     33 S           4.4979   -3.3367   21.0076 S.3     1  UNL1       -0.1142
     34 C           4.9316   -3.3646   19.5718 C.3     1  UNL1        0.0434
     35 C           6.3003   -2.9032   19.9763 C.3     1  UNL1        0.0112
     36 C           3.5628   -3.8260   19.1675 C.3     1  UNL1        0.0112
     37 C           5.3651   -3.3925   18.1361 C.3     1  UNL1        0.0112
     38 O           6.3364   -3.1694   26.6097 O.3     1  UNL1       -0.4690
     39 C           7.6547   -3.8462   26.3771 C.3     1  UNL1        0.2508
     40 C           7.8191   -5.3007   26.7045 C.ar    1  UNL1        0.1026
     41 C           8.4189   -5.7110   28.0168 C.ar    1  UNL1        0.0181
     42 C           8.5833   -7.1656   28.3441 C.ar    1  UNL1       -0.0014
     43 C           8.1480   -8.2099   27.3593 C.ar    1  UNL1       -0.0027
     44 C           8.3124   -9.6644   27.6868 C.3     1  UNL1        0.0327
     45 C           7.5482   -7.7996   26.0471 C.ar    1  UNL1        0.0943
     46 N           7.3838   -6.3451   25.7197 N.ar    1  UNL1       -0.2448
@<TRIPOS>UNITY_ATOM_ATTR
31 1
charge -1
@<TRIPOS>BOND
     1    24    25    1
     2    25    23    1
     3    23    17    1
     4    17    18   ar
     5    18    19   ar
     6    19    20   ar
     7    20    11    1
     8    11    12   ar
     9    12    13   ar
    10    13    14   ar
    11    14    10    1
    12    10     1    1
    13     1     2   ar
    14     2    26    1
    15    26    27    1
    16    27    28    1
    17    27    29    1
    18    27    30    1
    19    30    31   ar
    20    30    32   ar
    21     2     3   ar
    22     3    33    1
    23    33    34    1
    24    34    35    1
    25    34    36    1
    26    34    37    1
    27     3     4   ar
    28     4     5   ar
    29     5     6   ar
    30     6    38    1
    31    38    39    1
    32    39    40    1
    33    40    41   ar
    34    41    42   ar
    35    42    43   ar
    36    43    44    1
    37    43    45   ar
    38    45    46   ar
    39     6     7   ar
    40     7     8   ar
    41     8     9   ar
    42    14    15   ar
    43    15    16   ar
    44    20    21   ar
    45    21    22   ar
    46    22    17   ar
    47    16    11   ar
    48     9     1   ar
    49     9     4   ar
    50    46    40   ar
@<TRIPOS>MOLECULE
*****
 46 50 0 0 0
SMALL
GASTEIGER

@<TRIPOS>ATOM
      1 N           8.6924   -2.6119   28.2987 N.ar    1  UNL1       -0.3260
      2 C           8.2620   -4.0232   28.0288 C.ar    1  UNL1        0.0433
      3 C           7.5256   -4.0413   26.7222 C.ar    1  UNL1        0.0383
      4 C           7.5009   -2.6412   26.1845 C.ar    1  UNL1        0.0256
      5 C           6.9149   -2.0566   24.9336 C.ar    1  UNL1        0.0389
      6 C           7.0500   -0.5886   24.6571 C.ar    1  UNL1        0.1392
      7 C           7.7712    0.2949   25.6315 C.ar    1  UNL1        0.0384
      8 C           8.3572   -0.2897   26.8824 C.ar    1  UNL1        0.0203
      9 C           8.2220   -1.7577   27.1589 C.ar    1  UNL1        0.0606
     10 C           9.4587   -2.1378   29.4979 C.3     1  UNL1        0.1324
     11 C           7.2615   -0.8562   33.2100 C.ar    1  UNL1        0.0015
     12 C           8.6314   -1.4573   33.3192 C.ar    1  UNL1       -0.0002
     13 C           9.3638   -1.8846   32.0819 C.ar    1  UNL1       -0.0024
     14 C           8.7264   -1.7107   30.7353 C.ar    1  UNL1        0.0004
     15 C           7.3564   -1.1095   30.6261 C.ar    1  UNL1       -0.0024
     16 C           6.6239   -0.6823   31.8634 C.ar    1  UNL1       -0.0002
     17 C           5.0641    0.4254   36.9220 C.ar    1  UNL1        0.2249
     18 C           6.4901    0.8416   36.7132 C.ar    1  UNL1        0.0577
     19 C           7.2225    0.4144   35.4759 C.ar    1  UNL1        0.0063
     20 C           6.5290   -0.4290   34.4473 C.ar    1  UNL1        0.0194
     21 C           5.1031   -0.8452   34.6562 C.ar    1  UNL1        0.1020
     22 N           4.3707   -0.4180   35.8935 N.ar    1  UNL1       -0.2101
     23 O           4.3317    0.8526   38.1593 O.3     1  UNL1       -0.4602
     24 C           1.8593    0.6190   38.9226 C.3     1  UNL1        0.0512
     25 C           2.8983    1.2857   38.0706 C.3     1  UNL1        0.2072
     26 C           8.5223   -5.2083   28.9107 C.3     1  UNL1        0.0495
     27 C           7.8365   -5.3190   30.2401 C.3     1  UNL1        0.0376
     28 C           9.1671   -5.4818   30.9130 C.3     1  UNL1        0.0059
     29 C           6.5058   -5.1561   29.5672 C.3     1  UNL1        0.0059
     30 C           7.1507   -5.4296   31.5696 C.2     1  UNL1        0.0500
     31 O           6.9965   -6.7702   32.2248 O.co2   1  UNL1       -0.5492
     32 O           6.6190   -4.1998   32.2440 O.co2   1  UNL1       -0.5492
     33 S           6.9201   -5.2477   26.0680 S.3     1  UNL1       -0.1142
     34 C           7.8046   -6.3411   25.5460 C.3     1  UNL1        0.0434
     35 C           7.1178   -7.3259   26.4452 C.3     1  UNL1        0.0112
     36 C           8.4913   -5.3563   24.6470 C.3     1  UNL1        0.0112
     37 C           8.6891   -7.4344   25.0241 C.3     1  UNL1        0.0112
     38 O           6.4640   -0.0039   23.4061 O.3     1  UNL1       -0.4690
     39 C           5.0473   -0.3159   23.0247 C.3     1  UNL1        0.2508
     40 C           4.7569   -1.4358   22.0699 C.ar    1  UNL1        0.1026
     41 C           4.5909   -2.8353   22.5836 C.ar    1  UNL1        0.0181
     42 C           4.3006   -3.9552   21.6288 C.ar    1  UNL1       -0.0014
     43 C           4.1762   -3.6756   20.1604 C.ar    1  UNL1       -0.0027
     44 C           3.8858   -4.7954   19.2057 C.3     1  UNL1        0.0327
     45 C           4.3422   -2.2761   19.6467 C.ar    1  UNL1        0.0943
     46 N           4.6326   -1.1562   20.6014 N.ar    1  UNL1       -0.2448
@<TRIPOS>UNITY_ATOM_ATTR
31 1
charge -1
@<TRIPOS>BOND
     1    24    25    1
     2    25    23    1
     3    23    17    1
     4    17    18   ar
     5    18    19   ar
     6    19    20   ar
     7    20    11    1
     8    11    12   ar
     9    12    13   ar
    10    13    14   ar
    11    14    10    1
    12    10     1    1
    13     1     2   ar
    14     2    26    1
    15    26    27    1
    16    27    28    1
    17    27    29    1
    18    27    30    1
    19    30    31   ar
    20    30    32   ar
    21     2     3   ar
    22     3    33    1
    23    33    34    1
    24    34    35    1
    25    34    36    1
    26    34    37    1
    27     3     4   ar
    28     4     5   ar
    29     5     6   ar
    30     6    38    1
    31    38    39    1
    32    39    40    1
    33    40    41   ar
    34    41    42   ar
    35    42    43   ar
    36    43    44    1
    37    43    45   ar
    38    45    46   ar
    39     6     7   ar
    40     7     8   ar
    41     8     9   ar
    42    14    15   ar
    43    15    16   ar
    44    20    21   ar
    45    21    22   ar
    46    22    17   ar
    47    16    11   ar
    48     9     1   ar
    49     9     4   ar
    50    46    40   ar
@<TRIPOS>MOLECULE
*****
 46 50 0 0 0
SMALL
GASTEIGER

@<TRIPOS>ATOM
      1 N          -1.3319    3.6771   21.9837 N.ar    1  UNL1       -0.3260
      2 C          -2.5561    4.5409   22.0543 C.ar    1  UNL1        0.0433
      3 C          -3.0589    4.5177   23.4673 C.ar    1  UNL1        0.0383
      4 C          -2.1454    3.6395   24.2700 C.ar    1  UNL1        0.0256
      5 C          -2.1476    3.2458   25.7174 C.ar    1  UNL1        0.0389
      6 C          -1.0825    2.3326   26.2478 C.ar    1  UNL1        0.1392
      7 C          -0.0151    1.8130   25.3309 C.ar    1  UNL1        0.0384
      8 C          -0.0129    2.2067   23.8835 C.ar    1  UNL1        0.0203
      9 C          -1.0780    3.1199   23.3531 C.ar    1  UNL1        0.0606
     10 C          -0.5064    3.4161   20.7587 C.3     1  UNL1        0.1324
     11 C           2.4126   -0.0082   20.6999 C.ar    1  UNL1        0.0015
     12 C           0.9561   -0.2598   20.4450 C.ar    1  UNL1       -0.0002
     13 C          -0.0170    0.8816   20.4646 C.ar    1  UNL1       -0.0024
     14 C           0.4665    2.2747   20.7391 C.ar    1  UNL1        0.0004
     15 C           1.9232    2.5264   20.9941 C.ar    1  UNL1       -0.0024
     16 C           2.8962    1.3850   20.9745 C.ar    1  UNL1       -0.0002
     17 C           5.3318   -3.4323   20.6411 C.ar    1  UNL1        0.2249
     18 C           4.2426   -3.3576   19.6124 C.ar    1  UNL1        0.0577
     19 C           3.2695   -2.2163   19.6320 C.ar    1  UNL1        0.0063
     20 C           3.3857   -1.1495   20.6803 C.ar    1  UNL1        0.0194
     21 C           4.4749   -1.2243   21.7089 C.ar    1  UNL1        0.1020
     22 N           5.4480   -2.3657   21.6893 N.ar    1  UNL1       -0.2101
     23 O           6.3048   -4.5737   20.6215 O.3     1  UNL1       -0.4602
     24 C           8.5350   -3.3069   20.2075 C.3     1  UNL1        0.0512
     25 C           7.7464   -4.3363   20.9613 C.3     1  UNL1        0.2072
     26 C          -3.1699    5.2955   20.9124 C.3     1  UNL1        0.0495
     27 C          -3.4845    4.5871   19.6282 C.3     1  UNL1        0.0376
     28 C          -4.3142    3.5901   20.3815 C.3     1  UNL1        0.0059
     29 C          -2.6548    5.5841   18.8749 C.3     1  UNL1        0.0059
     30 C          -3.7993    3.8787   18.3440 C.2     1  UNL1        0.0500
     31 O          -5.1367    3.2260   18.1558 O.co2   1  UNL1       -0.5492
     32 O          -2.7766    3.8228   17.2481 O.co2   1  UNL1       -0.5492
     33 S          -4.2637    5.2450   23.9866 S.3     1  UNL1       -0.1142
     34 C          -5.6338    4.8618   23.5110 C.3     1  UNL1        0.0434
     35 C          -5.4261    3.4711   24.0334 C.3     1  UNL1        0.0112
     36 C          -5.8414    6.2524   22.9887 C.3     1  UNL1        0.0112
     37 C          -7.0038    4.4787   23.0355 C.3     1  UNL1        0.0112
     38 O          -1.0846    1.9388   27.6953 O.3     1  UNL1       -0.4690
     39 C          -0.5087    0.6187   28.1143 C.3     1  UNL1        0.2508
     40 C           0.5266    0.5622   29.1982 C.ar    1  UNL1        0.1026
     41 C           1.6574   -0.4189   29.1050 C.ar    1  UNL1        0.0181
     42 C           2.6927   -0.4754   30.1890 C.ar    1  UNL1       -0.0014
     43 C           2.5972    0.4493   31.3662 C.ar    1  UNL1       -0.0027
     44 C           3.6324    0.3928   32.4501 C.3     1  UNL1        0.0327
     45 C           1.4664    1.4305   31.4594 C.ar    1  UNL1        0.0943
     46 N           0.4311    1.4869   30.3755 N.ar    1  UNL1       -0.2448
@<TRIPOS>UNITY_ATOM_ATTR
31 1
charge -1
@<TRIPOS>BOND
     1    24    25    1
     2    25    23    1
     3    23    17    1
     4    17    18   ar
     5    18    19   ar
     6    19    20   ar
     7    20    11    1
     8    11    12   ar
     9    12    13   ar
    10    13    14   ar
    11    14    10    1
    12    10     1    1
    13     1     2   ar
    14     2    26    1
    15    26    27    1
    16    27    28    1
    17    27    29    1
    18    27    30    1
    19    30    31   ar
    20    30    32   ar
    21     2     3   ar
    22     3    33    1
    23    33    34    1
    24    34    35    1
    25    34    36    1
    26    34    37    1
    27     3     4   ar
    28     4     5   ar
    29     5     6   ar
    30     6    38    1
    31    38    39    1
    32    39    40    1
    33    40    41   ar
    34    41    42   ar
    35    42    43   ar
    36    43    44    1
    37    43    45   ar
    38    45    46   ar
    39     6     7   ar
    40     7     8   ar
    41     8     9   ar
    42    14    15   ar
    43    15    16   ar
    44    20    21   ar
    45    21    22   ar
    46    22    17   ar
    47    16    11   ar
    48     9     1   ar
    49     9     4   ar
    50    46    40   ar
@<TRIPOS>MOLECULE
*****
 46 50 0 0 0
SMALL
GASTEIGER

@<TRIPOS>ATOM
      1 N           3.2541   -0.5922   19.3217 N.ar    1  UNL1       -0.3260
      2 C           4.3086    0.1976   18.6046 C.ar    1  UNL1        0.0433
      3 C           3.8089    1.6032   18.4484 C.ar    1  UNL1        0.0383
      4 C           2.4455    1.6822   19.0689 C.ar    1  UNL1        0.0256
      5 C           1.4720    2.8143   19.2122 C.ar    1  UNL1        0.0389
      6 C           0.1556    2.5895   19.8953 C.ar    1  UNL1        0.1392
      7 C          -0.1872    1.2326   20.4350 C.ar    1  UNL1        0.0384
      8 C           0.7863    0.1005   20.2917 C.ar    1  UNL1        0.0203
      9 C           2.1026    0.3253   19.6086 C.ar    1  UNL1        0.0606
     10 C           3.3365   -2.0445   19.6876 C.3     1  UNL1        0.1324
     11 C           5.5156   -3.3052   23.4175 C.ar    1  UNL1        0.0015
     12 C           5.6592   -4.1067   22.1578 C.ar    1  UNL1       -0.0002
     13 C           4.9329   -3.6866   20.9145 C.ar    1  UNL1       -0.0024
     14 C           4.0629   -2.4648   20.9308 C.ar    1  UNL1        0.0004
     15 C           3.9192   -1.6632   22.1906 C.ar    1  UNL1       -0.0024
     16 C           4.6456   -2.0833   23.4339 C.ar    1  UNL1       -0.0002
     17 C           7.6946   -4.5657   27.1475 C.ar    1  UNL1        0.2249
     18 C           7.8597   -5.3517   25.8806 C.ar    1  UNL1        0.0577
     19 C           7.1334   -4.9315   24.6373 C.ar    1  UNL1        0.0063
     20 C           6.2419   -3.7253   24.6608 C.ar    1  UNL1        0.0194
     21 C           6.0768   -2.9394   25.9277 C.ar    1  UNL1        0.1020
     22 N           6.8032   -3.3595   27.1710 N.ar    1  UNL1       -0.2101
     23 O           8.4209   -4.9858   28.3908 O.3     1  UNL1       -0.4602
     24 C           6.9428   -5.6550   30.4199 C.3     1  UNL1        0.0512
     25 C           7.8366   -6.0434   29.2797 C.3     1  UNL1        0.2072
     26 C           5.6307   -0.3263   18.1274 C.3     1  UNL1        0.0495
     27 C           6.5885   -0.9445   19.1023 C.3     1  UNL1        0.0376
     28 C           6.4116    0.2287   20.0201 C.3     1  UNL1        0.0059
     29 C           6.7653   -2.1177   18.1846 C.3     1  UNL1        0.0059
     30 C           7.5463   -1.5627   20.0773 C.2     1  UNL1        0.0500
     31 O           7.6064   -1.0617   21.4898 O.co2   1  UNL1       -0.5492
     32 O           8.4439   -2.6820   19.6396 O.co2   1  UNL1       -0.5492
     33 S           4.5435    2.7319   17.7876 S.3     1  UNL1       -0.1142
     34 C           5.8096    3.2599   18.3945 C.3     1  UNL1        0.0434
     35 C           6.5674    2.8563   17.1646 C.3     1  UNL1        0.0112
     36 C           5.0516    3.6634   19.6244 C.3     1  UNL1        0.0112
     37 C           7.0756    3.7879   19.0015 C.3     1  UNL1        0.0112
     38 O          -0.8179    3.7217   20.0386 O.3     1  UNL1       -0.4690
     39 C          -2.2880    3.4391   20.1343 C.3     1  UNL1        0.2508
     40 C          -2.9830    3.5228   21.4609 C.ar    1  UNL1        0.1026
     41 C          -4.4206    3.1119   21.5817 C.ar    1  UNL1        0.0181
     42 C          -5.1156    3.1957   22.9084 C.ar    1  UNL1       -0.0014
     43 C          -4.3731    3.6903   24.1142 C.ar    1  UNL1       -0.0027
     44 C          -5.0681    3.7740   25.4408 C.3     1  UNL1        0.0327
     45 C          -2.9355    4.1012   23.9934 C.ar    1  UNL1        0.0943
     46 N          -2.2405    4.0174   22.6668 N.ar    1  UNL1       -0.2448
@<TRIPOS>UNITY_ATOM_ATTR
31 1
charge -1
@<TRIPOS>BOND
     1    24    25    1
     2    25    23    1
     3    23    17    1
     4    17    18   ar
     5    18    19   ar
     6    19    20   ar
     7    20    11    1
     8    11    12   ar
     9    12    13   ar
    10    13    14   ar
    11    14    10    1
    12    10     1    1
    13     1     2   ar
    14     2    26    1
    15    26    27    1
    16    27    28    1
    17    27    29    1
    18    27    30    1
    19    30    31   ar
    20    30    32   ar
    21     2     3   ar
    22     3    33    1
    23    33    34    1
    24    34    35    1
    25    34    36    1
    26    34    37    1
    27     3     4   ar
    28     4     5   ar
    29     5     6   ar
    30     6    38    1
    31    38    39    1
    32    39    40    1
    33    40    41   ar
    34    41    42   ar
    35    42    43   ar
    36    43    44    1
    37    43    45   ar
    38    45    46   ar
    39     6     7   ar
    40     7     8   ar
    41     8     9   ar
    42    14    15   ar
    43    15    16   ar
    44    20    21   ar
    45    21    22   ar
    46    22    17   ar
    47    16    11   ar
    48     9     1   ar
    49     9     4   ar
    50    46    40   ar
@<TRIPOS>MOLECULE
*****
 46 50 0 0 0
SMALL
GASTEIGER

@<TRIPOS>ATOM
      1 N           4.7910   -1.2618   30.7597 N.ar    1  UNL1       -0.3260
      2 C           5.0266   -0.4555   29.5169 C.ar    1  UNL1        0.0433
      3 C           6.2531   -0.9931   28.8413 C.ar    1  UNL1        0.0383
      4 C           6.7756   -2.1316   29.6664 C.ar    1  UNL1        0.0256
      5 C           7.9574   -3.0385   29.4913 C.ar    1  UNL1        0.0389
      6 C           8.2355   -4.1116   30.5019 C.ar    1  UNL1        0.1392
      7 C           7.3318   -4.2776   31.6875 C.ar    1  UNL1        0.0384
      8 C           6.1500   -3.3707   31.8626 C.ar    1  UNL1        0.0203
      9 C           5.8719   -2.2977   30.8521 C.ar    1  UNL1        0.0606
     10 C           3.6710   -1.0665   31.7382 C.3     1  UNL1        0.1324
     11 C           4.4925    0.7793   35.7592 C.ar    1  UNL1        0.0015
     12 C           3.7547    1.5599   34.7123 C.ar    1  UNL1       -0.0002
     13 C           3.4808    0.9447   33.3719 C.ar    1  UNL1       -0.0024
     14 C           3.9448   -0.4512   33.0785 C.ar    1  UNL1        0.0004
     15 C           4.6827   -1.2319   34.1255 C.ar    1  UNL1       -0.0024
     16 C           4.9566   -0.6167   35.4659 C.ar    1  UNL1       -0.0002
     17 C           5.3141    2.6249   39.7802 C.ar    1  UNL1        0.2249
     18 C           6.4087    2.5348   38.7586 C.ar    1  UNL1        0.0577
     19 C           6.1349    1.9196   37.4183 C.ar    1  UNL1        0.0063
     20 C           4.7664    1.3945   37.0996 C.ar    1  UNL1        0.0194
     21 C           3.6718    1.4845   38.1212 C.ar    1  UNL1        0.1020
     22 N           3.9456    2.0997   39.4615 N.ar    1  UNL1       -0.2101
     23 O           5.5879    3.2401   41.1206 O.3     1  UNL1       -0.4602
     24 C           5.0205    5.6740   40.4105 C.3     1  UNL1        0.0512
     25 C           5.0341    4.5942   41.4516 C.3     1  UNL1        0.2072
     26 C           4.1837    0.6877   29.0346 C.3     1  UNL1        0.0495
     27 C           2.7001    0.5181   28.8929 C.3     1  UNL1        0.0376
     28 C           2.9210   -0.6308   27.9543 C.3     1  UNL1        0.0059
     29 C           2.4791    1.6670   29.8316 C.3     1  UNL1        0.0059
     30 C           1.2164    0.3484   28.7513 C.2     1  UNL1        0.0500
     31 O           0.4234   -0.2751   29.8614 O.co2   1  UNL1       -0.5492
     32 O           0.5257    0.8023   27.4995 O.co2   1  UNL1       -0.5492
     33 S           6.8522   -0.4819   27.5646 S.3     1  UNL1       -0.1142
     34 C           7.3029   -1.4471   26.5084 C.3     1  UNL1        0.0434
     35 C           5.8890   -1.9168   26.3343 C.3     1  UNL1        0.0112
     36 C           8.7167   -0.9773   26.6825 C.3     1  UNL1        0.0112
     37 C           7.7536   -2.4121   25.4523 C.3     1  UNL1        0.0112
     38 O           9.4174   -5.0186   30.3268 O.3     1  UNL1       -0.4690
     39 C           9.2207   -6.4183   29.8247 C.3     1  UNL1        0.2508
     40 C           9.0219   -6.6684   28.3592 C.ar    1  UNL1        0.1026
     41 C           8.3824   -7.9438   27.8960 C.ar    1  UNL1        0.0181
     42 C           8.1836   -8.1938   26.4303 C.ar    1  UNL1       -0.0014
     43 C           8.6241   -7.1686   25.4280 C.ar    1  UNL1       -0.0027
     44 C           8.4253   -7.4187   23.9625 C.3     1  UNL1        0.0327
     45 C           9.2636   -5.8932   25.8912 C.ar    1  UNL1        0.0943
     46 N           9.4624   -5.6431   27.3568 N.ar    1  UNL1       -0.2448
@<TRIPOS>UNITY_ATOM_ATTR
31 1
charge -1
@<TRIPOS>BOND
     1    24    25    1
     2    25    23    1
     3    23    17    1
     4    17    18   ar
     5    18    19   ar
     6    19    20   ar
     7    20    11    1
     8    11    12   ar
     9    12    13   ar
    10    13    14   ar
    11    14    10    1
    12    10     1    1
    13     1     2   ar
    14     2    26    1
    15    26    27    1
    16    27    28    1
    17    27    29    1
    18    27    30    1
    19    30    31   ar
    20    30    32   ar
    21     2     3   ar
    22     3    33    1
    23    33    34    1
    24    34    35    1
    25    34    36    1
    26    34    37    1
    27     3     4   ar
    28     4     5   ar
    29     5     6   ar
    30     6    38    1
    31    38    39    1
    32    39    40    1
    33    40    41   ar
    34    41    42   ar
    35    42    43   ar
    36    43    44    1
    37    43    45   ar
    38    45    46   ar
    39     6     7   ar
    40     7     8   ar
    41     8     9   ar
    42    14    15   ar
    43    15    16   ar
    44    20    21   ar
    45    21    22   ar
    46    22    17   ar
    47    16    11   ar
    48     9     1   ar
    49     9     4   ar
    50    46    40   ar
@<TRIPOS>MOLECULE
*****
 46 50 0 0 0
SMALL
GASTEIGER

@<TRIPOS>ATOM
      1 N           3.9979   -0.9615   18.8516 N.ar    1  UNL1       -0.3260
      2 C           4.8394    0.1009   18.2088 C.ar    1  UNL1        0.0433
      3 C           4.1009    1.4024   18.3116 C.ar    1  UNL1        0.0383
      4 C           2.8030    1.1444   19.0179 C.ar    1  UNL1        0.0256
      5 C           1.6708    2.0510   19.4002 C.ar    1  UNL1        0.0389
      6 C           0.4751    1.4967   20.1163 C.ar    1  UNL1        0.1392
      7 C           0.4115    0.0357   20.4501 C.ar    1  UNL1        0.0384
      8 C           1.5436   -0.8710   20.0678 C.ar    1  UNL1        0.0203
      9 C           2.7393   -0.3166   19.3516 C.ar    1  UNL1        0.0606
     10 C           4.3527   -2.4139   18.9731 C.3     1  UNL1        0.1324
     11 C           6.2875   -3.9508   22.7340 C.ar    1  UNL1        0.0015
     12 C           4.8627   -3.4828   22.7608 C.ar    1  UNL1       -0.0002
     13 C           4.2177   -2.9705   21.5072 C.ar    1  UNL1       -0.0024
     14 C           4.9976   -2.9262   20.2267 C.ar    1  UNL1        0.0004
     15 C           6.4225   -3.3942   20.1999 C.ar    1  UNL1       -0.0024
     16 C           7.0675   -3.9065   21.4535 C.ar    1  UNL1       -0.0002
     17 C           8.2224   -5.4876   26.4949 C.ar    1  UNL1        0.2249
     18 C           8.4270   -6.2109   25.1967 C.ar    1  UNL1        0.0577
     19 C           7.7820   -5.6986   23.9431 C.ar    1  UNL1        0.0063
     20 C           6.9325   -4.4630   23.9876 C.ar    1  UNL1        0.0194
     21 C           6.7279   -3.7399   25.2858 C.ar    1  UNL1        0.1020
     22 N           7.3729   -4.2522   26.5394 N.ar    1  UNL1       -0.2101
     23 O           8.8673   -5.9999   27.7485 O.3     1  UNL1       -0.4602
     24 C           7.2967   -5.8888   29.8151 C.3     1  UNL1        0.0512
     25 C           8.0386   -6.6930   28.7890 C.3     1  UNL1        0.2072
     26 C           6.1834   -0.1026   17.5746 C.3     1  UNL1        0.0495
     27 C           7.3731    0.6605   18.0770 C.3     1  UNL1        0.0376
     28 C           7.5653    1.2579   16.7147 C.3     1  UNL1        0.0059
     29 C           7.1808    0.0631   19.4394 C.3     1  UNL1        0.0059
     30 C           8.5628    1.4236   18.5795 C.2     1  UNL1        0.0500
     31 O           9.0345    1.2333   19.9906 O.co2   1  UNL1       -0.5492
     32 O           9.2806    2.3769   17.6708 O.co2   1  UNL1       -0.5492
     33 S           4.5767    2.7290   17.7981 S.3     1  UNL1       -0.1142
     34 C           4.4588    3.9523   18.6584 C.3     1  UNL1        0.0434
     35 C           3.5019    4.5536   17.6722 C.3     1  UNL1        0.0112
     36 C           5.4157    3.3508   19.6446 C.3     1  UNL1        0.0112
     37 C           4.3410    5.1754   19.5187 C.3     1  UNL1        0.0112
     38 O          -0.6571    2.4034   20.4987 O.3     1  UNL1       -0.4690
     39 C          -0.4845    3.3882   21.6169 C.3     1  UNL1        0.2508
     40 C          -0.5608    2.9259   23.0418 C.ar    1  UNL1        0.1026
     41 C           0.4254    1.9205   23.5581 C.ar    1  UNL1        0.0181
     42 C           0.3490    1.4583   24.9831 C.ar    1  UNL1       -0.0014
     43 C          -0.7136    2.0015   25.8918 C.ar    1  UNL1       -0.0027
     44 C          -0.7900    1.5392   27.3167 C.3     1  UNL1        0.0327
     45 C          -1.6998    3.0069   25.3756 C.ar    1  UNL1        0.0943
     46 N          -1.6235    3.4691   23.9506 N.ar    1  UNL1       -0.2448
@<TRIPOS>UNITY_ATOM_ATTR
31 1
charge -1
@<TRIPOS>BOND
     1    24    25    1
     2    25    23    1
     3    23    17    1
     4    17    18   ar
     5    18    19   ar
     6    19    20   ar
     7    20    11    1
     8    11    12   ar
     9    12    13   ar
    10    13    14   ar
    11    14    10    1
    12    10     1    1
    13     1     2   ar
    14     2    26    1
    15    26    27    1
    16    27    28    1
    17    27    29    1
    18    27    30    1
    19    30    31   ar
    20    30    32   ar
    21     2     3   ar
    22     3    33    1
    23    33    34    1
    24    34    35    1
    25    34    36    1
    26    34    37    1
    27     3     4   ar
    28     4     5   ar
    29     5     6   ar
    30     6    38    1
    31    38    39    1
    32    39    40    1
    33    40    41   ar
    34    41    42   ar
    35    42    43   ar
    36    43    44    1
    37    43    45   ar
    38    45    46   ar
    39     6     7   ar
    40     7     8   ar
    41     8     9   ar
    42    14    15   ar
    43    15    16   ar
    44    20    21   ar
    45    21    22   ar
    46    22    17   ar
    47    16    11   ar
    48     9     1   ar
    49     9     4   ar
    50    46    40   ar
