@<TRIPOS>MOLECULE
*****
 25 27 0 0 0
SMALL
GASTEIGER

@<TRIPOS>ATOM
      1 C          -8.6744  -17.1740   24.2007 C.ar    1  UNL1        0.0366
      2 C          -8.8367  -16.5804   25.5686 C.ar    1  UNL1        0.0074
      3 C          -7.7859  -15.6610   26.1166 C.ar    1  UNL1        0.0345
      4 BR         -7.9481  -15.0673   27.4846 Br      1  UNL1       -0.0490
      5 C          -6.5728  -15.3352   25.2967 C.ar    1  UNL1        0.0098
      6 C          -6.4105  -15.9288   23.9288 C.ar    1  UNL1        0.0372
      7 C          -7.4613  -16.8482   23.3808 C.ar    1  UNL1        0.1369
      8 C          -9.7253  -18.0935   23.6526 C.3     1  UNL1        0.1564
      9 C         -10.9665  -20.3201   21.6152 C.3     1  UNL1        0.0518
     10 C         -10.9089  -18.8405   21.3753 C.ar    1  UNL1        0.0579
     11 C         -11.4117  -18.1247   20.1568 C.ar    1  UNL1        0.0363
     12 C         -11.1519  -16.6588   20.3402 C.ar    1  UNL1        0.1160
     13 N         -10.4885  -16.4687   21.6720 N.ar    1  UNL1       -0.1681
     14 N         -10.3384  -17.8171   22.3118 N.ar    1  UNL1       -0.2503
     15 C         -11.4952  -15.5735   19.3633 C.2     1  UNL1        0.0922
     16 O         -12.9208  -15.3617   18.9480 O.co2   1  UNL1       -0.5430
     17 O         -10.4126  -14.7002   18.8017 O.co2   1  UNL1       -0.5430
     18 O          -7.2991  -17.4419   22.0128 O.3     1  UNL1       -0.4709
     19 C          -6.8763  -18.8731   21.8617 C.3     1  UNL1        0.2320
     20 C          -5.4440  -19.2047   21.5643 C.ar    1  UNL1        0.0212
     21 C          -4.3558  -18.7084   22.4695 C.ar    1  UNL1       -0.0007
     22 C          -2.9234  -19.0400   22.1720 C.ar    1  UNL1       -0.0002
     23 C          -2.5793  -19.8680   20.9695 C.ar    1  UNL1       -0.0000
     24 C          -3.6676  -20.3643   20.0644 C.ar    1  UNL1       -0.0002
     25 C          -5.0999  -20.0327   20.3618 C.ar    1  UNL1       -0.0007
@<TRIPOS>UNITY_ATOM_ATTR
16 1
charge -1
@<TRIPOS>BOND
     1     9    10    1
     2    10    11   ar
     3    11    12   ar
     4    12    15    1
     5    15    16   ar
     6    15    17   ar
     7    12    13   ar
     8    13    14   ar
     9    14     8    1
    10     8     1    1
    11     1     2   ar
    12     2     3   ar
    13     3     4    1
    14     3     5   ar
    15     5     6   ar
    16     6     7   ar
    17     7    18    1
    18    18    19    1
    19    19    20    1
    20    20    21   ar
    21    21    22   ar
    22    22    23   ar
    23    23    24   ar
    24    24    25   ar
    25    14    10   ar
    26     7     1   ar
    27    25    20   ar
@<TRIPOS>MOLECULE
*****
 25 27 0 0 0
SMALL
GASTEIGER

@<TRIPOS>ATOM
      1 C          -6.9446  -15.4762   24.0194 C.ar    1  UNL1        0.0366
      2 C          -7.9799  -15.2713   25.0853 C.ar    1  UNL1        0.0074
      3 C          -7.5933  -15.3550   26.5322 C.ar    1  UNL1        0.0345
      4 BR         -8.6286  -15.1501   27.5982 Br      1  UNL1       -0.0490
      5 C          -6.1715  -15.6436   26.9131 C.ar    1  UNL1        0.0098
      6 C          -5.1362  -15.8485   25.8472 C.ar    1  UNL1        0.0372
      7 C          -5.5228  -15.7648   24.4003 C.ar    1  UNL1        0.1369
      8 C          -7.3312  -15.3925   22.5724 C.3     1  UNL1        0.1564
      9 C          -7.2987  -18.6429   22.2836 C.3     1  UNL1        0.0518
     10 C          -8.4341  -17.7359   21.9116 C.ar    1  UNL1        0.0579
     11 C          -9.7540  -18.1639   21.3416 C.ar    1  UNL1        0.0363
     12 C         -10.5846  -16.9343   21.1221 C.ar    1  UNL1        0.1160
     13 N          -9.7781  -15.7465   21.5564 N.ar    1  UNL1       -0.1681
     14 N          -8.4490  -16.2419   22.0444 N.ar    1  UNL1       -0.2503
     15 C         -11.9772  -16.8988   20.5659 C.2     1  UNL1        0.0922
     16 O         -13.0430  -17.7739   21.1559 O.co2   1  UNL1       -0.5430
     17 O         -12.3039  -15.9880   19.4197 O.co2   1  UNL1       -0.5430
     18 O          -4.4875  -15.9697   23.3343 O.3     1  UNL1       -0.4709
     19 C          -3.7665  -17.2810   23.2312 C.3     1  UNL1        0.2320
     20 C          -2.8152  -17.5268   22.0979 C.ar    1  UNL1        0.0212
     21 C          -1.9631  -16.4072   21.5777 C.ar    1  UNL1       -0.0007
     22 C          -1.0118  -16.6530   20.4443 C.ar    1  UNL1       -0.0002
     23 C          -0.9124  -18.0183   19.8311 C.ar    1  UNL1       -0.0000
     24 C          -1.7645  -19.1379   20.3513 C.ar    1  UNL1       -0.0002
     25 C          -2.7158  -18.8922   21.4847 C.ar    1  UNL1       -0.0007
@<TRIPOS>UNITY_ATOM_ATTR
16 1
charge -1
@<TRIPOS>BOND
     1     9    10    1
     2    10    11   ar
     3    11    12   ar
     4    12    15    1
     5    15    16   ar
     6    15    17   ar
     7    12    13   ar
     8    13    14   ar
     9    14     8    1
    10     8     1    1
    11     1     2   ar
    12     2     3   ar
    13     3     4    1
    14     3     5   ar
    15     5     6   ar
    16     6     7   ar
    17     7    18    1
    18    18    19    1
    19    19    20    1
    20    20    21   ar
    21    21    22   ar
    22    22    23   ar
    23    23    24   ar
    24    24    25   ar
    25    14    10   ar
    26     7     1   ar
    27    25    20   ar
@<TRIPOS>MOLECULE
*****
 25 27 0 0 0
SMALL
GASTEIGER

@<TRIPOS>ATOM
      1 C          -8.6757  -17.2887   23.8301 C.ar    1  UNL1        0.0366
      2 C          -8.8987  -16.7617   25.2166 C.ar    1  UNL1        0.0074
      3 C          -7.9195  -15.7986   25.8194 C.ar    1  UNL1        0.0345
      4 BR         -8.1424  -15.2716   27.2060 Br      1  UNL1       -0.0490
      5 C          -6.7172  -15.3624   25.0356 C.ar    1  UNL1        0.0098
      6 C          -6.4942  -15.8893   23.6490 C.ar    1  UNL1        0.0372
      7 C          -7.4734  -16.8525   23.0463 C.ar    1  UNL1        0.1369
      8 C          -9.6550  -18.2519   23.2272 C.3     1  UNL1        0.1564
      9 C         -11.4695  -16.1674   21.4916 C.3     1  UNL1        0.0518
     10 C         -11.9626  -17.0634   22.5890 C.ar    1  UNL1        0.0579
     11 C         -13.3764  -17.1585   23.0811 C.ar    1  UNL1        0.0363
     12 C         -13.4161  -18.1753   24.1831 C.ar    1  UNL1        0.1160
     13 N         -12.0269  -18.7087   24.3720 N.ar    1  UNL1       -0.1681
     14 N         -11.1286  -18.0215   23.3867 N.ar    1  UNL1       -0.2503
     15 C         -14.6316  -18.5867   24.9599 C.2     1  UNL1        0.0922
     16 O         -15.9234  -18.8530   24.2457 O.co2   1  UNL1       -0.5430
     17 O         -14.5551  -18.7316   26.4509 O.co2   1  UNL1       -0.5430
     18 O          -7.2505  -17.3795   21.6597 O.3     1  UNL1       -0.4709
     19 C          -6.7978  -18.7954   21.4593 C.3     1  UNL1        0.2320
     20 C          -5.3362  -19.1031   21.3213 C.ar    1  UNL1        0.0212
     21 C          -4.3889  -18.7577   22.4318 C.ar    1  UNL1       -0.0007
     22 C          -2.9273  -19.0654   22.2938 C.ar    1  UNL1       -0.0002
     23 C          -2.4130  -19.7186   21.0453 C.ar    1  UNL1       -0.0000
     24 C          -3.3603  -20.0640   19.9348 C.ar    1  UNL1       -0.0002
     25 C          -4.8218  -19.7563   20.0727 C.ar    1  UNL1       -0.0007
@<TRIPOS>UNITY_ATOM_ATTR
16 1
charge -1
@<TRIPOS>BOND
     1     9    10    1
     2    10    11   ar
     3    11    12   ar
     4    12    15    1
     5    15    16   ar
     6    15    17   ar
     7    12    13   ar
     8    13    14   ar
     9    14     8    1
    10     8     1    1
    11     1     2   ar
    12     2     3   ar
    13     3     4    1
    14     3     5   ar
    15     5     6   ar
    16     6     7   ar
    17     7    18    1
    18    18    19    1
    19    19    20    1
    20    20    21   ar
    21    21    22   ar
    22    22    23   ar
    23    23    24   ar
    24    24    25   ar
    25    14    10   ar
    26     7     1   ar
    27    25    20   ar
@<TRIPOS>MOLECULE
*****
 25 27 0 0 0
SMALL
GASTEIGER

@<TRIPOS>ATOM
      1 C         -10.1155  -18.1065   23.0006 C.ar    1  UNL1        0.0366
      2 C         -11.4371  -18.5729   23.5354 C.ar    1  UNL1        0.0074
      3 C         -12.6406  -17.6826   23.4411 C.ar    1  UNL1        0.0345
      4 BR        -13.9622  -18.1489   23.9759 Br      1  UNL1       -0.0490
      5 C         -12.5225  -16.3260   22.8121 C.ar    1  UNL1        0.0098
      6 C         -11.2010  -15.8596   22.2774 C.ar    1  UNL1        0.0372
      7 C          -9.9975  -16.7499   22.3717 C.ar    1  UNL1        0.1369
      8 C          -8.9119  -18.9968   23.0949 C.3     1  UNL1        0.1564
      9 C          -9.9085  -19.6229   20.0511 C.3     1  UNL1        0.0518
     10 C          -8.4847  -19.4779   20.5005 C.ar    1  UNL1        0.0579
     11 C          -7.2690  -19.5953   19.6296 C.ar    1  UNL1        0.0363
     12 C          -6.0596  -19.3801   20.4904 C.ar    1  UNL1        0.1160
     13 N          -6.5279  -19.1297   21.8933 N.ar    1  UNL1       -0.1681
     14 N          -8.0267  -19.1901   21.8995 N.ar    1  UNL1       -0.2503
     15 C          -4.6326  -19.4099   20.0293 C.2     1  UNL1        0.0922
     16 O          -3.9306  -20.7229   19.8473 O.co2   1  UNL1       -0.5430
     17 O          -3.9076  -18.1267   19.7503 O.co2   1  UNL1       -0.5430
     18 O          -8.6759  -16.2835   21.8369 O.3     1  UNL1       -0.4709
     19 C          -7.9453  -15.1630   22.5157 C.3     1  UNL1        0.2320
     20 C          -7.5016  -15.3117   23.9408 C.ar    1  UNL1        0.0212
     21 C          -6.0390  -15.3672   24.2690 C.ar    1  UNL1       -0.0007
     22 C          -5.5953  -15.5159   25.6942 C.ar    1  UNL1       -0.0002
     23 C          -6.6142  -15.6090   26.7911 C.ar    1  UNL1       -0.0000
     24 C          -8.0768  -15.5535   26.4629 C.ar    1  UNL1       -0.0002
     25 C          -8.5205  -15.4048   25.0378 C.ar    1  UNL1       -0.0007
@<TRIPOS>UNITY_ATOM_ATTR
16 1
charge -1
@<TRIPOS>BOND
     1     9    10    1
     2    10    11   ar
     3    11    12   ar
     4    12    15    1
     5    15    16   ar
     6    15    17   ar
     7    12    13   ar
     8    13    14   ar
     9    14     8    1
    10     8     1    1
    11     1     2   ar
    12     2     3   ar
    13     3     4    1
    14     3     5   ar
    15     5     6   ar
    16     6     7   ar
    17     7    18    1
    18    18    19    1
    19    19    20    1
    20    20    21   ar
    21    21    22   ar
    22    22    23   ar
    23    23    24   ar
    24    24    25   ar
    25    14    10   ar
    26     7     1   ar
    27    25    20   ar
@<TRIPOS>MOLECULE
*****
 25 27 0 0 0
SMALL
GASTEIGER

@<TRIPOS>ATOM
      1 C          -8.4409  -17.7030   23.3377 C.ar    1  UNL1        0.0366
      2 C          -8.1295  -16.5733   24.2740 C.ar    1  UNL1        0.0074
      3 C          -8.6430  -16.6038   25.6830 C.ar    1  UNL1        0.0345
      4 BR         -8.3316  -15.4741   26.6195 Br      1  UNL1       -0.0490
      5 C          -9.4679  -17.7640   26.1557 C.ar    1  UNL1        0.0098
      6 C          -9.7793  -18.8937   25.2194 C.ar    1  UNL1        0.0372
      7 C          -9.2658  -18.8632   23.8104 C.ar    1  UNL1        0.1369
      8 C          -7.9275  -17.6725   21.9286 C.3     1  UNL1        0.1564
      9 C          -7.5688  -19.9461   19.6153 C.3     1  UNL1        0.0518
     10 C          -6.4877  -19.4267   20.5161 C.ar    1  UNL1        0.0579
     11 C          -5.0520  -19.8612   20.5118 C.ar    1  UNL1        0.0363
     12 C          -4.3296  -19.0846   21.5725 C.ar    1  UNL1        0.1160
     13 N          -5.3188  -18.1702   22.2323 N.ar    1  UNL1       -0.1681
     14 N          -6.6526  -18.3816   21.5795 N.ar    1  UNL1       -0.2503
     15 C          -2.8736  -19.2018   21.9135 C.2     1  UNL1        0.0922
     16 O          -2.0797  -20.3748   21.4197 O.co2   1  UNL1       -0.5430
     17 O          -2.2115  -18.1459   22.7482 O.co2   1  UNL1       -0.5430
     18 O          -9.5772  -19.9930   22.8740 O.3     1  UNL1       -0.4709
     19 C         -10.8300  -19.9602   22.0497 C.3     1  UNL1        0.2320
     20 C         -11.3214  -18.6611   21.4833 C.ar    1  UNL1        0.0212
     21 C         -10.9504  -18.2645   20.0850 C.ar    1  UNL1       -0.0007
     22 C         -11.4418  -16.9654   19.5186 C.ar    1  UNL1       -0.0002
     23 C         -12.3041  -16.0629   20.3504 C.ar    1  UNL1       -0.0000
     24 C         -12.6751  -16.4595   21.7486 C.ar    1  UNL1       -0.0002
     25 C         -12.1837  -17.7586   22.3151 C.ar    1  UNL1       -0.0007
@<TRIPOS>UNITY_ATOM_ATTR
16 1
charge -1
@<TRIPOS>BOND
     1     9    10    1
     2    10    11   ar
     3    11    12   ar
     4    12    15    1
     5    15    16   ar
     6    15    17   ar
     7    12    13   ar
     8    13    14   ar
     9    14     8    1
    10     8     1    1
    11     1     2   ar
    12     2     3   ar
    13     3     4    1
    14     3     5   ar
    15     5     6   ar
    16     6     7   ar
    17     7    18    1
    18    18    19    1
    19    19    20    1
    20    20    21   ar
    21    21    22   ar
    22    22    23   ar
    23    23    24   ar
    24    24    25   ar
    25    14    10   ar
    26     7     1   ar
    27    25    20   ar
@<TRIPOS>MOLECULE
*****
 25 27 0 0 0
SMALL
GASTEIGER

@<TRIPOS>ATOM
      1 C          -6.5201  -17.9052   22.7059 C.ar    1  UNL1        0.0366
      2 C          -5.8265  -17.1162   23.7766 C.ar    1  UNL1        0.0074
      3 C          -6.3438  -15.7629   24.1651 C.ar    1  UNL1        0.0345
      4 BR         -5.6502  -14.9739   25.2359 Br      1  UNL1       -0.0490
      5 C          -7.5547  -15.1986   23.4829 C.ar    1  UNL1        0.0098
      6 C          -8.2482  -15.9876   22.4122 C.ar    1  UNL1        0.0372
      7 C          -7.7309  -17.3409   22.0237 C.ar    1  UNL1        0.1369
      8 C          -6.0028  -19.2586   22.3174 C.3     1  UNL1        0.1564
      9 C          -5.8436  -21.4854   19.9372 C.3     1  UNL1        0.0518
     10 C          -4.8391  -20.4029   20.2004 C.ar    1  UNL1        0.0579
     11 C          -3.5852  -20.1540   19.4158 C.ar    1  UNL1        0.0363
     12 C          -2.8834  -18.9765   20.0249 C.ar    1  UNL1        0.1160
     13 N          -3.7036  -18.4978   21.1860 N.ar    1  UNL1       -0.1681
     14 N          -4.9123  -19.3793   21.2945 N.ar    1  UNL1       -0.2503
     15 C          -1.5887  -18.3821   19.5554 C.2     1  UNL1        0.0922
     16 O          -0.4405  -18.2367   20.5096 O.co2   1  UNL1       -0.5430
     17 O          -1.4423  -17.9331   18.1317 O.co2   1  UNL1       -0.5430
     18 O          -8.4245  -18.1299   20.9530 O.3     1  UNL1       -0.4709
     19 C          -9.4602  -19.1495   21.3245 C.3     1  UNL1        0.2320
     20 C         -10.7200  -18.7209   22.0167 C.ar    1  UNL1        0.0212
     21 C         -11.8376  -18.1062   21.2274 C.ar    1  UNL1       -0.0007
     22 C         -13.0975  -17.6777   21.9198 C.ar    1  UNL1       -0.0002
     23 C         -13.2396  -17.8639   23.4013 C.ar    1  UNL1       -0.0000
     24 C         -12.1219  -18.4786   24.1906 C.ar    1  UNL1       -0.0002
     25 C         -10.8621  -18.9071   23.4984 C.ar    1  UNL1       -0.0007
@<TRIPOS>UNITY_ATOM_ATTR
16 1
charge -1
@<TRIPOS>BOND
     1     9    10    1
     2    10    11   ar
     3    11    12   ar
     4    12    15    1
     5    15    16   ar
     6    15    17   ar
     7    12    13   ar
     8    13    14   ar
     9    14     8    1
    10     8     1    1
    11     1     2   ar
    12     2     3   ar
    13     3     4    1
    14     3     5   ar
    15     5     6   ar
    16     6     7   ar
    17     7    18    1
    18    18    19    1
    19    19    20    1
    20    20    21   ar
    21    21    22   ar
    22    22    23   ar
    23    23    24   ar
    24    24    25   ar
    25    14    10   ar
    26     7     1   ar
    27    25    20   ar
@<TRIPOS>MOLECULE
*****
 25 27 0 0 0
SMALL
GASTEIGER

@<TRIPOS>ATOM
      1 C          -8.1809  -17.4554   23.7948 C.ar    1  UNL1        0.0366
      2 C          -7.9727  -16.3527   24.7900 C.ar    1  UNL1        0.0074
      3 C          -8.6408  -16.4171   26.1314 C.ar    1  UNL1        0.0345
      4 BR         -8.4326  -15.3144   27.1268 Br      1  UNL1       -0.0490
      5 C          -9.5171  -17.5843   26.4776 C.ar    1  UNL1        0.0098
      6 C          -9.7254  -18.6870   25.4823 C.ar    1  UNL1        0.0372
      7 C          -9.0573  -18.6226   24.1409 C.ar    1  UNL1        0.1369
      8 C          -7.5128  -17.3910   22.4533 C.3     1  UNL1        0.1564
      9 C          -4.9038  -16.2424   24.0417 C.3     1  UNL1        0.0518
     10 C          -4.9020  -17.3450   23.0246 C.ar    1  UNL1        0.0579
     11 C          -3.7006  -18.1131   22.5592 C.ar    1  UNL1        0.0363
     12 C          -4.1574  -19.1158   21.5414 C.ar    1  UNL1        0.1160
     13 N          -5.6410  -18.9674   21.3778 N.ar    1  UNL1       -0.1681
     14 N          -6.1012  -17.8729   22.2945 N.ar    1  UNL1       -0.2503
     15 C          -3.2839  -20.0951   20.8147 C.2     1  UNL1        0.0922
     16 O          -1.8608  -20.2938   21.2450 O.co2   1  UNL1       -0.5430
     17 O          -3.8336  -20.8756   19.6577 O.co2   1  UNL1       -0.5430
     18 O          -9.2655  -19.7253   23.1456 O.3     1  UNL1       -0.4709
     19 C         -10.5540  -19.8136   22.3827 C.3     1  UNL1        0.2320
     20 C         -11.1354  -18.5853   21.7479 C.ar    1  UNL1        0.0212
     21 C         -12.0741  -17.7116   22.5261 C.ar    1  UNL1       -0.0007
     22 C         -12.6556  -16.4832   21.8913 C.ar    1  UNL1       -0.0002
     23 C         -12.2984  -16.1285   20.4783 C.ar    1  UNL1       -0.0000
     24 C         -11.3598  -17.0022   19.7001 C.ar    1  UNL1       -0.0002
     25 C         -10.7783  -18.2305   20.3348 C.ar    1  UNL1       -0.0007
@<TRIPOS>UNITY_ATOM_ATTR
16 1
charge -1
@<TRIPOS>BOND
     1     9    10    1
     2    10    11   ar
     3    11    12   ar
     4    12    15    1
     5    15    16   ar
     6    15    17   ar
     7    12    13   ar
     8    13    14   ar
     9    14     8    1
    10     8     1    1
    11     1     2   ar
    12     2     3   ar
    13     3     4    1
    14     3     5   ar
    15     5     6   ar
    16     6     7   ar
    17     7    18    1
    18    18    19    1
    19    19    20    1
    20    20    21   ar
    21    21    22   ar
    22    22    23   ar
    23    23    24   ar
    24    24    25   ar
    25    14    10   ar
    26     7     1   ar
    27    25    20   ar
@<TRIPOS>MOLECULE
*****
 25 27 0 0 0
SMALL
GASTEIGER

@<TRIPOS>ATOM
      1 C          -7.8123  -16.7201   24.0744 C.ar    1  UNL1        0.0366
      2 C          -6.6258  -15.9187   24.5215 C.ar    1  UNL1        0.0074
      3 C          -6.5509  -15.4122   25.9314 C.ar    1  UNL1        0.0345
      4 BR         -5.3644  -14.6108   26.3785 Br      1  UNL1       -0.0490
      5 C          -7.6626  -15.7072   26.8942 C.ar    1  UNL1        0.0098
      6 C          -8.8492  -16.5086   26.4472 C.ar    1  UNL1        0.0372
      7 C          -8.9240  -17.0150   25.0373 C.ar    1  UNL1        0.1369
      8 C          -7.8872  -17.2265   22.6645 C.3     1  UNL1        0.1564
      9 C          -8.6696  -20.3832   22.9348 C.3     1  UNL1        0.0518
     10 C          -7.3956  -19.8365   22.3620 C.ar    1  UNL1        0.0579
     11 C          -6.2576  -20.6449   21.8128 C.ar    1  UNL1        0.0363
     12 C          -5.1946  -19.6935   21.3492 C.ar    1  UNL1        0.1160
     13 N          -5.6757  -18.2972   21.6118 N.ar    1  UNL1       -0.1681
     14 N          -7.0360  -18.3856   22.2377 N.ar    1  UNL1       -0.2503
     15 C          -3.8812  -20.0720   20.7314 C.2     1  UNL1        0.0922
     16 O          -2.6211  -19.9929   21.5411 O.co2   1  UNL1       -0.5430
     17 O          -3.8281  -20.5295   19.3039 O.co2   1  UNL1       -0.5430
     18 O         -10.1106  -17.8165   24.5902 O.3     1  UNL1       -0.4709
     19 C         -11.2248  -17.1510   23.8382 C.3     1  UNL1        0.2320
     20 C         -11.2676  -17.2242   22.3407 C.ar    1  UNL1        0.0212
     21 C         -11.3515  -15.9647   21.5303 C.ar    1  UNL1       -0.0007
     22 C         -11.3943  -16.0380   20.0326 C.ar    1  UNL1       -0.0002
     23 C         -11.3530  -17.3707   19.3454 C.ar    1  UNL1       -0.0000
     24 C         -11.2690  -18.6301   20.1558 C.ar    1  UNL1       -0.0002
     25 C         -11.2263  -18.5569   21.6534 C.ar    1  UNL1       -0.0007
@<TRIPOS>UNITY_ATOM_ATTR
16 1
charge -1
@<TRIPOS>BOND
     1     9    10    1
     2    10    11   ar
     3    11    12   ar
     4    12    15    1
     5    15    16   ar
     6    15    17   ar
     7    12    13   ar
     8    13    14   ar
     9    14     8    1
    10     8     1    1
    11     1     2   ar
    12     2     3   ar
    13     3     4    1
    14     3     5   ar
    15     5     6   ar
    16     6     7   ar
    17     7    18    1
    18    18    19    1
    19    19    20    1
    20    20    21   ar
    21    21    22   ar
    22    22    23   ar
    23    23    24   ar
    24    24    25   ar
    25    14    10   ar
    26     7     1   ar
    27    25    20   ar
