@<TRIPOS>MOLECULE
*****
 38 40 0 0 0
SMALL
GASTEIGER

@<TRIPOS>ATOM
      1 C           6.5861   -2.7748   25.6982 C.2     1  UNL1        0.2485
      2 O           7.3010   -1.6102   25.0793 O.2     1  UNL1       -0.2726
      3 N           5.5642   -3.5348   24.9057 N.am    1  UNL1       -0.2823
      4 H           5.0951   -4.2991   25.3118 H       1  UNL1        0.1549
      5 C           9.5357   -6.0771   26.5012 C.3     1  UNL1        0.0948
      6 C           8.5525   -4.9763   26.2335 C.2     1  UNL1        0.2267
      7 O           8.2454   -4.5718   24.8221 O.2     1  UNL1       -0.2748
      8 N           7.8764   -4.2800   27.3773 N.am    1  UNL1       -0.2693
      9 C           8.1835   -4.6845   28.7887 C.3     1  UNL1        0.0988
     10 C           7.5075   -3.9883   29.9324 C.3     1  UNL1        0.0476
     11 C           6.5243   -2.8874   29.6647 C.ar    1  UNL1       -0.0211
     12 C           5.8482   -2.1912   30.8085 C.ar    1  UNL1        0.0139
     13 C           4.8650   -1.0905   30.5408 C.ar    1  UNL1        0.1054
     14 C           4.5579   -0.6860   29.1294 C.ar    1  UNL1        0.0181
     15 C           5.2340   -1.3822   27.9856 C.ar    1  UNL1       -0.0012
     16 C           6.2171   -2.4830   28.2533 C.ar    1  UNL1        0.0007
     17 C           6.8932   -3.1793   27.1096 C.3     1  UNL1        0.1748
     18 S           4.1889   -0.3941   31.6845 S.O2    1  UNL1        0.0104
     19 C           3.5128    0.3021   32.8282 C.3     1  UNL1        0.1816
     20 O           4.8851    0.8831   31.3186 O.2     1  UNL1       -0.1686
     21 O           3.4927   -1.6713   32.0505 O.2     1  UNL1       -0.1686
     22 C           5.2571   -3.1303   23.4943 C.ar    1  UNL1        0.0503
     23 C           4.1815   -2.1214   23.2204 C.ar    1  UNL1        0.0144
     24 C           3.8744   -1.7169   21.8090 C.ar    1  UNL1       -0.0002
     25 C           4.6429   -2.3213   20.6714 C.ar    1  UNL1        0.0182
     26 C           5.7186   -3.3303   20.9453 C.ar    1  UNL1       -0.0002
     27 C           6.0257   -3.7347   22.3567 C.ar    1  UNL1        0.0144
     28 C           4.3358   -1.9168   19.2600 C.3     1  UNL1        0.2827
     29 O           5.0188   -0.6010   19.4885 O.3     1  UNL1       -0.3692
     30 H           4.7194   -0.2231   20.3302 H       1  UNL1        0.2112
     31 C           4.0286   -1.5123   17.8486 C.3     1  UNL1        0.4311
     32 F           3.7215   -1.1078   16.4372 F       1  UNL1       -0.1669
     33 F           2.8876   -0.6707   18.3381 F       1  UNL1       -0.1669
     34 F           4.6753   -1.9765   17.4601 F       1  UNL1       -0.1669
     35 C           3.6528   -3.2326   19.0316 C.3     1  UNL1        0.4311
     36 F           2.9697   -4.5484   18.8031 F       1  UNL1       -0.1669
     37 F           2.8684   -3.0085   19.3766 F       1  UNL1       -0.1669
     38 F           4.7047   -4.0788   18.3779 F       1  UNL1       -0.1669
@<TRIPOS>BOND
     1     5     6    1
     2     6     7    2
     3     6     8   am
     4     8     9    1
     5     9    10    1
     6    10    11    1
     7    11    12   ar
     8    12    13   ar
     9    13    18    1
    10    18    19    1
    11    18    20    2
    12    18    21    2
    13    13    14   ar
    14    14    15   ar
    15    15    16   ar
    16    16    17    1
    17    17     1    1
    18     1     2    2
    19     1     3   am
    20     3    22    1
    21    22    23   ar
    22    23    24   ar
    23    24    25   ar
    24    25    28    1
    25    28    29    1
    26    28    31    1
    27    31    32    1
    28    31    33    1
    29    31    34    1
    30    28    35    1
    31    35    36    1
    32    35    37    1
    33    35    38    1
    34    25    26   ar
    35    26    27   ar
    36    17     8    1
    37    27    22   ar
    38    16    11   ar
    39     3     4    1
    40    29    30    1
@<TRIPOS>MOLECULE
*****
 38 40 0 0 0
SMALL
GASTEIGER

@<TRIPOS>ATOM
      1 C          -0.4492    2.8611   20.2051 C.2     1  UNL1        0.2485
      2 O           0.8684    3.5651   20.3413 O.2     1  UNL1       -0.2726
      3 N          -0.4872    1.3853   19.9397 N.am    1  UNL1       -0.2823
      4 H          -1.3519    0.9233   19.8502 H       1  UNL1        0.1549
      5 C          -2.4716    4.4955   16.5324 C.3     1  UNL1        0.0948
      6 C          -1.7975    3.9507   17.7566 C.2     1  UNL1        0.2267
      7 O          -0.5179    3.1788   17.6274 O.2     1  UNL1       -0.2748
      8 N          -2.4030    4.1779   19.1101 N.am    1  UNL1       -0.2693
      9 C          -3.6826    4.9498   19.2393 C.3     1  UNL1        0.0988
     10 C          -4.2880    5.1770   20.5928 C.3     1  UNL1        0.0476
     11 C          -3.6139    4.6322   21.8170 C.ar    1  UNL1       -0.0211
     12 C          -4.2193    4.8593   23.1704 C.ar    1  UNL1        0.0139
     13 C          -3.5452    4.3145   24.3946 C.ar    1  UNL1        0.1054
     14 C          -2.2656    3.5426   24.2654 C.ar    1  UNL1        0.0181
     15 C          -1.6601    3.3154   22.9120 C.ar    1  UNL1       -0.0012
     16 C          -2.3343    3.8602   21.6878 C.ar    1  UNL1        0.0007
     17 C          -1.7288    3.6331   20.3343 C.3     1  UNL1        0.1748
     18 S          -4.1507    4.5417   25.7481 S.O2    1  UNL1        0.0104
     19 C          -4.7561    4.7689   27.1016 C.3     1  UNL1        0.1816
     20 O          -5.2222    3.5392   25.4371 O.2     1  UNL1       -0.1686
     21 O          -3.0791    5.5442   26.0592 O.2     1  UNL1       -0.1686
     22 C           0.7925    0.6134   19.8104 C.ar    1  UNL1        0.0503
     23 C           1.5592    0.6427   18.5216 C.ar    1  UNL1        0.0144
     24 C           2.8388   -0.1292   18.3924 C.ar    1  UNL1       -0.0002
     25 C           3.3517   -0.9305   19.5520 C.ar    1  UNL1        0.0182
     26 C           2.5849   -0.9599   20.8409 C.ar    1  UNL1       -0.0002
     27 C           1.3053   -0.1880   20.9702 C.ar    1  UNL1        0.0144
     28 C           4.6313   -1.7025   19.4228 C.3     1  UNL1        0.2827
     29 O           5.4126   -0.4281   19.5471 O.3     1  UNL1       -0.3692
     30 H           5.0244    0.2469   18.9687 H       1  UNL1        0.2112
     31 C           5.9109   -2.4745   19.2936 C.3     1  UNL1        0.4311
     32 F           7.1905   -3.2464   19.1643 F       1  UNL1       -0.1669
     33 F           6.2750   -2.1065   20.7014 F       1  UNL1       -0.1669
     34 F           5.7896   -2.7457   18.4592 F       1  UNL1       -0.1669
     35 C           3.8499   -2.9769   19.2985 C.3     1  UNL1        0.4311
     36 F           3.0686   -4.2513   19.1742 F       1  UNL1       -0.1669
     37 F           3.5393   -2.8339   18.4815 F       1  UNL1       -0.1669
     38 F           4.0820   -3.6738   20.6063 F       1  UNL1       -0.1669
@<TRIPOS>BOND
     1     5     6    1
     2     6     7    2
     3     6     8   am
     4     8     9    1
     5     9    10    1
     6    10    11    1
     7    11    12   ar
     8    12    13   ar
     9    13    18    1
    10    18    19    1
    11    18    20    2
    12    18    21    2
    13    13    14   ar
    14    14    15   ar
    15    15    16   ar
    16    16    17    1
    17    17     1    1
    18     1     2    2
    19     1     3   am
    20     3    22    1
    21    22    23   ar
    22    23    24   ar
    23    24    25   ar
    24    25    28    1
    25    28    29    1
    26    28    31    1
    27    31    32    1
    28    31    33    1
    29    31    34    1
    30    28    35    1
    31    35    36    1
    32    35    37    1
    33    35    38    1
    34    25    26   ar
    35    26    27   ar
    36    17     8    1
    37    27    22   ar
    38    16    11   ar
    39     3     4    1
    40    29    30    1
@<TRIPOS>MOLECULE
*****
 38 40 0 0 0
SMALL
GASTEIGER

@<TRIPOS>ATOM
      1 C           6.5943   -3.5876   24.4462 C.2     1  UNL1        0.2485
      2 O           7.3732   -2.3967   23.9716 O.2     1  UNL1       -0.2726
      3 N           5.2249   -3.8558   23.8960 N.am    1  UNL1       -0.2823
      4 H           4.7136   -4.6374   24.2075 H       1  UNL1        0.1549
      5 C           8.8693   -7.2429   23.1376 C.3     1  UNL1        0.0948
      6 C           8.1110   -6.0245   23.5737 C.2     1  UNL1        0.2267
      7 O           7.5205   -5.1019   22.5490 O.2     1  UNL1       -0.2748
      8 N           7.9432   -5.7286   25.0347 N.am    1  UNL1       -0.2693
      9 C           8.5337   -6.6512   26.0594 C.3     1  UNL1        0.0988
     10 C           8.3659   -6.3554   27.5203 C.3     1  UNL1        0.0476
     11 C           7.6075   -5.1369   27.9566 C.ar    1  UNL1       -0.0211
     12 C           7.4398   -4.8411   29.4175 C.ar    1  UNL1        0.0139
     13 C           6.6814   -3.6227   29.8537 C.ar    1  UNL1        0.1054
     14 C           6.0909   -2.7001   28.8289 C.ar    1  UNL1        0.0181
     15 C           6.2587   -2.9959   27.3680 C.ar    1  UNL1       -0.0012
     16 C           7.0170   -4.2143   26.9319 C.ar    1  UNL1        0.0007
     17 C           7.1848   -4.5102   25.4709 C.3     1  UNL1        0.1748
     18 S           6.5136   -3.3268   31.3146 S.O2    1  UNL1        0.0104
     19 C           6.3457   -3.0309   32.7755 C.3     1  UNL1        0.1816
     20 O           7.0600   -4.6823   31.6520 O.2     1  UNL1       -0.1686
     21 O           5.9672   -1.9712   30.9773 O.2     1  UNL1       -0.1686
     22 C           4.6343   -2.9332   22.8713 C.ar    1  UNL1        0.0503
     23 C           3.9724   -1.6582   23.3028 C.ar    1  UNL1        0.0144
     24 C           3.3819   -0.7356   22.2781 C.ar    1  UNL1       -0.0002
     25 C           3.4532   -1.0880   20.8219 C.ar    1  UNL1        0.0182
     26 C           4.1151   -2.3630   20.3903 C.ar    1  UNL1       -0.0002
     27 C           4.7057   -3.2857   21.4150 C.ar    1  UNL1        0.0144
     28 C           2.8627   -0.1654   19.7971 C.3     1  UNL1        0.2827
     29 O           4.2372    0.1400   19.2800 O.3     1  UNL1       -0.3692
     30 H           4.8294    0.3250   20.0256 H       1  UNL1        0.2112
     31 C           2.2721    0.7572   18.7724 C.3     1  UNL1        0.4311
     32 F           1.6816    1.6798   17.7477 F       1  UNL1       -0.1669
     33 F           2.9356    1.9246   19.4411 F       1  UNL1       -0.1669
     34 F           1.8408    0.1395   18.3067 F       1  UNL1       -0.1669
     35 C           1.4882   -0.4708   20.3143 C.3     1  UNL1        0.4311
     36 F           0.1136   -0.7763   20.8314 F       1  UNL1       -0.1669
     37 F           1.4523   -1.3109   20.0360 F       1  UNL1       -0.1669
     38 F           1.0511    0.8097   20.9617 F       1  UNL1       -0.1669
@<TRIPOS>BOND
     1     5     6    1
     2     6     7    2
     3     6     8   am
     4     8     9    1
     5     9    10    1
     6    10    11    1
     7    11    12   ar
     8    12    13   ar
     9    13    18    1
    10    18    19    1
    11    18    20    2
    12    18    21    2
    13    13    14   ar
    14    14    15   ar
    15    15    16   ar
    16    16    17    1
    17    17     1    1
    18     1     2    2
    19     1     3   am
    20     3    22    1
    21    22    23   ar
    22    23    24   ar
    23    24    25   ar
    24    25    28    1
    25    28    29    1
    26    28    31    1
    27    31    32    1
    28    31    33    1
    29    31    34    1
    30    28    35    1
    31    35    36    1
    32    35    37    1
    33    35    38    1
    34    25    26   ar
    35    26    27   ar
    36    17     8    1
    37    27    22   ar
    38    16    11   ar
    39     3     4    1
    40    29    30    1
@<TRIPOS>MOLECULE
*****
 38 40 0 0 0
SMALL
GASTEIGER

@<TRIPOS>ATOM
      1 C           5.2583   -1.2213   26.1342 C.2     1  UNL1        0.2485
      2 O           6.0226   -0.1158   25.4679 O.2     1  UNL1       -0.2726
      3 N           4.4148   -2.1508   25.3130 N.am    1  UNL1       -0.2823
      4 H           3.9132   -2.8763   25.7504 H       1  UNL1        0.1549
      5 C           8.2018   -4.1299   27.9023 C.3     1  UNL1        0.0948
      6 C           7.2207   -3.1604   27.3129 C.2     1  UNL1        0.2267
      7 O           7.1414   -2.9845   25.8254 O.2     1  UNL1       -0.2748
      8 N           6.3188   -2.3666   28.2111 N.am    1  UNL1       -0.2693
      9 C           6.3981   -2.5425   29.6987 C.3     1  UNL1        0.0988
     10 C           5.4963   -1.7488   30.5969 C.3     1  UNL1        0.0476
     11 C           4.5151   -0.7793   30.0075 C.ar    1  UNL1       -0.0211
     12 C           3.6132    0.0144   30.9057 C.ar    1  UNL1        0.0139
     13 C           2.6321    0.9839   30.3163 C.ar    1  UNL1        0.1054
     14 C           2.5528    1.1597   28.8288 C.ar    1  UNL1        0.0181
     15 C           3.4546    0.3661   27.9306 C.ar    1  UNL1       -0.0012
     16 C           4.4358   -0.6034   28.5200 C.ar    1  UNL1        0.0007
     17 C           5.3376   -1.3971   27.6218 C.3     1  UNL1        0.1748
     18 S           1.7302    1.7776   31.2145 S.O2    1  UNL1        0.0104
     19 C           0.8284    2.5713   32.1127 C.3     1  UNL1        0.1816
     20 O           0.5399    1.0528   30.6599 O.2     1  UNL1       -0.1686
     21 O           2.9206    2.5025   31.7691 O.2     1  UNL1       -0.1686
     22 C           4.3355   -1.9750   23.8255 C.ar    1  UNL1        0.0503
     23 C           3.3811   -0.9780   23.2380 C.ar    1  UNL1        0.0144
     24 C           3.3018   -0.8022   21.7504 C.ar    1  UNL1       -0.0002
     25 C           4.1769   -1.6233   20.8504 C.ar    1  UNL1        0.0182
     26 C           5.1313   -2.6203   21.4379 C.ar    1  UNL1       -0.0002
     27 C           5.2106   -2.7962   22.9255 C.ar    1  UNL1        0.0144
     28 C           4.0975   -1.4475   19.3629 C.3     1  UNL1        0.2827
     29 O           4.6727   -0.0684   19.4952 O.3     1  UNL1       -0.3692
     30 H           4.2176    0.4045   20.2094 H       1  UNL1        0.2112
     31 C           4.0182   -1.2716   17.8753 C.3     1  UNL1        0.4311
     32 F           3.9389   -1.0958   16.3878 F       1  UNL1       -0.1669
     33 F           5.5126   -1.3650   17.7846 F       1  UNL1       -0.1669
     34 F           3.1367   -1.2042   17.8214 F       1  UNL1       -0.1669
     35 C           3.5224   -2.8265   19.2305 C.3     1  UNL1        0.4311
     36 F           2.9472   -4.2055   19.0982 F       1  UNL1       -0.1669
     37 F           2.7534   -2.6623   19.6381 F       1  UNL1       -0.1669
     38 F           4.5878   -3.5962   18.5079 F       1  UNL1       -0.1669
@<TRIPOS>BOND
     1     5     6    1
     2     6     7    2
     3     6     8   am
     4     8     9    1
     5     9    10    1
     6    10    11    1
     7    11    12   ar
     8    12    13   ar
     9    13    18    1
    10    18    19    1
    11    18    20    2
    12    18    21    2
    13    13    14   ar
    14    14    15   ar
    15    15    16   ar
    16    16    17    1
    17    17     1    1
    18     1     2    2
    19     1     3   am
    20     3    22    1
    21    22    23   ar
    22    23    24   ar
    23    24    25   ar
    24    25    28    1
    25    28    29    1
    26    28    31    1
    27    31    32    1
    28    31    33    1
    29    31    34    1
    30    28    35    1
    31    35    36    1
    32    35    37    1
    33    35    38    1
    34    25    26   ar
    35    26    27   ar
    36    17     8    1
    37    27    22   ar
    38    16    11   ar
    39     3     4    1
    40    29    30    1
@<TRIPOS>MOLECULE
*****
 38 40 0 0 0
SMALL
GASTEIGER

@<TRIPOS>ATOM
      1 C           6.2227   -2.9211   23.8850 C.2     1  UNL1        0.2485
      2 O           6.7615   -1.5555   23.5766 O.2     1  UNL1       -0.2726
      3 N           4.9083   -3.3566   23.3083 N.am    1  UNL1       -0.2823
      4 H           4.5546   -4.2528   23.5107 H       1  UNL1        0.1549
      5 C           8.8965   -6.0507   22.0667 C.3     1  UNL1        0.0948
      6 C           8.0053   -5.0075   22.6728 C.2     1  UNL1        0.2267
      7 O           7.2296   -4.0775   21.7876 O.2     1  UNL1       -0.2748
      8 N           7.8896   -4.8942   24.1641 N.am    1  UNL1       -0.2693
      9 C           8.6653   -5.8242   25.0492 C.3     1  UNL1        0.0988
     10 C           8.5497   -5.7110   26.5404 C.3     1  UNL1        0.0476
     11 C           7.6584   -4.6678   27.1466 C.ar    1  UNL1       -0.0211
     12 C           7.5428   -4.5546   28.6378 C.ar    1  UNL1        0.0139
     13 C           6.6515   -3.5114   29.2439 C.ar    1  UNL1        0.1054
     14 C           5.8758   -2.5814   28.3587 C.ar    1  UNL1        0.0181
     15 C           5.9914   -2.6946   26.8675 C.ar    1  UNL1       -0.0012
     16 C           6.8827   -3.7378   26.2614 C.ar    1  UNL1        0.0007
     17 C           6.9983   -3.8511   24.7701 C.3     1  UNL1        0.1748
     18 S           6.5359   -3.3982   30.7352 S.O2    1  UNL1        0.0104
     19 C           6.4203   -3.2850   32.2264 C.3     1  UNL1        0.1816
     20 O           5.9387   -2.0304   30.5850 O.2     1  UNL1       -0.1686
     21 O           7.1330   -4.7659   30.8853 O.2     1  UNL1       -0.1686
     22 C           4.1326   -2.4266   22.4232 C.ar    1  UNL1        0.0503
     23 C           4.1307   -2.6326   20.9374 C.ar    1  UNL1        0.0144
     24 C           3.3550   -1.7027   20.0523 C.ar    1  UNL1       -0.0002
     25 C           2.5812   -0.5667   20.6529 C.ar    1  UNL1        0.0182
     26 C           2.5831   -0.3606   22.1387 C.ar    1  UNL1       -0.0002
     27 C           3.3588   -1.2906   23.0238 C.ar    1  UNL1        0.0144
     28 C           1.8056    0.3633   19.7677 C.3     1  UNL1        0.2827
     29 O           0.5353   -0.3427   20.1391 O.3     1  UNL1       -0.3692
     30 H           0.6691   -1.3016   20.0799 H       1  UNL1        0.2112
     31 C           1.0299    1.2933   18.8826 C.3     1  UNL1        0.4311
     32 F           0.2542    2.2233   17.9974 F       1  UNL1       -0.1669
     33 F           0.9112    0.2116   17.8502 F       1  UNL1       -0.1669
     34 F           1.0436    1.9942   19.4239 F       1  UNL1       -0.1669
     35 C           3.0759    1.0693   19.3963 C.3     1  UNL1        0.4311
     36 F           4.3461    1.7753   19.0249 F       1  UNL1       -0.1669
     37 F           3.2052    1.4747   20.1732 F       1  UNL1       -0.1669
     38 F           3.3204    0.6533   17.9761 F       1  UNL1       -0.1669
@<TRIPOS>BOND
     1     5     6    1
     2     6     7    2
     3     6     8   am
     4     8     9    1
     5     9    10    1
     6    10    11    1
     7    11    12   ar
     8    12    13   ar
     9    13    18    1
    10    18    19    1
    11    18    20    2
    12    18    21    2
    13    13    14   ar
    14    14    15   ar
    15    15    16   ar
    16    16    17    1
    17    17     1    1
    18     1     2    2
    19     1     3   am
    20     3    22    1
    21    22    23   ar
    22    23    24   ar
    23    24    25   ar
    24    25    28    1
    25    28    29    1
    26    28    31    1
    27    31    32    1
    28    31    33    1
    29    31    34    1
    30    28    35    1
    31    35    36    1
    32    35    37    1
    33    35    38    1
    34    25    26   ar
    35    26    27   ar
    36    17     8    1
    37    27    22   ar
    38    16    11   ar
    39     3     4    1
    40    29    30    1
@<TRIPOS>MOLECULE
*****
 38 40 0 0 0
SMALL
GASTEIGER

@<TRIPOS>ATOM
      1 C          -0.6057    2.7428   20.7979 C.2     1  UNL1        0.2485
      2 O           0.6353    3.5660   20.6179 O.2     1  UNL1       -0.2726
      3 N          -0.5850    1.2762   20.4843 N.am    1  UNL1       -0.2823
      4 H          -1.3995    0.7360   20.6025 H       1  UNL1        0.1549
      5 C          -1.3889    3.0618   25.2177 C.3     1  UNL1        0.0948
      6 C          -1.1279    2.9554   23.7445 C.2     1  UNL1        0.2267
      7 O           0.1339    2.3118   23.2509 O.2     1  UNL1       -0.2748
      8 N          -2.1286    3.4928   22.7647 N.am    1  UNL1       -0.2693
      9 C          -3.3904    4.1365   23.2583 C.3     1  UNL1        0.0988
     10 C          -4.3911    4.6738   22.2786 C.3     1  UNL1        0.0476
     11 C          -4.1300    4.5675   20.8053 C.ar    1  UNL1       -0.0211
     12 C          -5.1307    5.1049   19.8256 C.ar    1  UNL1        0.0139
     13 C          -4.8697    4.9986   18.3524 C.ar    1  UNL1        0.1054
     14 C          -3.6079    4.3549   17.8588 C.ar    1  UNL1        0.0181
     15 C          -2.6072    3.8176   18.8385 C.ar    1  UNL1       -0.0012
     16 C          -2.8683    3.9239   20.3117 C.ar    1  UNL1        0.0007
     17 C          -1.8675    3.3865   21.2915 C.3     1  UNL1        0.1748
     18 S          -5.8704    5.5360   17.3726 S.O2    1  UNL1        0.0104
     19 C          -6.8710    6.0733   16.3929 C.3     1  UNL1        0.1816
     20 O          -6.8845    4.5469   17.8658 O.2     1  UNL1       -0.1686
     21 O          -4.8563    6.5250   16.8794 O.2     1  UNL1       -0.1686
     22 C           0.6768    0.6325   19.9908 C.ar    1  UNL1        0.0503
     23 C           1.2664    1.0489   18.6759 C.ar    1  UNL1        0.0144
     24 C           2.5282    0.4052   18.1823 C.ar    1  UNL1       -0.0002
     25 C           3.2004   -0.6548   19.0036 C.ar    1  UNL1        0.0182
     26 C           2.6107   -1.0712   20.3186 C.ar    1  UNL1       -0.0002
     27 C           1.3489   -0.4275   20.8121 C.ar    1  UNL1        0.0144
     28 C           4.4621   -1.2985   18.5100 C.3     1  UNL1        0.2827
     29 O           3.7678   -1.6836   17.2374 O.3     1  UNL1       -0.3692
     30 H           2.9036   -2.0719   17.4453 H       1  UNL1        0.2112
     31 C           5.7239   -1.9421   18.0165 C.3     1  UNL1        0.4311
     32 F           6.9857   -2.5858   17.5229 F       1  UNL1       -0.1669
     33 F           5.0814   -3.2924   18.1348 F       1  UNL1       -0.1669
     34 F           6.1913   -1.1971   17.9116 F       1  UNL1       -0.1669
     35 C           5.1564   -0.9133   19.7827 C.3     1  UNL1        0.4311
     36 F           5.8507   -0.5282   21.0553 F       1  UNL1       -0.1669
     37 F           5.2207   -1.7290   20.1218 F       1  UNL1       -0.1669
     38 F           5.3007    0.5762   19.6809 F       1  UNL1       -0.1669
@<TRIPOS>BOND
     1     5     6    1
     2     6     7    2
     3     6     8   am
     4     8     9    1
     5     9    10    1
     6    10    11    1
     7    11    12   ar
     8    12    13   ar
     9    13    18    1
    10    18    19    1
    11    18    20    2
    12    18    21    2
    13    13    14   ar
    14    14    15   ar
    15    15    16   ar
    16    16    17    1
    17    17     1    1
    18     1     2    2
    19     1     3   am
    20     3    22    1
    21    22    23   ar
    22    23    24   ar
    23    24    25   ar
    24    25    28    1
    25    28    29    1
    26    28    31    1
    27    31    32    1
    28    31    33    1
    29    31    34    1
    30    28    35    1
    31    35    36    1
    32    35    37    1
    33    35    38    1
    34    25    26   ar
    35    26    27   ar
    36    17     8    1
    37    27    22   ar
    38    16    11   ar
    39     3     4    1
    40    29    30    1
@<TRIPOS>MOLECULE
*****
 38 40 0 0 0
SMALL
GASTEIGER

@<TRIPOS>ATOM
      1 C           4.0533   -0.4379   26.5255 C.2     1  UNL1        0.2485
      2 O           4.6639    0.7897   25.9170 O.2     1  UNL1       -0.2726
      3 N           3.5472   -1.5401   25.6430 N.am    1  UNL1       -0.2823
      4 H           3.1464   -2.3458   26.0424 H       1  UNL1        0.1549
      5 C           0.3944    1.0805   28.6603 C.3     1  UNL1        0.0948
      6 C           1.6140    0.5744   27.9487 C.2     1  UNL1        0.2267
      7 O           1.7184    0.6997   26.4576 O.2     1  UNL1       -0.2748
      8 N           2.7292   -0.0571   28.7282 N.am    1  UNL1       -0.2693
      9 C           2.6248   -0.1824   30.2193 C.3     1  UNL1        0.0988
     10 C           3.7399   -0.8139   30.9988 C.3     1  UNL1        0.0476
     11 C           4.9596   -1.3200   30.2873 C.ar    1  UNL1       -0.0211
     12 C           6.0747   -1.9515   31.0668 C.ar    1  UNL1        0.0139
     13 C           7.2943   -2.4576   30.3552 C.ar    1  UNL1        0.1054
     14 C           7.3988   -2.3322   28.8641 C.ar    1  UNL1        0.0181
     15 C           6.2836   -1.7008   28.0846 C.ar    1  UNL1       -0.0012
     16 C           5.0640   -1.1947   28.7962 C.ar    1  UNL1        0.0007
     17 C           3.9488   -0.5632   28.0166 C.3     1  UNL1        0.1748
     18 S           8.4096   -3.0890   31.1347 S.O2    1  UNL1        0.0104
     19 C           9.5247   -3.7205   31.9142 C.3     1  UNL1        0.1816
     20 O           7.6062   -2.9532   32.3941 O.2     1  UNL1       -0.1686
     21 O           9.2129   -3.2249   29.8753 O.2     1  UNL1       -0.1686
     22 C           3.6516   -1.4148   24.1519 C.ar    1  UNL1        0.0503
     23 C           2.7520   -0.4681   23.4139 C.ar    1  UNL1        0.0144
     24 C           2.8565   -0.3428   21.9228 C.ar    1  UNL1       -0.0002
     25 C           3.8605   -1.1641   21.1697 C.ar    1  UNL1        0.0182
     26 C           4.7602   -2.1108   21.9076 C.ar    1  UNL1       -0.0002
     27 C           4.6557   -2.2361   23.3987 C.ar    1  UNL1        0.0144
     28 C           3.9650   -1.0388   19.6786 C.3     1  UNL1        0.2827
     29 O           4.4969    0.3552   19.8330 O.3     1  UNL1       -0.3692
     30 H           3.9485    0.8420   20.4680 H       1  UNL1        0.2112
     31 C           4.0695   -0.9135   18.1875 C.3     1  UNL1        0.4311
     32 F           4.1739   -0.7881   16.6964 F       1  UNL1       -0.1669
     33 F           5.5643   -0.8539   18.2972 F       1  UNL1       -0.1669
     34 F           3.2009   -0.9393   18.0158 F       1  UNL1       -0.1669
     35 C           3.4331   -2.4328   19.5241 C.3     1  UNL1        0.4311
     36 F           2.9013   -3.8268   19.3697 F       1  UNL1       -0.1669
     37 F           2.6036   -2.2611   19.7826 F       1  UNL1       -0.1669
     38 F           4.6145   -3.2204   19.0404 F       1  UNL1       -0.1669
@<TRIPOS>BOND
     1     5     6    1
     2     6     7    2
     3     6     8   am
     4     8     9    1
     5     9    10    1
     6    10    11    1
     7    11    12   ar
     8    12    13   ar
     9    13    18    1
    10    18    19    1
    11    18    20    2
    12    18    21    2
    13    13    14   ar
    14    14    15   ar
    15    15    16   ar
    16    16    17    1
    17    17     1    1
    18     1     2    2
    19     1     3   am
    20     3    22    1
    21    22    23   ar
    22    23    24   ar
    23    24    25   ar
    24    25    28    1
    25    28    29    1
    26    28    31    1
    27    31    32    1
    28    31    33    1
    29    31    34    1
    30    28    35    1
    31    35    36    1
    32    35    37    1
    33    35    38    1
    34    25    26   ar
    35    26    27   ar
    36    17     8    1
    37    27    22   ar
    38    16    11   ar
    39     3     4    1
    40    29    30    1
@<TRIPOS>MOLECULE
*****
 38 40 0 0 0
SMALL
GASTEIGER

@<TRIPOS>ATOM
      1 C           1.4920    1.3846   24.6218 C.2     1  UNL1        0.2485
      2 O           2.6165    2.2772   25.0562 O.2     1  UNL1       -0.2726
      3 N           0.5831    0.7711   25.6452 N.am    1  UNL1       -0.2823
      4 H          -0.1549    0.1853   25.3600 H       1  UNL1        0.1549
      5 C          -1.5853    3.7209   22.3148 C.3     1  UNL1        0.0948
      6 C          -0.5596    2.9422   23.0838 C.2     1  UNL1        0.2267
      7 O          -0.3440    3.2212   24.5418 O.2     1  UNL1       -0.2748
      8 N           0.2506    1.8843   22.3948 N.am    1  UNL1       -0.2693
      9 C           0.0350    1.6053   20.9369 C.3     1  UNL1        0.0988
     10 C           0.8452    0.5475   20.2479 C.3     1  UNL1        0.0476
     11 C           1.8710   -0.2313   21.0169 C.ar    1  UNL1       -0.0211
     12 C           2.6811   -1.2891   20.3279 C.ar    1  UNL1        0.0139
     13 C           3.7069   -2.0678   21.0968 C.ar    1  UNL1        0.1054
     14 C           3.9225   -1.7887   22.5548 C.ar    1  UNL1        0.0181
     15 C           3.1123   -0.7310   23.2438 C.ar    1  UNL1       -0.0012
     16 C           2.0866    0.0478   22.4748 C.ar    1  UNL1        0.0007
     17 C           1.2764    1.1056   23.1638 C.3     1  UNL1        0.1748
     18 S           4.5171   -3.1256   20.4079 S.O2    1  UNL1        0.0104
     19 C           5.3273   -4.1834   19.7190 C.3     1  UNL1        0.1816
     20 O           4.3280   -2.4180   19.0989 O.2     1  UNL1       -0.1686
     21 O           4.7062   -3.8332   21.7168 O.2     1  UNL1       -0.1686
     22 C           0.7987    1.0502   27.1032 C.ar    1  UNL1        0.0503
     23 C           1.5759    0.0822   27.9451 C.ar    1  UNL1        0.0144
     24 C           1.7915    0.3612   29.4031 C.ar    1  UNL1       -0.0002
     25 C           1.2299    1.6082   30.0191 C.ar    1  UNL1        0.0182
     26 C           0.4527    2.5763   29.1771 C.ar    1  UNL1       -0.0002
     27 C           0.2371    2.2973   27.7192 C.ar    1  UNL1        0.0144
     28 C           1.4455    1.8873   31.4770 C.3     1  UNL1        0.2827
     29 O          -0.0228    1.7111   31.7279 O.3     1  UNL1       -0.3692
     30 H          -0.5262    2.2040   31.0611 H       1  UNL1        0.2112
     31 C           1.6611    2.1663   32.9350 C.3     1  UNL1        0.4311
     32 F           1.8767    2.4454   34.3930 F       1  UNL1       -0.1669
     33 F           1.0424    3.5224   32.7670 F       1  UNL1       -0.1669
     34 F           2.0392    1.3917   33.1385 F       1  UNL1       -0.1669
     35 C           2.9139    2.0635   31.2262 C.3     1  UNL1        0.4311
     36 F           4.3822    2.2396   30.9753 F       1  UNL1       -0.1669
     37 F           2.8780    2.9087   30.9641 F       1  UNL1       -0.1669
     38 F           3.5035    0.7277   31.5696 F       1  UNL1       -0.1669
@<TRIPOS>BOND
     1     5     6    1
     2     6     7    2
     3     6     8   am
     4     8     9    1
     5     9    10    1
     6    10    11    1
     7    11    12   ar
     8    12    13   ar
     9    13    18    1
    10    18    19    1
    11    18    20    2
    12    18    21    2
    13    13    14   ar
    14    14    15   ar
    15    15    16   ar
    16    16    17    1
    17    17     1    1
    18     1     2    2
    19     1     3   am
    20     3    22    1
    21    22    23   ar
    22    23    24   ar
    23    24    25   ar
    24    25    28    1
    25    28    29    1
    26    28    31    1
    27    31    32    1
    28    31    33    1
    29    31    34    1
    30    28    35    1
    31    35    36    1
    32    35    37    1
    33    35    38    1
    34    25    26   ar
    35    26    27   ar
    36    17     8    1
    37    27    22   ar
    38    16    11   ar
    39     3     4    1
    40    29    30    1
@<TRIPOS>MOLECULE
*****
 38 40 0 0 0
SMALL
GASTEIGER

@<TRIPOS>ATOM
      1 C           2.4238    1.3504   26.0683 C.2     1  UNL1        0.2485
      2 O           3.5339    2.2007   25.5254 O.2     1  UNL1       -0.2726
      3 N           1.7330    0.3606   25.1777 N.am    1  UNL1       -0.2823
      4 H           1.0044   -0.1974   25.5340 H       1  UNL1        0.1549
      5 C          -0.9407    4.1292   27.1678 C.3     1  UNL1        0.0948
      6 C           0.1808    3.2030   26.8013 C.2     1  UNL1        0.2267
      7 O           0.6002    3.0634   25.3679 O.2     1  UNL1       -0.2748
      8 N           0.8829    2.4162   27.8682 N.am    1  UNL1       -0.2693
      9 C           0.4635    2.5558   29.3016 C.3     1  UNL1        0.0988
     10 C           1.1656    1.7692   30.3685 C.3     1  UNL1        0.0476
     11 C           2.2871    0.8429   30.0019 C.ar    1  UNL1       -0.0211
     12 C           2.9892    0.0562   31.0688 C.ar    1  UNL1        0.0139
     13 C           4.1106   -0.8700   30.7023 C.ar    1  UNL1        0.1054
     14 C           4.5300   -1.0096   29.2689 C.ar    1  UNL1        0.0181
     15 C           3.8279   -0.2229   28.2020 C.ar    1  UNL1       -0.0012
     16 C           2.7065    0.7033   28.5685 C.ar    1  UNL1        0.0007
     17 C           2.0044    1.4900   27.5017 C.3     1  UNL1        0.1748
     18 S           4.8127   -1.6567   31.7692 S.O2    1  UNL1        0.0104
     19 C           5.5149   -2.4434   32.8360 C.3     1  UNL1        0.1816
     20 O           3.6935   -1.3618   32.7233 O.2     1  UNL1       -0.1686
     21 O           5.9319   -1.9516   30.8151 O.2     1  UNL1       -0.1686
     22 C           2.1524    0.2210   23.7443 C.ar    1  UNL1        0.0503
     23 C           3.2701   -0.7095   23.3771 C.ar    1  UNL1        0.0144
     24 C           3.6895   -0.8491   21.9437 C.ar    1  UNL1       -0.0002
     25 C           2.9912   -0.0581   20.8775 C.ar    1  UNL1        0.0182
     26 C           1.8735    0.8725   21.2447 C.ar    1  UNL1       -0.0002
     27 C           1.4541    1.0120   22.6781 C.ar    1  UNL1        0.0144
     28 C           3.4106   -0.1977   19.4441 C.3     1  UNL1        0.2827
     29 O           3.6953    1.2738   19.3841 O.3     1  UNL1       -0.3692
     30 H           2.9558    1.7625   19.7782 H       1  UNL1        0.2112
     31 C           3.8300   -0.3373   18.0107 C.3     1  UNL1        0.4311
     32 F           4.2494   -0.4769   16.5773 F       1  UNL1       -0.1669
     33 F           5.2504   -0.0505   18.3984 F       1  UNL1       -0.1669
     34 F           3.0278   -0.5154   17.6803 F       1  UNL1       -0.1669
     35 C           3.1259   -1.6692   19.5041 C.3     1  UNL1        0.4311
     36 F           2.8412   -3.1407   19.5641 F       1  UNL1       -0.1669
     37 F           3.9598   -1.9453   19.3906 F       1  UNL1       -0.1669
     38 F           1.6426   -1.7436   19.7138 F       1  UNL1       -0.1669
@<TRIPOS>BOND
     1     5     6    1
     2     6     7    2
     3     6     8   am
     4     8     9    1
     5     9    10    1
     6    10    11    1
     7    11    12   ar
     8    12    13   ar
     9    13    18    1
    10    18    19    1
    11    18    20    2
    12    18    21    2
    13    13    14   ar
    14    14    15   ar
    15    15    16   ar
    16    16    17    1
    17    17     1    1
    18     1     2    2
    19     1     3   am
    20     3    22    1
    21    22    23   ar
    22    23    24   ar
    23    24    25   ar
    24    25    28    1
    25    28    29    1
    26    28    31    1
    27    31    32    1
    28    31    33    1
    29    31    34    1
    30    28    35    1
    31    35    36    1
    32    35    37    1
    33    35    38    1
    34    25    26   ar
    35    26    27   ar
    36    17     8    1
    37    27    22   ar
    38    16    11   ar
    39     3     4    1
    40    29    30    1
