@<TRIPOS>MOLECULE
*****
 24 24 0 0 0
SMALL
GASTEIGER

@<TRIPOS>ATOM
      1 C          -7.1816  -19.6354   21.8468 C.3     1  UNL1        0.2969
      2 F          -7.4355  -18.3939   21.0443 F       1  UNL1       -0.1981
      3 F          -6.9278  -20.8769   22.6494 F       1  UNL1       -0.1981
      4 C         -10.3044  -17.7448   23.4038 C.ar    1  UNL1        0.1384
      5 C         -10.8786  -18.8190   24.2791 C.ar    1  UNL1        0.0369
      6 C         -10.2205  -20.1654   24.3437 C.ar    1  UNL1        0.0030
      7 C          -8.9882  -20.4376   23.5329 C.ar    1  UNL1        0.0012
      8 C          -8.4140  -19.3633   22.6576 C.ar    1  UNL1        0.0422
      9 C          -9.0721  -18.0169   22.5931 C.ar    1  UNL1        0.0379
     10 O         -10.9625  -16.3984   23.3392 O.3     1  UNL1       -0.4755
     11 C         -11.9358  -16.0913   22.2401 C.3     1  UNL1        0.2054
     12 C         -12.2796  -17.1429   21.2272 C.3     1  UNL1        0.0473
     13 C         -10.9100  -18.6472   19.6112 C.3     1  UNL1        0.0001
     14 C         -11.4417  -17.2975   19.9926 C.3     1  UNL1        0.0038
     15 C          -5.9493  -19.9075   21.0361 C.3     1  UNL1        0.1408
     16 N          -4.9301  -18.8256   20.8345 N.3     1  UNL1       -0.2865
     17 H          -5.4265  -17.9371   20.9025 H       1  UNL1        0.1238
     18 C          -3.7456  -18.7311   21.7500 C.3     1  UNL1        0.1319
     19 C          -3.9332  -18.3137   23.1785 C.3     1  UNL1        0.0270
     20 C          -2.3736  -19.0540   21.2370 C.2     1  UNL1        0.2400
     21 O          -1.8557  -20.4597   21.3139 O.2     1  UNL1       -0.2734
     22 N          -1.5194  -17.9712   20.6472 N.am    1  UNL1       -0.2750
     23 C          -0.1473  -18.2941   20.1342 C.3     1  UNL1        0.1149
     24 C          -2.0373  -16.5656   20.5703 C.3     1  UNL1        0.1149
@<TRIPOS>BOND
     1    13    14    1
     2    14    12    1
     3    12    11    1
     4    11    10    1
     5    10     4    1
     6     4     5   ar
     7     5     6   ar
     8     6     7   ar
     9     7     8   ar
    10     8     1    1
    11     1     2    1
    12     1     3    1
    13     1    15    1
    14    15    16    1
    15    16    18    1
    16    18    19    1
    17    18    20    1
    18    20    21    2
    19    20    22   am
    20    22    23    1
    21    22    24    1
    22     8     9   ar
    23     9     4   ar
    24    16    17    1
@<TRIPOS>MOLECULE
*****
 24 24 0 0 0
SMALL
GASTEIGER

@<TRIPOS>ATOM
      1 C          -7.4970  -19.4694   21.4100 C.3     1  UNL1        0.2969
      2 F          -6.5237  -20.2004   22.2865 F       1  UNL1       -0.1981
      3 F          -8.4703  -18.7385   20.5334 F       1  UNL1       -0.1981
      4 C          -9.4131  -17.4458   24.2354 C.ar    1  UNL1        0.1384
      5 C         -10.0530  -18.5654   25.0016 C.ar    1  UNL1        0.0369
      6 C          -9.8408  -19.9864   24.5705 C.ar    1  UNL1        0.0030
      7 C          -8.9888  -20.2877   23.3734 C.ar    1  UNL1        0.0012
      8 C          -8.3490  -19.1681   22.6072 C.ar    1  UNL1        0.0422
      9 C          -8.5612  -17.7471   23.0383 C.ar    1  UNL1        0.0379
     10 O          -9.6253  -16.0248   24.6665 O.3     1  UNL1       -0.4755
     11 C          -8.5103  -15.2656   25.3226 C.3     1  UNL1        0.2054
     12 C          -8.1395  -15.5588   26.7462 C.3     1  UNL1        0.0473
     13 C          -5.6171  -15.3177   26.1720 C.3     1  UNL1        0.0001
     14 C          -6.6985  -15.7319   27.1254 C.3     1  UNL1        0.0038
     15 C          -6.6450  -19.7707   20.2128 C.3     1  UNL1        0.1408
     16 N          -5.5893  -18.7973   19.7794 N.3     1  UNL1       -0.2865
     17 H          -5.7174  -17.9549   20.3401 H       1  UNL1        0.1238
     18 C          -4.1395  -19.1688   19.8810 C.3     1  UNL1        0.1319
     19 C          -3.7347  -20.6130   19.8974 C.3     1  UNL1        0.0270
     20 C          -3.0946  -18.0960   19.9663 C.2     1  UNL1        0.2400
     21 O          -2.4252  -17.6001   18.7189 O.2     1  UNL1       -0.2734
     22 N          -2.7191  -17.5191   21.2990 N.am    1  UNL1       -0.2750
     23 C          -1.6742  -16.4463   21.3844 C.3     1  UNL1        0.1149
     24 C          -3.3885  -18.0150   22.5464 C.3     1  UNL1        0.1149
@<TRIPOS>BOND
     1    13    14    1
     2    14    12    1
     3    12    11    1
     4    11    10    1
     5    10     4    1
     6     4     5   ar
     7     5     6   ar
     8     6     7   ar
     9     7     8   ar
    10     8     1    1
    11     1     2    1
    12     1     3    1
    13     1    15    1
    14    15    16    1
    15    16    18    1
    16    18    19    1
    17    18    20    1
    18    20    21    2
    19    20    22   am
    20    22    23    1
    21    22    24    1
    22     8     9   ar
    23     9     4   ar
    24    16    17    1
@<TRIPOS>MOLECULE
*****
 24 24 0 0 0
SMALL
GASTEIGER

@<TRIPOS>ATOM
      1 C          -7.2235  -18.6099   21.2145 C.3     1  UNL1        0.2969
      2 F          -5.9496  -18.3938   21.9762 F       1  UNL1       -0.1981
      3 F          -8.4975  -18.8260   20.4527 F       1  UNL1       -0.1981
      4 C         -10.0475  -18.1296   23.9613 C.ar    1  UNL1        0.1384
      5 C          -9.5683  -16.8839   24.6457 C.ar    1  UNL1        0.0369
      6 C          -8.3074  -16.2135   24.1864 C.ar    1  UNL1        0.0030
      7 C          -7.5259  -16.7888   23.0427 C.ar    1  UNL1        0.0012
      8 C          -8.0051  -18.0346   22.3583 C.ar    1  UNL1        0.0422
      9 C          -9.2659  -18.7050   22.8175 C.ar    1  UNL1        0.0379
     10 O         -11.3083  -18.8000   24.4205 O.3     1  UNL1       -0.4755
     11 C         -12.6394  -18.3063   23.9366 C.3     1  UNL1        0.2054
     12 C         -12.7084  -17.3158   22.8122 C.3     1  UNL1        0.0473
     13 C         -11.6838  -17.0697   20.4374 C.3     1  UNL1        0.0001
     14 C         -12.5939  -17.7844   21.3919 C.3     1  UNL1        0.0038
     15 C          -6.4421  -19.1853   20.0707 C.3     1  UNL1        0.1408
     16 N          -5.1998  -18.4961   19.5892 N.3     1  UNL1       -0.2865
     17 H          -5.1194  -17.6290   20.1204 H       1  UNL1        0.1238
     18 C          -3.8725  -19.1882   19.6864 C.3     1  UNL1        0.1319
     19 C          -3.8132  -20.6606   19.9668 C.3     1  UNL1        0.0270
     20 C          -2.6046  -18.4079   19.5032 C.2     1  UNL1        0.2400
     21 O          -1.9195  -18.3927   18.1689 O.2     1  UNL1       -0.2734
     22 N          -2.0219  -17.6429   20.6543 N.am    1  UNL1       -0.2750
     23 C          -0.7539  -16.8626   20.4712 C.3     1  UNL1        0.1149
     24 C          -2.7070  -17.6581   21.9886 C.3     1  UNL1        0.1149
@<TRIPOS>BOND
     1    13    14    1
     2    14    12    1
     3    12    11    1
     4    11    10    1
     5    10     4    1
     6     4     5   ar
     7     5     6   ar
     8     6     7   ar
     9     7     8   ar
    10     8     1    1
    11     1     2    1
    12     1     3    1
    13     1    15    1
    14    15    16    1
    15    16    18    1
    16    18    19    1
    17    18    20    1
    18    20    21    2
    19    20    22   am
    20    22    23    1
    21    22    24    1
    22     8     9   ar
    23     9     4   ar
    24    16    17    1
@<TRIPOS>MOLECULE
*****
 24 24 0 0 0
SMALL
GASTEIGER

@<TRIPOS>ATOM
      1 C          -7.5949  -19.5691   22.0169 C.3     1  UNL1        0.2969
      2 F          -7.7278  -18.4080   21.0767 F       1  UNL1       -0.1981
      3 F          -7.4620  -20.7302   22.9572 F       1  UNL1       -0.1981
      4 C          -3.6461  -19.2365   21.8029 C.ar    1  UNL1        0.1384
      5 C          -3.3437  -20.1728   20.6707 C.ar    1  UNL1        0.0369
      6 C          -4.4584  -20.9079   19.9873 C.ar    1  UNL1        0.0030
      7 C          -5.8754  -20.7066   20.4360 C.ar    1  UNL1        0.0012
      8 C          -6.1778  -19.7704   21.5681 C.ar    1  UNL1        0.0422
      9 C          -5.0631  -19.0353   22.2516 C.ar    1  UNL1        0.0379
     10 O          -2.5314  -18.5015   22.4864 O.3     1  UNL1       -0.4755
     11 C          -2.4554  -17.0059   22.4001 C.3     1  UNL1        0.2054
     12 C          -1.7316  -16.3563   21.2581 C.3     1  UNL1        0.0473
     13 C          -1.5844  -17.6076   18.9859 C.3     1  UNL1        0.0001
     14 C          -0.9581  -17.1964   20.2854 C.3     1  UNL1        0.0038
     15 C          -9.0120  -19.3679   22.4657 C.3     1  UNL1        0.1408
     16 N          -9.3049  -18.5183   23.6667 N.3     1  UNL1       -0.2865
     17 H          -8.4914  -18.5830   24.2786 H       1  UNL1        0.1238
     18 C          -9.6046  -17.0583   23.4976 C.3     1  UNL1        0.1319
     19 C          -9.2037  -16.0820   24.5635 C.3     1  UNL1        0.0270
     20 C         -10.3052  -16.5746   22.2626 C.2     1  UNL1        0.2400
     21 O          -9.5445  -15.8115   21.2190 O.2     1  UNL1       -0.2734
     22 N         -11.7664  -16.8540   22.0713 N.am    1  UNL1       -0.2750
     23 C         -12.4671  -16.3703   20.8362 C.3     1  UNL1        0.1149
     24 C         -12.5270  -17.6172   23.1148 C.3     1  UNL1        0.1149
@<TRIPOS>BOND
     1    13    14    1
     2    14    12    1
     3    12    11    1
     4    11    10    1
     5    10     4    1
     6     4     5   ar
     7     5     6   ar
     8     6     7   ar
     9     7     8   ar
    10     8     1    1
    11     1     2    1
    12     1     3    1
    13     1    15    1
    14    15    16    1
    15    16    18    1
    16    18    19    1
    17    18    20    1
    18    20    21    2
    19    20    22   am
    20    22    23    1
    21    22    24    1
    22     8     9   ar
    23     9     4   ar
    24    16    17    1
@<TRIPOS>MOLECULE
*****
 24 24 0 0 0
SMALL
GASTEIGER

@<TRIPOS>ATOM
      1 C          -7.7639  -19.3791   21.1968 C.3     1  UNL1        0.2969
      2 F          -7.8359  -19.2287   19.7062 F       1  UNL1       -0.1981
      3 F          -7.6918  -19.5296   22.6875 F       1  UNL1       -0.1981
      4 C          -3.8705  -18.9730   21.8504 C.ar    1  UNL1        0.1384
      5 C          -3.3170  -20.0099   20.9186 C.ar    1  UNL1        0.0369
      6 C          -4.2457  -20.8365   20.0794 C.ar    1  UNL1        0.0030
      7 C          -5.7280  -20.6263   20.1722 C.ar    1  UNL1        0.0012
      8 C          -6.2815  -19.5894   21.1041 C.ar    1  UNL1        0.0422
      9 C          -5.3528  -18.7628   21.9432 C.ar    1  UNL1        0.0379
     10 O          -2.9418  -18.1464   22.6896 O.3     1  UNL1       -0.4755
     11 C          -2.6953  -16.7084   22.3410 C.3     1  UNL1        0.2054
     12 C          -1.5565  -16.3405   21.4367 C.3     1  UNL1        0.0473
     13 C          -0.2125  -17.8974   19.8492 C.3     1  UNL1        0.0001
     14 C          -1.4025  -17.0219   20.1093 C.3     1  UNL1        0.0038
     15 C          -9.2461  -19.1689   21.2897 C.3     1  UNL1        0.1408
     16 N          -9.8588  -17.9051   20.7628 N.3     1  UNL1       -0.2865
     17 H         -10.7949  -18.1455   20.4367 H       1  UNL1        0.1238
     18 C         -10.0059  -16.7121   21.6602 C.3     1  UNL1        0.1319
     19 C         -11.3663  -16.1423   21.9333 C.3     1  UNL1        0.0270
     20 C          -8.7926  -16.0890   22.2844 C.2     1  UNL1        0.2400
     21 O          -7.9266  -15.1648   21.4807 O.2     1  UNL1       -0.2734
     22 N          -8.4453  -16.3901   23.7122 N.am    1  UNL1       -0.2750
     23 C          -7.2320  -15.7670   24.3364 C.3     1  UNL1        0.1149
     24 C          -9.3114  -17.3143   24.5158 C.3     1  UNL1        0.1149
@<TRIPOS>BOND
     1    13    14    1
     2    14    12    1
     3    12    11    1
     4    11    10    1
     5    10     4    1
     6     4     5   ar
     7     5     6   ar
     8     6     7   ar
     9     7     8   ar
    10     8     1    1
    11     1     2    1
    12     1     3    1
    13     1    15    1
    14    15    16    1
    15    16    18    1
    16    18    19    1
    17    18    20    1
    18    20    21    2
    19    20    22   am
    20    22    23    1
    21    22    24    1
    22     8     9   ar
    23     9     4   ar
    24    16    17    1
@<TRIPOS>MOLECULE
*****
 24 24 0 0 0
SMALL
GASTEIGER

@<TRIPOS>ATOM
      1 C          -8.2173  -19.5046   20.8332 C.3     1  UNL1        0.2969
      2 F          -7.9628  -19.1526   19.3975 F       1  UNL1       -0.1981
      3 F          -8.4718  -19.8566   22.2689 F       1  UNL1       -0.1981
      4 C          -4.7088  -18.6539   22.4815 C.ar    1  UNL1        0.1384
      5 C          -3.7879  -19.4727   21.6263 C.ar    1  UNL1        0.0369
      6 C          -4.3434  -20.3021   20.5067 C.ar    1  UNL1        0.0030
      7 C          -5.8198  -20.3127   20.2423 C.ar    1  UNL1        0.0012
      8 C          -6.7408  -19.4940   21.0975 C.ar    1  UNL1        0.0422
      9 C          -6.1853  -18.6646   22.2171 C.ar    1  UNL1        0.0379
     10 O          -4.1533  -17.8245   23.6011 O.3     1  UNL1       -0.4755
     11 C          -4.3504  -16.3376   23.6022 C.3     1  UNL1        0.2054
     12 C          -5.4418  -15.7263   24.4300 C.3     1  UNL1        0.0473
     13 C          -6.4795  -15.5784   26.8072 C.3     1  UNL1        0.0001
     14 C          -5.2739  -15.5972   25.9150 C.3     1  UNL1        0.0038
     15 C          -9.6938  -19.5152   20.5689 C.3     1  UNL1        0.1408
     16 N         -10.6571  -19.2298   21.6826 N.3     1  UNL1       -0.2865
     17 H         -10.2225  -19.5670   22.5416 H       1  UNL1        0.1238
     18 C         -11.1026  -17.8219   21.9466 C.3     1  UNL1        0.1319
     19 C         -12.4306  -17.5646   22.5949 C.3     1  UNL1        0.0270
     20 C         -10.2202  -16.6715   21.5622 C.2     1  UNL1        0.2400
     21 O         -10.4415  -15.9586   20.2611 O.2     1  UNL1       -0.2734
     22 N          -9.1165  -16.2340   22.4788 N.am    1  UNL1       -0.2750
     23 C          -8.2340  -15.0835   22.0945 C.3     1  UNL1        0.1149
     24 C          -8.8952  -16.9470   23.7799 C.3     1  UNL1        0.1149
@<TRIPOS>BOND
     1    13    14    1
     2    14    12    1
     3    12    11    1
     4    11    10    1
     5    10     4    1
     6     4     5   ar
     7     5     6   ar
     8     6     7   ar
     9     7     8   ar
    10     8     1    1
    11     1     2    1
    12     1     3    1
    13     1    15    1
    14    15    16    1
    15    16    18    1
    16    18    19    1
    17    18    20    1
    18    20    21    2
    19    20    22   am
    20    22    23    1
    21    22    24    1
    22     8     9   ar
    23     9     4   ar
    24    16    17    1
@<TRIPOS>MOLECULE
*****
 24 24 0 0 0
SMALL
GASTEIGER

@<TRIPOS>ATOM
      1 C          -4.3953  -15.9936   23.4741 C.3     1  UNL1        0.2969
      2 F          -4.5965  -14.5741   23.0330 F       1  UNL1       -0.1981
      3 F          -4.1941  -17.4130   23.9152 F       1  UNL1       -0.1981
      4 C          -8.0911  -15.7890   24.9057 C.ar    1  UNL1        0.1384
      5 C          -7.8183  -15.5804   26.3658 C.ar    1  UNL1        0.0369
      6 C          -6.4046  -15.5095   26.8621 C.ar    1  UNL1        0.0030
      7 C          -5.2635  -15.6472   25.8982 C.ar    1  UNL1        0.0012
      8 C          -5.5363  -15.8558   24.4381 C.ar    1  UNL1        0.0422
      9 C          -6.9501  -15.9267   23.9418 C.ar    1  UNL1        0.0379
     10 O          -9.5048  -15.8599   24.4094 O.3     1  UNL1       -0.4755
     11 C          -9.9298  -16.9858   23.5141 C.3     1  UNL1        0.2054
     12 C          -9.3564  -18.3579   23.7108 C.3     1  UNL1        0.0473
     13 C          -7.5434  -19.6414   22.3632 C.3     1  UNL1        0.0001
     14 C          -8.9631  -19.1839   22.5220 C.3     1  UNL1        0.0038
     15 C          -3.2543  -16.1314   22.5102 C.3     1  UNL1        0.1408
     16 N          -2.3890  -17.3562   22.5424 N.3     1  UNL1       -0.2865
     17 H          -2.5050  -17.7745   23.4654 H       1  UNL1        0.1238
     18 C          -2.6025  -18.4519   21.5404 C.3     1  UNL1        0.1319
     19 C          -2.6535  -19.8815   21.9918 C.3     1  UNL1        0.0270
     20 C          -2.7651  -18.1180   20.0872 C.2     1  UNL1        0.2400
     21 O          -4.1364  -18.0404   19.4842 O.2     1  UNL1       -0.2734
     22 N          -1.5563  -17.8617   19.2368 N.am    1  UNL1       -0.2750
     23 C          -1.7188  -17.5278   17.7834 C.3     1  UNL1        0.1149
     24 C          -0.1850  -17.9394   19.8397 C.3     1  UNL1        0.1149
@<TRIPOS>BOND
     1    13    14    1
     2    14    12    1
     3    12    11    1
     4    11    10    1
     5    10     4    1
     6     4     5   ar
     7     5     6   ar
     8     6     7   ar
     9     7     8   ar
    10     8     1    1
    11     1     2    1
    12     1     3    1
    13     1    15    1
    14    15    16    1
    15    16    18    1
    16    18    19    1
    17    18    20    1
    18    20    21    2
    19    20    22   am
    20    22    23    1
    21    22    24    1
    22     8     9   ar
    23     9     4   ar
    24    16    17    1
@<TRIPOS>MOLECULE
*****
 24 24 0 0 0
SMALL
GASTEIGER

@<TRIPOS>ATOM
      1 C          -7.4984  -19.2633   20.3693 C.3     1  UNL1        0.2969
      2 F          -7.5888  -18.0220   21.2064 F       1  UNL1       -0.1981
      3 F          -7.4080  -20.5047   19.5321 F       1  UNL1       -0.1981
      4 C          -3.5477  -19.4076   20.0206 C.ar    1  UNL1        0.1384
      5 C          -3.1471  -19.6702   21.4420 C.ar    1  UNL1        0.0369
      6 C          -4.1969  -19.7971   22.5059 C.ar    1  UNL1        0.0030
      7 C          -5.6473  -19.6615   22.1483 C.ar    1  UNL1        0.0012
      8 C          -6.0479  -19.3990   20.7269 C.ar    1  UNL1        0.0422
      9 C          -4.9981  -19.2720   19.6630 C.ar    1  UNL1        0.0379
     10 O          -2.4980  -19.2807   18.9567 O.3     1  UNL1       -0.4755
     11 C          -1.6211  -18.0646   18.9096 C.3     1  UNL1        0.2054
     12 C          -2.0403  -16.8098   19.6165 C.3     1  UNL1        0.0473
     13 C          -2.3820  -16.2564   22.1319 C.3     1  UNL1        0.0001
     14 C          -1.4683  -16.4812   20.9638 C.3     1  UNL1        0.0038
     15 C          -8.9488  -19.1278   20.0117 C.3     1  UNL1        0.1408
     16 N         -10.0014  -19.3146   21.0639 N.3     1  UNL1       -0.2865
     17 H          -9.5335  -19.7034   21.8826 H       1  UNL1        0.1238
     18 C         -10.8025  -18.1393   21.5404 C.3     1  UNL1        0.1319
     19 C         -12.2877  -18.1100   21.3321 C.3     1  UNL1        0.0270
     20 C         -10.1184  -16.9933   22.2250 C.2     1  UNL1        0.2400
     21 O          -9.6896  -15.7941   21.4326 O.2     1  UNL1       -0.2734
     22 N          -9.8631  -17.0466   23.7021 N.am    1  UNL1       -0.2750
     23 C          -9.1790  -15.9007   24.3869 C.3     1  UNL1        0.1149
     24 C         -10.2919  -18.2459   24.4946 C.3     1  UNL1        0.1149
@<TRIPOS>BOND
     1    13    14    1
     2    14    12    1
     3    12    11    1
     4    11    10    1
     5    10     4    1
     6     4     5   ar
     7     5     6   ar
     8     6     7   ar
     9     7     8   ar
    10     8     1    1
    11     1     2    1
    12     1     3    1
    13     1    15    1
    14    15    16    1
    15    16    18    1
    16    18    19    1
    17    18    20    1
    18    20    21    2
    19    20    22   am
    20    22    23    1
    21    22    24    1
    22     8     9   ar
    23     9     4   ar
    24    16    17    1
@<TRIPOS>MOLECULE
*****
 24 24 0 0 0
SMALL
GASTEIGER

@<TRIPOS>ATOM
      1 C          -4.4594  -16.0283   23.6848 C.3     1  UNL1        0.2969
      2 F          -4.8207  -14.7423   23.0024 F       1  UNL1       -0.1981
      3 F          -4.0982  -17.3142   24.3672 F       1  UNL1       -0.1981
      4 C          -8.1828  -15.7894   25.0373 C.ar    1  UNL1        0.1384
      5 C          -7.9391  -15.5163   26.4919 C.ar    1  UNL1        0.0369
      6 C          -6.5354  -15.4139   27.0109 C.ar    1  UNL1        0.0030
      7 C          -5.3756  -15.5845   26.0752 C.ar    1  UNL1        0.0012
      8 C          -5.6193  -15.8576   24.6206 C.ar    1  UNL1        0.0422
      9 C          -7.0230  -15.9600   24.1016 C.ar    1  UNL1        0.0379
     10 O          -9.5865  -15.8918   24.5184 O.3     1  UNL1       -0.4755
     11 C          -9.9191  -16.8871   23.4466 C.3     1  UNL1        0.2054
     12 C         -11.3257  -16.9997   22.9380 C.3     1  UNL1        0.0473
     13 C         -13.6067  -17.9209   23.7740 C.3     1  UNL1        0.0001
     14 C         -12.1848  -18.1555   23.3579 C.3     1  UNL1        0.0038
     15 C          -3.2996  -16.1990   22.7491 C.3     1  UNL1        0.1408
     16 N          -2.4194  -17.4087   22.8585 N.3     1  UNL1       -0.2865
     17 H          -2.5680  -17.7977   23.7896 H       1  UNL1        0.1238
     18 C          -2.5759  -18.5404   21.8864 C.3     1  UNL1        0.1319
     19 C          -1.3952  -19.0161   21.0929 C.3     1  UNL1        0.0270
     20 C          -3.9130  -19.1963   21.7079 C.2     1  UNL1        0.2400
     21 O          -4.5758  -19.8763   22.8690 O.2     1  UNL1       -0.2734
     22 N          -4.5872  -19.1722   20.3682 N.am    1  UNL1       -0.2750
     23 C          -5.9244  -19.8281   20.1896 C.3     1  UNL1        0.1149
     24 C          -3.9244  -18.4922   19.2071 C.3     1  UNL1        0.1149
@<TRIPOS>BOND
     1    13    14    1
     2    14    12    1
     3    12    11    1
     4    11    10    1
     5    10     4    1
     6     4     5   ar
     7     5     6   ar
     8     6     7   ar
     9     7     8   ar
    10     8     1    1
    11     1     2    1
    12     1     3    1
    13     1    15    1
    14    15    16    1
    15    16    18    1
    16    18    19    1
    17    18    20    1
    18    20    21    2
    19    20    22   am
    20    22    23    1
    21    22    24    1
    22     8     9   ar
    23     9     4   ar
    24    16    17    1
