@<TRIPOS>MOLECULE
*****
 28 30 0 0 0
SMALL
GASTEIGER

@<TRIPOS>ATOM
      1 C          -6.4434  -18.6163   22.4591 C.2     1  UNL1        0.2461
      2 O          -5.3459  -17.5950   22.4110 O.2     1  UNL1       -0.2730
      3 N          -7.8263  -18.2121   22.8768 N.am    1  UNL1       -0.2729
      4 C          -8.9238  -19.2334   22.9249 C.3     1  UNL1        0.1152
      5 C          -6.1581  -20.0418   22.0896 C.3     1  UNL1        0.1773
      6 C          -5.8533  -21.3359   19.8575 C.3     1  UNL1        0.1126
      7 N          -5.3442  -20.3515   20.8683 N.pl3   1  UNL1       -0.2980
      8 C          -4.0211  -19.6768   20.6579 C.ar    1  UNL1        0.0491
      9 C          -2.9406  -19.8062   21.6904 C.ar    1  UNL1        0.0154
     10 C          -1.6176  -19.1315   21.4800 C.ar    1  UNL1        0.0135
     11 C          -1.3749  -18.3275   20.2372 C.ar    1  UNL1        0.0683
     12 CL         -0.0518  -17.6528   20.0268 Cl      1  UNL1       -0.0814
     13 C          -2.4553  -18.1981   19.2047 C.ar    1  UNL1        0.0694
     14 CL         -2.2126  -17.3941   17.9619 Cl      1  UNL1       -0.0813
     15 C          -3.7784  -18.8728   19.4151 C.ar    1  UNL1        0.0268
     16 C          -8.1116  -16.7866   23.2463 C.3     1  UNL1        0.1139
     17 C          -7.6903  -16.2605   24.5864 C.ar    1  UNL1       -0.0029
     18 C          -6.3411  -15.6266   24.7530 C.ar    1  UNL1       -0.0026
     19 C          -5.9199  -15.1005   26.0930 C.ar    1  UNL1       -0.0003
     20 C          -6.8479  -15.2084   27.2666 C.ar    1  UNL1       -0.0000
     21 C          -8.1971  -15.8423   27.1000 C.ar    1  UNL1       -0.0003
     22 C          -8.6183  -16.3684   25.7600 C.ar    1  UNL1       -0.0026
     23 C          -8.8181  -15.8872   22.2758 C.3     1  UNL1        0.0967
     24 N         -10.2659  -16.1168   21.9578 N.3     1  UNL1       -0.2710
     25 C         -10.8778  -16.1212   20.5883 C.3     1  UNL1        0.0722
     26 C         -12.3461  -16.3894   20.7375 C.3     1  UNL1        0.0188
     27 C         -12.6416  -16.5509   22.1993 C.3     1  UNL1        0.0188
     28 C         -11.3560  -16.3824   22.9534 C.3     1  UNL1        0.0722
@<TRIPOS>BOND
     1     6     7    1
     2     7     5    1
     3     5     1    1
     4     1     2    2
     5     1     3   am
     6     3     4    1
     7     3    16    1
     8    16    23    1
     9    23    24    1
    10    24    25    1
    11    25    26    1
    12    26    27    1
    13    27    28    1
    14    16    17    1
    15    17    18   ar
    16    18    19   ar
    17    19    20   ar
    18    20    21   ar
    19    21    22   ar
    20     7     8    1
    21     8     9   ar
    22     9    10   ar
    23    10    11   ar
    24    11    12    1
    25    11    13   ar
    26    13    14    1
    27    13    15   ar
    28    28    24    1
    29    22    17   ar
    30    15     8   ar
@<TRIPOS>MOLECULE
*****
 28 30 0 0 0
SMALL
GASTEIGER

@<TRIPOS>ATOM
      1 C          -7.6806  -18.6882   22.2247 C.2     1  UNL1        0.2461
      2 O          -7.3302  -17.5994   21.2542 O.2     1  UNL1       -0.2730
      3 N          -8.7782  -18.4768   23.2250 N.am    1  UNL1       -0.2729
      4 C          -9.1285  -19.5656   24.1954 C.3     1  UNL1        0.1152
      5 C          -6.9334  -19.9885   22.1948 C.3     1  UNL1        0.1773
      6 C          -5.9335  -21.3395   20.2136 C.3     1  UNL1        0.1126
      7 N          -5.8418  -20.2033   21.1886 N.pl3   1  UNL1       -0.2980
      8 C          -4.6586  -19.2820   21.1576 C.ar    1  UNL1        0.0491
      9 C          -4.1885  -18.6220   22.4200 C.ar    1  UNL1        0.0154
     10 C          -3.0053  -17.7006   22.3889 C.ar    1  UNL1        0.0135
     11 C          -2.2921  -17.4392   21.0955 C.ar    1  UNL1        0.0683
     12 CL         -1.1088  -16.5177   21.0644 Cl      1  UNL1       -0.0814
     13 C          -2.7621  -18.0991   19.8331 C.ar    1  UNL1        0.0694
     14 CL         -2.0488  -17.8376   18.5397 Cl      1  UNL1       -0.0813
     15 C          -3.9453  -19.0205   19.8641 C.ar    1  UNL1        0.0268
     16 C          -9.5254  -17.1765   23.2549 C.3     1  UNL1        0.1139
     17 C         -10.5684  -16.8868   22.2165 C.ar    1  UNL1       -0.0029
     18 C         -10.2515  -15.9738   21.0694 C.ar    1  UNL1       -0.0026
     19 C         -11.2945  -15.6842   20.0311 C.ar    1  UNL1       -0.0003
     20 C         -12.6545  -16.3076   20.1399 C.ar    1  UNL1       -0.0000
     21 C         -12.9715  -17.2206   21.2870 C.ar    1  UNL1       -0.0003
     22 C         -11.9284  -17.5102   22.3253 C.ar    1  UNL1       -0.0026
     23 C          -9.2296  -16.1659   24.3231 C.3     1  UNL1        0.0967
     24 N          -7.8088  -15.8681   24.7012 N.3     1  UNL1       -0.2710
     25 C          -7.2639  -15.7993   26.0971 C.3     1  UNL1        0.0722
     26 C          -5.8019  -15.4756   26.0084 C.3     1  UNL1        0.0188
     27 C          -5.4433  -15.3444   24.5578 C.3     1  UNL1        0.0188
     28 C          -6.6837  -15.5870   23.7499 C.3     1  UNL1        0.0722
@<TRIPOS>BOND
     1     6     7    1
     2     7     5    1
     3     5     1    1
     4     1     2    2
     5     1     3   am
     6     3     4    1
     7     3    16    1
     8    16    23    1
     9    23    24    1
    10    24    25    1
    11    25    26    1
    12    26    27    1
    13    27    28    1
    14    16    17    1
    15    17    18   ar
    16    18    19   ar
    17    19    20   ar
    18    20    21   ar
    19    21    22   ar
    20     7     8    1
    21     8     9   ar
    22     9    10   ar
    23    10    11   ar
    24    11    12    1
    25    11    13   ar
    26    13    14    1
    27    13    15   ar
    28    28    24    1
    29    22    17   ar
    30    15     8   ar
@<TRIPOS>MOLECULE
*****
 28 30 0 0 0
SMALL
GASTEIGER

@<TRIPOS>ATOM
      1 C          -7.9956  -17.8293   21.8894 C.2     1  UNL1        0.2461
      2 O          -7.6487  -16.4626   21.3778 O.2     1  UNL1       -0.2730
      3 N          -8.7040  -17.9810   23.2029 N.am    1  UNL1       -0.2729
      4 C          -9.0509  -19.3477   23.7145 C.3     1  UNL1        0.1152
      5 C          -7.6340  -19.0444   21.0876 C.3     1  UNL1        0.1773
      6 C          -6.4272  -21.1701   21.9678 C.3     1  UNL1        0.1126
      7 N          -6.3665  -19.7893   21.3849 N.pl3   1  UNL1       -0.2980
      8 C          -5.0384  -19.1535   21.0993 C.ar    1  UNL1        0.0491
      9 C          -4.5167  -19.1050   19.6937 C.ar    1  UNL1        0.0154
     10 C          -3.1886  -18.4692   19.4081 C.ar    1  UNL1        0.0135
     11 C          -2.3819  -17.8818   20.5281 C.ar    1  UNL1        0.0683
     12 CL         -1.0537  -17.2459   20.2424 Cl      1  UNL1       -0.0814
     13 C          -2.9035  -17.9302   21.9336 C.ar    1  UNL1        0.0694
     14 CL         -2.0969  -17.3428   23.0536 Cl      1  UNL1       -0.0813
     15 C          -4.2317  -18.5661   22.2193 C.ar    1  UNL1        0.0268
     16 C          -9.0655  -16.7659   24.0047 C.3     1  UNL1        0.1139
     17 C          -8.1398  -16.2721   25.0768 C.ar    1  UNL1       -0.0029
     18 C          -6.8018  -15.7027   24.7086 C.ar    1  UNL1       -0.0026
     19 C          -5.8762  -15.2089   25.7806 C.ar    1  UNL1       -0.0003
     20 C          -6.2886  -15.2844   27.2209 C.ar    1  UNL1       -0.0000
     21 C          -7.6265  -15.8537   27.5891 C.ar    1  UNL1       -0.0003
     22 C          -8.5522  -16.3476   26.5170 C.ar    1  UNL1       -0.0026
     23 C         -10.3527  -16.0447   23.7345 C.3     1  UNL1        0.0967
     24 N         -11.2704  -16.5286   22.6511 N.3     1  UNL1       -0.2710
     25 C         -11.2546  -16.0841   21.2186 C.3     1  UNL1        0.0722
     26 C         -12.3395  -16.8227   20.4922 C.3     1  UNL1        0.0188
     27 C         -13.0257  -17.7236   21.4758 C.3     1  UNL1        0.0188
     28 C         -12.3650  -17.5418   22.8101 C.3     1  UNL1        0.0722
@<TRIPOS>BOND
     1     6     7    1
     2     7     5    1
     3     5     1    1
     4     1     2    2
     5     1     3   am
     6     3     4    1
     7     3    16    1
     8    16    23    1
     9    23    24    1
    10    24    25    1
    11    25    26    1
    12    26    27    1
    13    27    28    1
    14    16    17    1
    15    17    18   ar
    16    18    19   ar
    17    19    20   ar
    18    20    21   ar
    19    21    22   ar
    20     7     8    1
    21     8     9   ar
    22     9    10   ar
    23    10    11   ar
    24    11    12    1
    25    11    13   ar
    26    13    14    1
    27    13    15   ar
    28    28    24    1
    29    22    17   ar
    30    15     8   ar
@<TRIPOS>MOLECULE
*****
 28 30 0 0 0
SMALL
GASTEIGER

@<TRIPOS>ATOM
      1 C          -6.6938  -19.4421   20.4368 C.2     1  UNL1        0.2461
      2 O          -6.2462  -18.2287   19.6771 O.2     1  UNL1       -0.2730
      3 N          -6.3058  -19.6113   21.8759 N.am    1  UNL1       -0.2729
      4 C          -6.7534  -20.8247   22.6357 C.3     1  UNL1        0.1152
      5 C          -7.5294  -20.4863   19.7576 C.3     1  UNL1        0.1773
      6 C          -9.3285  -20.5331   17.8839 C.3     1  UNL1        0.1126
      7 N          -8.9061  -20.1446   19.2697 N.pl3   1  UNL1       -0.2980
      8 C          -9.8603  -19.4145   20.1677 C.ar    1  UNL1        0.0491
      9 C         -10.1862  -19.9672   21.5236 C.ar    1  UNL1        0.0154
     10 C         -11.1404  -19.2371   22.4216 C.ar    1  UNL1        0.0135
     11 C         -11.7687  -17.9543   21.9638 C.ar    1  UNL1        0.0683
     12 CL        -12.7229  -17.2242   22.8618 Cl      1  UNL1       -0.0814
     13 C         -11.4428  -17.4016   20.6080 C.ar    1  UNL1        0.0694
     14 CL        -12.0711  -16.1188   20.1501 Cl      1  UNL1       -0.0813
     15 C         -10.4885  -18.1317   19.7099 C.ar    1  UNL1        0.0268
     16 C          -5.4701  -18.5671   22.5552 C.3     1  UNL1        0.1139
     17 C          -6.1217  -17.3501   23.1421 C.ar    1  UNL1       -0.0029
     18 C          -7.5953  -17.1307   22.9681 C.ar    1  UNL1       -0.0026
     19 C          -8.2468  -15.9138   23.5551 C.ar    1  UNL1       -0.0003
     20 C          -7.4247  -14.9162   24.3160 C.ar    1  UNL1       -0.0000
     21 C          -5.9511  -15.1356   24.4900 C.ar    1  UNL1       -0.0003
     22 C          -5.2996  -16.3525   23.9030 C.ar    1  UNL1       -0.0026
     23 C          -3.9830  -18.7398   22.6474 C.3     1  UNL1        0.0967
     24 N          -3.1110  -18.3660   21.4855 N.3     1  UNL1       -0.2710
     25 C          -2.2294  -17.1556   21.3984 C.3     1  UNL1        0.0722
     26 C          -1.5410  -17.1785   20.0658 C.3     1  UNL1        0.0188
     27 C          -1.9972  -18.4032   19.3295 C.3     1  UNL1        0.0188
     28 C          -2.9675  -19.1371   20.2069 C.3     1  UNL1        0.0722
@<TRIPOS>BOND
     1     6     7    1
     2     7     5    1
     3     5     1    1
     4     1     2    2
     5     1     3   am
     6     3     4    1
     7     3    16    1
     8    16    23    1
     9    23    24    1
    10    24    25    1
    11    25    26    1
    12    26    27    1
    13    27    28    1
    14    16    17    1
    15    17    18   ar
    16    18    19   ar
    17    19    20   ar
    18    20    21   ar
    19    21    22   ar
    20     7     8    1
    21     8     9   ar
    22     9    10   ar
    23    10    11   ar
    24    11    12    1
    25    11    13   ar
    26    13    14    1
    27    13    15   ar
    28    28    24    1
    29    22    17   ar
    30    15     8   ar
@<TRIPOS>MOLECULE
*****
 28 30 0 0 0
SMALL
GASTEIGER

@<TRIPOS>ATOM
      1 C          -5.9923  -16.4463   23.5838 C.2     1  UNL1        0.2461
      2 O          -6.7230  -16.4255   22.2741 O.2     1  UNL1       -0.2730
      3 N          -4.8329  -17.3775   23.7812 N.am    1  UNL1       -0.2729
      4 C          -4.1022  -17.3983   25.0910 C.3     1  UNL1        0.1152
      5 C          -6.4209  -15.5360   24.6964 C.3     1  UNL1        0.1773
      6 C          -7.5417  -15.6215   27.0387 C.3     1  UNL1        0.1126
      7 N          -7.5826  -15.9120   25.5677 N.pl3   1  UNL1       -0.2980
      8 C          -8.7851  -16.5785   24.9679 C.ar    1  UNL1        0.0491
      9 C          -9.2417  -17.9097   25.4870 C.ar    1  UNL1        0.0154
     10 C         -10.4442  -18.5762   24.8873 C.ar    1  UNL1        0.0135
     11 C         -11.1901  -17.9116   23.7684 C.ar    1  UNL1        0.0683
     12 CL        -12.3927  -18.5782   23.1687 Cl      1  UNL1       -0.0814
     13 C         -10.7336  -16.5804   23.2493 C.ar    1  UNL1        0.0694
     14 CL        -11.4795  -15.9158   22.1305 Cl      1  UNL1       -0.0813
     15 C          -9.5310  -15.9138   23.8491 C.ar    1  UNL1        0.0268
     16 C          -4.4043  -18.2877   22.6687 C.3     1  UNL1        0.1139
     17 C          -3.2145  -17.9340   21.8264 C.ar    1  UNL1       -0.0029
     18 C          -2.7281  -18.8888   20.7768 C.ar    1  UNL1       -0.0026
     19 C          -1.5384  -18.5350   19.9346 C.ar    1  UNL1       -0.0003
     20 C          -0.8351  -17.2264   20.1420 C.ar    1  UNL1       -0.0000
     21 C          -1.3216  -16.2716   21.1915 C.ar    1  UNL1       -0.0003
     22 C          -2.5113  -16.6254   22.0337 C.ar    1  UNL1       -0.0026
     23 C          -5.1654  -19.5517   22.3984 C.3     1  UNL1        0.0967
     24 N          -6.4964  -19.4929   21.7091 N.3     1  UNL1       -0.2710
     25 C          -6.7190  -19.3666   20.2311 C.3     1  UNL1        0.0722
     26 C          -8.1987  -19.3458   19.9854 C.3     1  UNL1        0.0188
     27 C          -8.8905  -19.4592   21.3115 C.3     1  UNL1        0.0188
     28 C          -7.8384  -19.5501   22.3769 C.3     1  UNL1        0.0722
@<TRIPOS>BOND
     1     6     7    1
     2     7     5    1
     3     5     1    1
     4     1     2    2
     5     1     3   am
     6     3     4    1
     7     3    16    1
     8    16    23    1
     9    23    24    1
    10    24    25    1
    11    25    26    1
    12    26    27    1
    13    27    28    1
    14    16    17    1
    15    17    18   ar
    16    18    19   ar
    17    19    20   ar
    18    20    21   ar
    19    21    22   ar
    20     7     8    1
    21     8     9   ar
    22     9    10   ar
    23    10    11   ar
    24    11    12    1
    25    11    13   ar
    26    13    14    1
    27    13    15   ar
    28    28    24    1
    29    22    17   ar
    30    15     8   ar
@<TRIPOS>MOLECULE
*****
 28 30 0 0 0
SMALL
GASTEIGER

@<TRIPOS>ATOM
      1 C          -7.1270  -18.6898   20.8430 C.2     1  UNL1        0.2461
      2 O          -7.5488  -17.2599   20.6773 O.2     1  UNL1       -0.2730
      3 N          -6.2085  -19.0756   21.9645 N.am    1  UNL1       -0.2729
      4 C          -5.7867  -20.5055   22.1302 C.3     1  UNL1        0.1152
      5 C          -7.6234  -19.7338   19.8872 C.3     1  UNL1        0.1773
      6 C          -9.5178  -20.4303   18.2514 C.3     1  UNL1        0.1126
      7 N          -9.0814  -19.8014   19.5414 N.pl3   1  UNL1       -0.2980
      8 C         -10.1029  -19.2401   20.4854 C.ar    1  UNL1        0.0491
      9 C         -11.0541  -18.1790   20.0170 C.ar    1  UNL1        0.0154
     10 C         -12.0757  -17.6177   20.9611 C.ar    1  UNL1        0.0135
     11 C         -12.1461  -18.1175   22.3736 C.ar    1  UNL1        0.0683
     12 CL        -13.1677  -17.5562   23.3178 Cl      1  UNL1       -0.0814
     13 C         -11.1950  -19.1786   22.8421 C.ar    1  UNL1        0.0694
     14 CL        -11.2655  -19.6784   24.2546 Cl      1  UNL1       -0.0813
     15 C         -10.1734  -19.7399   21.8980 C.ar    1  UNL1        0.0268
     16 C          -5.7121  -18.0316   22.9203 C.3     1  UNL1        0.1139
     17 C          -6.6816  -17.0938   23.5765 C.ar    1  UNL1       -0.0029
     18 C          -6.2587  -15.6956   23.9175 C.ar    1  UNL1       -0.0026
     19 C          -7.2282  -14.7579   24.5737 C.ar    1  UNL1       -0.0003
     20 C          -8.6206  -15.2182   24.8888 C.ar    1  UNL1       -0.0000
     21 C          -9.0435  -16.6164   24.5478 C.ar    1  UNL1       -0.0003
     22 C          -8.0740  -17.5541   23.8916 C.ar    1  UNL1       -0.0026
     23 C          -4.2462  -17.9254   23.2198 C.3     1  UNL1        0.0967
     24 N          -3.2743  -17.6322   22.1154 N.3     1  UNL1       -0.2710
     25 C          -3.0605  -18.4636   20.8854 C.3     1  UNL1        0.0722
     26 C          -1.9996  -17.8014   20.0570 C.3     1  UNL1        0.0188
     27 C          -1.5579  -16.5607   20.7751 C.3     1  UNL1        0.0188
     28 C          -2.3457  -16.4561   22.0473 C.3     1  UNL1        0.0722
@<TRIPOS>BOND
     1     6     7    1
     2     7     5    1
     3     5     1    1
     4     1     2    2
     5     1     3   am
     6     3     4    1
     7     3    16    1
     8    16    23    1
     9    23    24    1
    10    24    25    1
    11    25    26    1
    12    26    27    1
    13    27    28    1
    14    16    17    1
    15    17    18   ar
    16    18    19   ar
    17    19    20   ar
    18    20    21   ar
    19    21    22   ar
    20     7     8    1
    21     8     9   ar
    22     9    10   ar
    23    10    11   ar
    24    11    12    1
    25    11    13   ar
    26    13    14    1
    27    13    15   ar
    28    28    24    1
    29    22    17   ar
    30    15     8   ar
@<TRIPOS>MOLECULE
*****
 28 30 0 0 0
SMALL
GASTEIGER

@<TRIPOS>ATOM
      1 C          -6.6981  -19.1320   20.9303 C.2     1  UNL1        0.2461
      2 O          -6.9200  -17.7211   20.4722 O.2     1  UNL1       -0.2730
      3 N          -5.5028  -19.4681   21.7721 N.am    1  UNL1       -0.2729
      4 C          -5.2809  -20.8790   22.2302 C.3     1  UNL1        0.1152
      5 C          -7.6713  -20.2070   20.5467 C.3     1  UNL1        0.1773
      6 C          -9.2552  -20.0325   18.4947 C.3     1  UNL1        0.1126
      7 N          -9.0022  -19.8395   19.9605 N.pl3   1  UNL1       -0.2980
      8 C         -10.0800  -19.2789   20.8402 C.ar    1  UNL1        0.0491
      9 C         -11.1510  -18.4085   20.2523 C.ar    1  UNL1        0.0154
     10 C         -12.2289  -17.8479   21.1320 C.ar    1  UNL1        0.0135
     11 C         -12.2358  -18.1577   22.5996 C.ar    1  UNL1        0.0683
     12 CL        -13.3138  -17.5970   23.4793 Cl      1  UNL1       -0.0814
     13 C         -11.1650  -19.0280   23.1876 C.ar    1  UNL1        0.0694
     14 CL        -11.1719  -19.3377   24.6552 Cl      1  UNL1       -0.0813
     15 C         -10.0870  -19.5886   22.3079 C.ar    1  UNL1        0.0268
     16 C          -4.5296  -18.3931   22.1558 C.3     1  UNL1        0.1139
     17 C          -3.3653  -18.0818   21.2626 C.ar    1  UNL1       -0.0029
     18 C          -3.2450  -18.7523   19.9262 C.ar    1  UNL1       -0.0026
     19 C          -2.0808  -18.4410   19.0331 C.ar    1  UNL1       -0.0003
     20 C          -1.0369  -17.4593   19.4764 C.ar    1  UNL1       -0.0000
     21 C          -1.1572  -16.7888   20.8127 C.ar    1  UNL1       -0.0003
     22 C          -2.3214  -17.1001   21.7058 C.ar    1  UNL1       -0.0026
     23 C          -4.7205  -17.6293   23.4326 C.3     1  UNL1        0.0967
     24 N          -5.9128  -16.7346   23.6002 N.3     1  UNL1       -0.2710
     25 C          -7.3498  -17.1613   23.5468 C.3     1  UNL1        0.0722
     26 C          -8.2025  -15.9465   23.7642 C.3     1  UNL1        0.0188
     27 C          -7.2923  -14.7690   23.9519 C.3     1  UNL1        0.0188
     28 C          -5.8773  -15.2561   23.8506 C.3     1  UNL1        0.0722
@<TRIPOS>BOND
     1     6     7    1
     2     7     5    1
     3     5     1    1
     4     1     2    2
     5     1     3   am
     6     3     4    1
     7     3    16    1
     8    16    23    1
     9    23    24    1
    10    24    25    1
    11    25    26    1
    12    26    27    1
    13    27    28    1
    14    16    17    1
    15    17    18   ar
    16    18    19   ar
    17    19    20   ar
    18    20    21   ar
    19    21    22   ar
    20     7     8    1
    21     8     9   ar
    22     9    10   ar
    23    10    11   ar
    24    11    12    1
    25    11    13   ar
    26    13    14    1
    27    13    15   ar
    28    28    24    1
    29    22    17   ar
    30    15     8   ar
@<TRIPOS>MOLECULE
*****
 28 30 0 0 0
SMALL
GASTEIGER

@<TRIPOS>ATOM
      1 C          -6.6745  -17.1964   22.3763 C.2     1  UNL1        0.2461
      2 O          -7.6994  -16.7747   21.3655 O.2     1  UNL1       -0.2730
      3 N          -5.9062  -18.4696   22.1791 N.am    1  UNL1       -0.2729
      4 C          -4.8813  -18.8913   23.1899 C.3     1  UNL1        0.1152
      5 C          -6.4178  -16.3450   23.5843 C.3     1  UNL1        0.1773
      6 C          -7.1946  -15.4202   25.8845 C.3     1  UNL1        0.1126
      7 N          -7.4912  -16.1644   24.6164 N.pl3   1  UNL1       -0.2980
      8 C          -8.8610  -16.7280   24.3803 C.ar    1  UNL1        0.0491
      9 C          -9.2481  -18.0406   24.9945 C.ar    1  UNL1        0.0154
     10 C         -10.6180  -18.6042   24.7584 C.ar    1  UNL1        0.0135
     11 C         -11.6008  -17.8552   23.9081 C.ar    1  UNL1        0.0683
     12 CL        -12.9708  -18.4188   23.6721 Cl      1  UNL1       -0.0814
     13 C         -11.2138  -16.5426   23.2939 C.ar    1  UNL1        0.0694
     14 CL        -12.1967  -15.7936   22.4436 Cl      1  UNL1       -0.0813
     15 C          -9.8439  -15.9789   23.5300 C.ar    1  UNL1        0.0268
     16 C          -6.1629  -19.3210   20.9712 C.3     1  UNL1        0.1139
     17 C          -7.5646  -19.5118   20.4721 C.ar    1  UNL1       -0.0029
     18 C          -7.8165  -19.7340   19.0103 C.ar    1  UNL1       -0.0026
     19 C          -9.2181  -19.9247   18.5113 C.ar    1  UNL1       -0.0003
     20 C         -10.3678  -19.8933   19.4742 C.ar    1  UNL1       -0.0000
     21 C         -10.1159  -19.6711   20.9361 C.ar    1  UNL1       -0.0003
     22 C          -8.7143  -19.4803   21.4351 C.ar    1  UNL1       -0.0026
     23 C          -5.0179  -19.9817   20.2623 C.3     1  UNL1        0.0967
     24 N          -3.7349  -19.2340   20.0506 N.3     1  UNL1       -0.2710
     25 C          -3.5335  -18.0741   19.1210 C.3     1  UNL1        0.0722
     26 C          -2.1021  -17.6381   19.2273 C.3     1  UNL1        0.0188
     27 C          -1.4190  -18.5286   20.2225 C.3     1  UNL1        0.0188
     28 C          -2.4281  -19.5148   20.7314 C.3     1  UNL1        0.0722
@<TRIPOS>BOND
     1     6     7    1
     2     7     5    1
     3     5     1    1
     4     1     2    2
     5     1     3   am
     6     3     4    1
     7     3    16    1
     8    16    23    1
     9    23    24    1
    10    24    25    1
    11    25    26    1
    12    26    27    1
    13    27    28    1
    14    16    17    1
    15    17    18   ar
    16    18    19   ar
    17    19    20   ar
    18    20    21   ar
    19    21    22   ar
    20     7     8    1
    21     8     9   ar
    22     9    10   ar
    23    10    11   ar
    24    11    12    1
    25    11    13   ar
    26    13    14    1
    27    13    15   ar
    28    28    24    1
    29    22    17   ar
    30    15     8   ar
@<TRIPOS>MOLECULE
*****
 28 30 0 0 0
SMALL
GASTEIGER

@<TRIPOS>ATOM
      1 C           6.0589   -3.7818   21.6288 C.2     1  UNL1        0.2461
      2 O           4.7641   -4.2483   22.2253 O.2     1  UNL1       -0.2730
      3 N           7.2341   -3.4968   22.5165 N.am    1  UNL1       -0.2729
      4 C           8.5289   -3.0302   21.9200 C.3     1  UNL1        0.1152
      5 C           6.1787   -3.6002   20.1447 C.3     1  UNL1        0.1773
      6 C           4.5324   -4.9600   18.6645 C.3     1  UNL1        0.1126
      7 N           4.9539   -3.6589   19.2807 N.pl3   1  UNL1       -0.2980
      8 C           4.1507   -2.4166   19.0329 C.ar    1  UNL1        0.0491
      9 C           4.3796   -1.6113   17.7882 C.ar    1  UNL1        0.0154
     10 C           3.5764   -0.3690   17.5403 C.ar    1  UNL1        0.0135
     11 C           2.5443    0.0681   18.5371 C.ar    1  UNL1        0.0683
     12 CL          1.7410    1.3105   18.2893 Cl      1  UNL1       -0.0814
     13 C           2.3153   -0.7372   19.7818 C.ar    1  UNL1        0.0694
     14 CL          1.2832   -0.3001   20.7786 Cl      1  UNL1       -0.0813
     15 C           3.1186   -1.9795   20.0296 C.ar    1  UNL1        0.0268
     16 C           7.1143   -3.6783   24.0007 C.3     1  UNL1        0.1139
     17 C           7.3408   -5.0294   24.6117 C.ar    1  UNL1       -0.0029
     18 C           6.8528   -5.3157   26.0008 C.ar    1  UNL1       -0.0026
     19 C           7.0792   -6.6667   26.6118 C.ar    1  UNL1       -0.0003
     20 C           7.7936   -7.7316   25.8335 C.ar    1  UNL1       -0.0000
     21 C           8.2816   -7.4454   24.4443 C.ar    1  UNL1       -0.0003
     22 C           8.0552   -6.0943   23.8334 C.ar    1  UNL1       -0.0026
     23 C           6.7682   -2.5088   24.8738 C.3     1  UNL1        0.0967
     24 N           5.6353   -1.6007   24.4969 N.3     1  UNL1       -0.2710
     25 C           4.2286   -1.6861   25.0108 C.3     1  UNL1        0.0722
     26 C           3.4341   -0.5860   24.3715 C.3     1  UNL1        0.0188
     27 C           4.3497    0.1791   23.4625 C.3     1  UNL1        0.0188
     28 C           5.7101   -0.4481   23.5400 C.3     1  UNL1        0.0722
@<TRIPOS>BOND
     1     6     7    1
     2     7     5    1
     3     5     1    1
     4     1     2    2
     5     1     3   am
     6     3     4    1
     7     3    16    1
     8    16    23    1
     9    23    24    1
    10    24    25    1
    11    25    26    1
    12    26    27    1
    13    27    28    1
    14    16    17    1
    15    17    18   ar
    16    18    19   ar
    17    19    20   ar
    18    20    21   ar
    19    21    22   ar
    20     7     8    1
    21     8     9   ar
    22     9    10   ar
    23    10    11   ar
    24    11    12    1
    25    11    13   ar
    26    13    14    1
    27    13    15   ar
    28    28    24    1
    29    22    17   ar
    30    15     8   ar
