@<TRIPOS>MOLECULE
*****
 37 42 0 0 0
SMALL
GASTEIGER

@<TRIPOS>ATOM
      1 C           0.0699    3.6947   22.0742 C.3     1  UNL1        0.0468
      2 C          -0.6396    3.4368   23.3704 C.ar    1  UNL1        0.0146
      3 C          -2.0101    4.0014   23.6005 C.ar    1  UNL1       -0.0011
      4 C          -2.7195    3.7434   24.8967 C.ar    1  UNL1        0.0014
      5 C          -2.0585    2.9208   25.9627 C.ar    1  UNL1        0.0206
      6 C          -0.6880    2.3562   25.7326 C.ar    1  UNL1        0.0989
      7 C           0.0214    2.6142   24.4364 C.ar    1  UNL1        0.1511
      8 O           1.3920    2.0495   24.2062 O.3     1  UNL1       -0.4678
      9 C           2.0530    1.2270   25.2722 C.3     1  UNL1        0.2510
     10 C           1.3434    0.9690   26.5685 C.ar    1  UNL1        0.1087
     11 C           1.7404    0.2012   27.7943 C.ar    1  UNL1        0.1514
     12 N           0.6152    0.2912   28.7822 N.ar    1  UNL1       -0.2192
     13 C          -0.4771    1.1147   28.1668 C.ar    1  UNL1        0.1828
     14 N          -0.0270    1.5336   26.7986 N.ar    1  UNL1       -0.2851
     15 C           3.0351   -0.5286   27.9969 C.2     1  UNL1        0.2618
     16 N           3.4092   -1.6595   27.0851 N.am    1  UNL1       -0.3240
     17 O           3.9558   -0.1275   29.1110 O.2     1  UNL1       -0.2687
     18 H           2.8049   -1.9227   26.3538 H       1  UNL1        0.1453
     19 H           4.2590   -2.1385   27.2180 H       1  UNL1        0.1453
     20 C          -0.1180    2.7588   20.9171 C.3     1  UNL1        0.0770
     21 N           2.7627   -0.6392   20.2808 N.pl3   1  UNL1       -0.3046
     22 C           1.2852   -0.8978   20.2769 C.3     1  UNL1        0.1081
     23 C           0.3249    0.2349   20.4890 C.3     1  UNL1        0.0938
     24 N           0.8422    1.6262   20.7050 N.3     1  UNL1       -0.2695
     25 C           2.3198    1.8848   20.7090 C.3     1  UNL1        0.0938
     26 C           3.2800    0.7521   20.4969 C.3     1  UNL1        0.1081
     27 C           6.4912   -4.2775   24.7654 C.3     1  UNL1        0.0521
     28 C           5.7991   -3.6511   23.5912 C.ar    1  UNL1        0.0593
     29 C           4.8389   -2.5184   23.8033 C.ar    1  UNL1        0.0148
     30 C           4.1468   -1.8920   22.6292 C.ar    1  UNL1        0.0039
     31 C           4.4150   -2.3982   21.2429 C.ar    1  UNL1        0.0310
     32 C           3.7229   -1.7718   20.0687 C.ar    1  UNL1        0.0493
     33 C           3.9911   -2.2782   18.6824 C.ar    1  UNL1        0.0146
     34 C           4.9513   -3.4108   18.4703 C.ar    1  UNL1        0.0028
     35 C           5.6433   -4.0372   19.6445 C.ar    1  UNL1        0.0192
     36 C           5.3752   -3.5310   21.0307 C.ar    1  UNL1        0.0821
     37 N           6.0673   -4.1574   22.2049 N.ar    1  UNL1       -0.2496
@<TRIPOS>BOND
     1    27    28    1
     2    28    29   ar
     3    29    30   ar
     4    30    31   ar
     5    31    32   ar
     6    32    21    1
     7    21    22    1
     8    22    23    1
     9    23    24    1
    10    24    20    1
    11    20     1    1
    12     1     2    1
    13     2     3   ar
    14     3     4   ar
    15     4     5   ar
    16     5     6   ar
    17     6     7   ar
    18     7     8    1
    19     8     9    1
    20     9    10    1
    21    10    11   ar
    22    11    15    1
    23    15    16   am
    24    15    17    2
    25    11    12   ar
    26    12    13   ar
    27    13    14   ar
    28    24    25    1
    29    25    26    1
    30    32    33   ar
    31    33    34   ar
    32    34    35   ar
    33    35    36   ar
    34    36    37   ar
    35    37    28   ar
    36    36    31   ar
    37    26    21    1
    38     7     2   ar
    39    14    10   ar
    40    14     6    1
    41    16    18    1
    42    16    19    1
@<TRIPOS>MOLECULE
*****
 37 42 0 0 0
SMALL
GASTEIGER

@<TRIPOS>ATOM
      1 C           0.0182    2.8060   23.8270 C.3     1  UNL1        0.0468
      2 C          -1.3423    3.2108   24.3122 C.ar    1  UNL1        0.0146
      3 C          -1.5795    3.4388   25.7756 C.ar    1  UNL1       -0.0011
      4 C          -2.9399    3.8436   26.2607 C.ar    1  UNL1        0.0014
      5 C          -4.0631    4.0205   25.2824 C.ar    1  UNL1        0.0206
      6 C          -3.8259    3.7925   23.8190 C.ar    1  UNL1        0.0989
      7 C          -2.4655    3.3877   23.3338 C.ar    1  UNL1        0.1511
      8 O          -2.2283    3.1597   21.8703 O.3     1  UNL1       -0.4678
      9 C          -3.3515    3.3365   20.8920 C.3     1  UNL1        0.2510
     10 C          -4.7119    3.7414   21.3772 C.ar    1  UNL1        0.1087
     11 C          -6.0023    3.9903   20.6541 C.ar    1  UNL1        0.1514
     12 N          -7.0371    4.3722   21.6707 N.ar    1  UNL1       -0.2192
     13 C          -6.3862    4.3592   23.0221 C.ar    1  UNL1        0.1828
     14 N          -4.9491    3.9694   22.8406 N.ar    1  UNL1       -0.2851
     15 C          -6.2198    3.8773   19.1743 C.2     1  UNL1        0.2618
     16 N          -7.6033    4.0015   18.6080 N.am    1  UNL1       -0.3240
     17 O          -5.0540    3.6400   18.2608 O.2     1  UNL1       -0.2687
     18 H          -8.3684    4.1573   19.2075 H       1  UNL1        0.1453
     19 H          -7.7461    3.9274   17.6367 H       1  UNL1        0.1453
     20 C           0.5630    1.4504   24.1671 C.3     1  UNL1        0.0770
     21 N           2.9667   -0.8362   21.1268 N.pl3   1  UNL1       -0.3046
     22 C           1.7361   -0.0906   20.7031 C.3     1  UNL1        0.1081
     23 C           0.9348    0.6717   21.7166 C.3     1  UNL1        0.0938
     24 N           1.3642    0.6882   23.1537 N.3     1  UNL1       -0.2695
     25 C           2.5949   -0.0574   23.5774 C.3     1  UNL1        0.0938
     26 C           3.3961   -0.8196   22.5639 C.3     1  UNL1        0.1081
     27 C           7.3545    1.3357   16.3018 C.3     1  UNL1        0.0521
     28 C           6.4579    0.6022   17.2547 C.ar    1  UNL1        0.0593
     29 C           5.6567    1.3644   18.2682 C.ar    1  UNL1        0.0148
     30 C           4.7600    0.6309   19.2210 C.ar    1  UNL1        0.0039
     31 C           4.6646   -0.8649   19.1605 C.ar    1  UNL1        0.0310
     32 C           3.7679   -1.5984   20.1134 C.ar    1  UNL1        0.0493
     33 C           3.6725   -3.0942   20.0528 C.ar    1  UNL1        0.0146
     34 C           4.4737   -3.8563   19.0394 C.ar    1  UNL1        0.0028
     35 C           5.3704   -3.1228   18.0865 C.ar    1  UNL1        0.0192
     36 C           5.4658   -1.6271   18.1470 C.ar    1  UNL1        0.0821
     37 N           6.3625   -0.8936   17.1941 N.ar    1  UNL1       -0.2496
@<TRIPOS>BOND
     1    27    28    1
     2    28    29   ar
     3    29    30   ar
     4    30    31   ar
     5    31    32   ar
     6    32    21    1
     7    21    22    1
     8    22    23    1
     9    23    24    1
    10    24    20    1
    11    20     1    1
    12     1     2    1
    13     2     3   ar
    14     3     4   ar
    15     4     5   ar
    16     5     6   ar
    17     6     7   ar
    18     7     8    1
    19     8     9    1
    20     9    10    1
    21    10    11   ar
    22    11    15    1
    23    15    16   am
    24    15    17    2
    25    11    12   ar
    26    12    13   ar
    27    13    14   ar
    28    24    25    1
    29    25    26    1
    30    32    33   ar
    31    33    34   ar
    32    34    35   ar
    33    35    36   ar
    34    36    37   ar
    35    37    28   ar
    36    36    31   ar
    37    26    21    1
    38     7     2   ar
    39    14    10   ar
    40    14     6    1
    41    16    18    1
    42    16    19    1
@<TRIPOS>MOLECULE
*****
 37 42 0 0 0
SMALL
GASTEIGER

@<TRIPOS>ATOM
      1 C          -0.9502    2.9339   24.8667 C.3     1  UNL1        0.0468
      2 C          -2.3407    3.4073   25.1710 C.ar    1  UNL1        0.0146
      3 C          -2.7698    3.6086   26.5941 C.ar    1  UNL1       -0.0011
      4 C          -4.1603    4.0820   26.8983 C.ar    1  UNL1        0.0014
      5 C          -5.1216    4.3540   25.7794 C.ar    1  UNL1        0.0206
      6 C          -4.6925    4.1526   24.3563 C.ar    1  UNL1        0.0989
      7 C          -3.3020    3.6793   24.0521 C.ar    1  UNL1        0.1511
      8 O          -2.8729    3.4779   22.6289 O.3     1  UNL1       -0.4678
      9 C          -3.8342    3.7498   21.5101 C.3     1  UNL1        0.2510
     10 C          -5.2247    4.2232   21.8144 C.ar    1  UNL1        0.1087
     11 C          -6.3834    4.5702   20.9273 C.ar    1  UNL1        0.1514
     12 N          -7.5287    4.9861   21.8021 N.ar    1  UNL1       -0.2192
     13 C          -7.0778    4.8960   23.2299 C.ar    1  UNL1        0.1828
     14 N          -5.6538    4.4246   23.2375 N.ar    1  UNL1       -0.2851
     15 C          -6.3948    4.5116   19.4284 C.2     1  UNL1        0.2618
     16 N          -7.6446    4.1091   18.7032 N.am    1  UNL1       -0.3240
     17 O          -5.1566    4.8556   18.6549 O.2     1  UNL1       -0.2687
     18 H          -8.4573    3.8833   19.2109 H       1  UNL1        0.1453
     19 H          -7.6522    4.0706   17.7195 H       1  UNL1        0.1453
     20 C          -0.5071    1.5721   25.3129 C.3     1  UNL1        0.0770
     21 N           1.4499    1.0471   29.3309 N.pl3   1  UNL1       -0.3046
     22 C           2.1796    1.7552   28.2281 C.3     1  UNL1        0.1081
     23 C           1.5272    1.9302   26.8887 C.3     1  UNL1        0.0938
     24 N           0.1452    1.3971   26.6522 N.3     1  UNL1       -0.2695
     25 C          -0.5844    0.6890   27.7551 C.3     1  UNL1        0.0938
     26 C           0.0679    0.5140   29.0944 C.3     1  UNL1        0.1081
     27 C           1.1926    4.9223   35.0025 C.3     1  UNL1        0.0521
     28 C           1.4200    3.9097   33.9194 C.ar    1  UNL1        0.0593
     29 C           0.7677    4.0847   32.5801 C.ar    1  UNL1        0.0148
     30 C           0.9951    3.0722   31.4970 C.ar    1  UNL1        0.0039
     31 C           1.8749    1.8847   31.7533 C.ar    1  UNL1        0.0310
     32 C           2.1023    0.8721   30.6702 C.ar    1  UNL1        0.0493
     33 C           2.9821   -0.3155   30.9265 C.ar    1  UNL1        0.0146
     34 C           3.6345   -0.4905   32.2658 C.ar    1  UNL1        0.0028
     35 C           3.4071    0.5221   33.3489 C.ar    1  UNL1        0.0192
     36 C           2.5273    1.7096   33.0926 C.ar    1  UNL1        0.0821
     37 N           2.2998    2.7222   34.1757 N.ar    1  UNL1       -0.2496
@<TRIPOS>BOND
     1    27    28    1
     2    28    29   ar
     3    29    30   ar
     4    30    31   ar
     5    31    32   ar
     6    32    21    1
     7    21    22    1
     8    22    23    1
     9    23    24    1
    10    24    20    1
    11    20     1    1
    12     1     2    1
    13     2     3   ar
    14     3     4   ar
    15     4     5   ar
    16     5     6   ar
    17     6     7   ar
    18     7     8    1
    19     8     9    1
    20     9    10    1
    21    10    11   ar
    22    11    15    1
    23    15    16   am
    24    15    17    2
    25    11    12   ar
    26    12    13   ar
    27    13    14   ar
    28    24    25    1
    29    25    26    1
    30    32    33   ar
    31    33    34   ar
    32    34    35   ar
    33    35    36   ar
    34    36    37   ar
    35    37    28   ar
    36    36    31   ar
    37    26    21    1
    38     7     2   ar
    39    14    10   ar
    40    14     6    1
    41    16    18    1
    42    16    19    1
@<TRIPOS>MOLECULE
*****
 37 42 0 0 0
SMALL
GASTEIGER

@<TRIPOS>ATOM
      1 C           6.0848   -2.7146   32.8183 C.3     1  UNL1        0.0468
      2 C           5.1282   -1.5842   32.5792 C.ar    1  UNL1        0.0146
      3 C           4.6005   -1.3275   31.1987 C.ar    1  UNL1       -0.0011
      4 C           3.6439   -0.1972   30.9596 C.ar    1  UNL1        0.0014
      5 C           3.2151    0.6766   32.1009 C.ar    1  UNL1        0.0206
      6 C           3.7427    0.4200   33.4814 C.ar    1  UNL1        0.0989
      7 C           4.6993   -0.7104   33.7205 C.ar    1  UNL1        0.1511
      8 O           5.2271   -0.9671   35.1010 O.3     1  UNL1       -0.4678
      9 C           4.7982   -0.0933   36.2423 C.3     1  UNL1        0.2510
     10 C           3.8416    1.0371   36.0031 C.ar    1  UNL1        0.1087
     11 C           3.2439    2.0582   36.9251 C.ar    1  UNL1        0.1514
     12 N           2.3468    2.9459   36.1145 N.ar    1  UNL1       -0.2192
     13 C           2.3901    2.4735   34.6915 C.ar    1  UNL1        0.1828
     14 N           3.3139    1.2937   34.6227 N.ar    1  UNL1       -0.2851
     15 C           3.4986    2.1717   38.3990 C.2     1  UNL1        0.2618
     16 N           3.8706    3.4966   38.9959 N.am    1  UNL1       -0.3240
     17 O           3.3815    0.9604   39.2758 O.2     1  UNL1       -0.2687
     18 H           3.9475    4.2916   38.4204 H       1  UNL1        0.1453
     19 H           4.0377    3.5711   39.9633 H       1  UNL1        0.1453
     20 C           7.4193   -2.7254   32.1334 C.3     1  UNL1        0.0770
     21 N           7.9877   -5.0959   28.3508 N.pl3   1  UNL1       -0.3046
     22 C           6.9692   -5.5308   29.3625 C.3     1  UNL1        0.1081
     23 C           6.7797   -4.7406   30.6234 C.3     1  UNL1        0.0938
     24 N           7.6087   -3.5156   30.8725 N.3     1  UNL1       -0.2695
     25 C           8.6272   -3.0807   29.8608 C.3     1  UNL1        0.0938
     26 C           8.8167   -3.8708   28.5999 C.3     1  UNL1        0.1081
     27 C           6.2627   -3.6783   21.8497 C.3     1  UNL1        0.0521
     28 C           6.7413   -4.2302   23.1597 C.ar    1  UNL1        0.0593
     29 C           6.5519   -3.4401   24.4206 C.ar    1  UNL1        0.0148
     30 C           7.0305   -3.9920   25.7307 C.ar    1  UNL1        0.0039
     31 C           7.6985   -5.3341   25.7799 C.ar    1  UNL1        0.0310
     32 C           8.1772   -5.8860   27.0900 C.ar    1  UNL1        0.0493
     33 C           8.8453   -7.2282   27.1392 C.ar    1  UNL1        0.0146
     34 C           9.0347   -8.0183   25.8784 C.ar    1  UNL1        0.0028
     35 C           8.5561   -7.4664   24.5683 C.ar    1  UNL1        0.0192
     36 C           7.8880   -6.1243   24.5190 C.ar    1  UNL1        0.0821
     37 N           7.4094   -5.5724   23.2090 N.ar    1  UNL1       -0.2496
@<TRIPOS>BOND
     1    27    28    1
     2    28    29   ar
     3    29    30   ar
     4    30    31   ar
     5    31    32   ar
     6    32    21    1
     7    21    22    1
     8    22    23    1
     9    23    24    1
    10    24    20    1
    11    20     1    1
    12     1     2    1
    13     2     3   ar
    14     3     4   ar
    15     4     5   ar
    16     5     6   ar
    17     6     7   ar
    18     7     8    1
    19     8     9    1
    20     9    10    1
    21    10    11   ar
    22    11    15    1
    23    15    16   am
    24    15    17    2
    25    11    12   ar
    26    12    13   ar
    27    13    14   ar
    28    24    25    1
    29    25    26    1
    30    32    33   ar
    31    33    34   ar
    32    34    35   ar
    33    35    36   ar
    34    36    37   ar
    35    37    28   ar
    36    36    31   ar
    37    26    21    1
    38     7     2   ar
    39    14    10   ar
    40    14     6    1
    41    16    18    1
    42    16    19    1
@<TRIPOS>MOLECULE
*****
 37 42 0 0 0
SMALL
GASTEIGER

@<TRIPOS>ATOM
      1 C          -1.1253    3.0492   24.9864 C.3     1  UNL1        0.0468
      2 C          -2.5166    3.5536   25.2312 C.ar    1  UNL1        0.0146
      3 C          -2.9868    3.8068   26.6329 C.ar    1  UNL1       -0.0011
      4 C          -4.3781    4.3112   26.8776 C.ar    1  UNL1        0.0014
      5 C          -5.2992    4.5623   25.7207 C.ar    1  UNL1        0.0206
      6 C          -4.8290    4.3092   24.3190 C.ar    1  UNL1        0.0989
      7 C          -3.4377    3.8048   24.0743 C.ar    1  UNL1        0.1511
      8 O          -2.9675    3.5516   22.6725 O.3     1  UNL1       -0.4678
      9 C          -3.8885    3.8028   21.5156 C.3     1  UNL1        0.2510
     10 C          -5.2799    4.3072   21.7604 C.ar    1  UNL1        0.1087
     11 C          -6.4042    4.6438   20.8263 C.ar    1  UNL1        0.1514
     12 N          -7.5693    5.1051   21.6508 N.ar    1  UNL1       -0.2192
     13 C          -7.1650    5.0535   23.0943 C.ar    1  UNL1        0.1828
     14 N          -5.7501    4.5604   23.1621 N.ar    1  UNL1       -0.2851
     15 C          -6.3695    4.5378   19.3305 C.2     1  UNL1        0.2618
     16 N          -7.3821    3.6937   18.6148 N.am    1  UNL1       -0.3240
     17 O          -5.3224    5.2759   18.5503 O.2     1  UNL1       -0.2687
     18 H          -8.0694    3.2092   19.1269 H       1  UNL1        0.1453
     19 H          -7.3594    3.6241   17.6330 H       1  UNL1        0.1453
     20 C          -0.6529    1.7950   25.6600 C.3     1  UNL1        0.0770
     21 N           0.9455    1.9636   29.8632 N.pl3   1  UNL1       -0.3046
     22 C          -0.2060    1.0604   29.5344 C.3     1  UNL1        0.1081
     23 C          -0.7389    1.0042   28.1333 C.3     1  UNL1        0.0938
     24 N          -0.1201    1.8512   27.0611 N.3     1  UNL1       -0.2695
     25 C           1.0315    2.7544   27.3899 C.3     1  UNL1        0.0938
     26 C           1.5643    2.8106   28.7909 C.3     1  UNL1        0.1081
     27 C           5.2842   -2.1964   33.1979 C.3     1  UNL1        0.0521
     28 C           4.3327   -1.1424   32.7145 C.ar    1  UNL1        0.0593
     29 C           3.7999   -1.1986   31.3135 C.ar    1  UNL1        0.0148
     30 C           2.8484   -0.1445   30.8300 C.ar    1  UNL1        0.0039
     31 C           2.4298    0.9657   31.7476 C.ar    1  UNL1        0.0310
     32 C           1.4783    2.0197   31.2642 C.ar    1  UNL1        0.0493
     33 C           1.0596    3.1300   32.1819 C.ar    1  UNL1        0.0146
     34 C           1.5924    3.1862   33.5829 C.ar    1  UNL1        0.0028
     35 C           2.5439    2.1321   34.0664 C.ar    1  UNL1        0.0192
     36 C           2.9625    1.0219   33.1488 C.ar    1  UNL1        0.0821
     37 N           3.9140   -0.0321   33.6322 N.ar    1  UNL1       -0.2496
@<TRIPOS>BOND
     1    27    28    1
     2    28    29   ar
     3    29    30   ar
     4    30    31   ar
     5    31    32   ar
     6    32    21    1
     7    21    22    1
     8    22    23    1
     9    23    24    1
    10    24    20    1
    11    20     1    1
    12     1     2    1
    13     2     3   ar
    14     3     4   ar
    15     4     5   ar
    16     5     6   ar
    17     6     7   ar
    18     7     8    1
    19     8     9    1
    20     9    10    1
    21    10    11   ar
    22    11    15    1
    23    15    16   am
    24    15    17    2
    25    11    12   ar
    26    12    13   ar
    27    13    14   ar
    28    24    25    1
    29    25    26    1
    30    32    33   ar
    31    33    34   ar
    32    34    35   ar
    33    35    36   ar
    34    36    37   ar
    35    37    28   ar
    36    36    31   ar
    37    26    21    1
    38     7     2   ar
    39    14    10   ar
    40    14     6    1
    41    16    18    1
    42    16    19    1
@<TRIPOS>MOLECULE
*****
 37 42 0 0 0
SMALL
GASTEIGER

@<TRIPOS>ATOM
      1 C          -0.7093    3.8841   19.1247 C.3     1  UNL1        0.0468
      2 C          -2.1943    3.9932   18.9428 C.ar    1  UNL1        0.0146
      3 C          -2.7843    3.9762   17.5638 C.ar    1  UNL1       -0.0011
      4 C          -4.2692    4.0853   17.3821 C.ar    1  UNL1        0.0014
      5 C          -5.1641    4.2113   18.5792 C.ar    1  UNL1        0.0206
      6 C          -4.5741    4.2283   19.9582 C.ar    1  UNL1        0.0989
      7 C          -3.0892    4.1192   20.1400 C.ar    1  UNL1        0.1511
      8 O          -2.4992    4.1362   21.5190 O.3     1  UNL1       -0.4678
      9 C          -3.3941    4.2622   22.7162 C.3     1  UNL1        0.2510
     10 C          -4.8791    4.3713   22.5343 C.ar    1  UNL1        0.1087
     11 C          -6.0035    4.5056   23.5180 C.ar    1  UNL1        0.1514
     12 N          -7.2884    4.5717   22.7469 N.ar    1  UNL1       -0.2192
     13 C          -6.9581    4.4782   21.2867 C.ar    1  UNL1        0.1828
     14 N          -5.4691    4.3543   21.1553 N.ar    1  UNL1       -0.2851
     15 C          -5.8669    4.5637   25.0106 C.2     1  UNL1        0.2618
     16 N          -6.5313    5.6653   25.7822 N.am    1  UNL1       -0.3240
     17 O          -5.0660    3.5204   25.7317 O.2     1  UNL1       -0.2687
     18 H          -7.0570    6.3500   25.3089 H       1  UNL1        0.1453
     19 H          -6.4417    5.7034   26.7618 H       1  UNL1        0.1453
     20 C           0.0933    2.9935   18.2231 C.3     1  UNL1        0.0770
     21 N           2.3884   -0.4724   19.9464 N.pl3   1  UNL1       -0.3046
     22 C           0.9569   -0.2527   20.3366 C.3     1  UNL1        0.1081
     23 C           0.1918    0.9027   19.7621 C.3     1  UNL1        0.0938
     24 N           0.8583    1.8383   18.7976 N.3     1  UNL1       -0.2695
     25 C           2.2900    1.6185   18.4074 C.3     1  UNL1        0.0938
     26 C           3.0550    0.4632   18.9818 C.3     1  UNL1        0.1081
     27 C           4.8534   -1.5364   26.2742 C.3     1  UNL1        0.0521
     28 C           4.4284   -1.5592   24.8359 C.ar    1  UNL1        0.0593
     29 C           3.6634   -0.4040   24.2615 C.ar    1  UNL1        0.0148
     30 C           3.2384   -0.4268   22.8231 C.ar    1  UNL1        0.0039
     31 C           3.5785   -1.6049   21.9592 C.ar    1  UNL1        0.0310
     32 C           3.1535   -1.6277   20.5208 C.ar    1  UNL1        0.0493
     33 C           3.4935   -2.8058   19.6569 C.ar    1  UNL1        0.0146
     34 C           4.2586   -3.9611   20.2313 C.ar    1  UNL1        0.0028
     35 C           4.6836   -3.9383   21.6696 C.ar    1  UNL1        0.0192
     36 C           4.3435   -2.7602   22.5336 C.ar    1  UNL1        0.0821
     37 N           4.7685   -2.7374   23.9719 N.ar    1  UNL1       -0.2496
@<TRIPOS>BOND
     1    27    28    1
     2    28    29   ar
     3    29    30   ar
     4    30    31   ar
     5    31    32   ar
     6    32    21    1
     7    21    22    1
     8    22    23    1
     9    23    24    1
    10    24    20    1
    11    20     1    1
    12     1     2    1
    13     2     3   ar
    14     3     4   ar
    15     4     5   ar
    16     5     6   ar
    17     6     7   ar
    18     7     8    1
    19     8     9    1
    20     9    10    1
    21    10    11   ar
    22    11    15    1
    23    15    16   am
    24    15    17    2
    25    11    12   ar
    26    12    13   ar
    27    13    14   ar
    28    24    25    1
    29    25    26    1
    30    32    33   ar
    31    33    34   ar
    32    34    35   ar
    33    35    36   ar
    34    36    37   ar
    35    37    28   ar
    36    36    31   ar
    37    26    21    1
    38     7     2   ar
    39    14    10   ar
    40    14     6    1
    41    16    18    1
    42    16    19    1
@<TRIPOS>MOLECULE
*****
 37 42 0 0 0
SMALL
GASTEIGER

@<TRIPOS>ATOM
      1 C          -1.0787    2.9412   20.4945 C.3     1  UNL1        0.0468
      2 C          -1.1713    3.1973   21.9696 C.ar    1  UNL1        0.0146
      3 C           0.0507    3.0732   22.8305 C.ar    1  UNL1       -0.0011
      4 C          -0.0420    3.3292   24.3056 C.ar    1  UNL1        0.0014
      5 C          -1.3567    3.7094   24.9197 C.ar    1  UNL1        0.0206
      6 C          -2.5787    3.8334   24.0587 C.ar    1  UNL1        0.0989
      7 C          -2.4860    3.5774   22.5837 C.ar    1  UNL1        0.1511
      8 O          -3.7081    3.7015   21.7227 O.3     1  UNL1       -0.4678
      9 C          -5.0227    4.0816   22.3368 C.3     1  UNL1        0.2510
     10 C          -5.1153    4.3377   23.8119 C.ar    1  UNL1        0.1087
     11 C          -6.2657    4.7253   24.6930 C.ar    1  UNL1        0.1514
     12 N          -5.7547    4.8408   26.0985 N.ar    1  UNL1       -0.2192
     13 C          -4.2885    4.5245   26.0861 C.ar    1  UNL1        0.1828
     14 N          -3.8933    4.2136   24.6729 N.ar    1  UNL1       -0.2851
     15 C          -7.6790    4.9568   24.2469 C.2     1  UNL1        0.2618
     16 N          -8.4414    3.8567   23.5696 N.am    1  UNL1       -0.3240
     17 O          -8.3299    6.2883   24.4779 O.2     1  UNL1       -0.2687
     18 H          -8.0142    2.9828   23.4180 H       1  UNL1        0.1453
     19 H          -9.3690    4.0086   23.2768 H       1  UNL1        0.1453
     20 C           0.2576    2.9555   19.8132 C.3     1  UNL1        0.0770
     21 N           2.8389   -0.7304   19.8449 N.pl3   1  UNL1       -0.3046
     22 C           1.3679   -0.8426   20.1158 C.3     1  UNL1        0.1081
     23 C           0.5074    0.3860   20.1053 C.3     1  UNL1        0.0938
     24 N           1.1180    1.7269   19.8238 N.3     1  UNL1       -0.2695
     25 C           2.5891    1.8391   19.5529 C.3     1  UNL1        0.0938
     26 C           3.4495    0.6105   19.5634 C.3     1  UNL1        0.1081
     27 C           6.2336   -3.8029   24.9718 C.3     1  UNL1        0.0521
     28 C           5.6001   -3.3419   23.6927 C.ar    1  UNL1        0.0593
     29 C           4.7397   -2.1133   23.6822 C.ar    1  UNL1        0.0148
     30 C           4.1061   -1.6523   22.4031 C.ar    1  UNL1        0.0039
     31 C           4.3329   -2.4200   21.1346 C.ar    1  UNL1        0.0310
     32 C           3.6993   -1.9590   19.8555 C.ar    1  UNL1        0.0493
     33 C           3.9261   -2.7267   18.5869 C.ar    1  UNL1        0.0146
     34 C           4.7865   -3.9554   18.5975 C.ar    1  UNL1        0.0028
     35 C           5.4201   -4.4163   19.8765 C.ar    1  UNL1        0.0192
     36 C           5.1933   -3.6487   21.1451 C.ar    1  UNL1        0.0821
     37 N           5.8269   -4.1096   22.4242 N.ar    1  UNL1       -0.2496
@<TRIPOS>BOND
     1    27    28    1
     2    28    29   ar
     3    29    30   ar
     4    30    31   ar
     5    31    32   ar
     6    32    21    1
     7    21    22    1
     8    22    23    1
     9    23    24    1
    10    24    20    1
    11    20     1    1
    12     1     2    1
    13     2     3   ar
    14     3     4   ar
    15     4     5   ar
    16     5     6   ar
    17     6     7   ar
    18     7     8    1
    19     8     9    1
    20     9    10    1
    21    10    11   ar
    22    11    15    1
    23    15    16   am
    24    15    17    2
    25    11    12   ar
    26    12    13   ar
    27    13    14   ar
    28    24    25    1
    29    25    26    1
    30    32    33   ar
    31    33    34   ar
    32    34    35   ar
    33    35    36   ar
    34    36    37   ar
    35    37    28   ar
    36    36    31   ar
    37    26    21    1
    38     7     2   ar
    39    14    10   ar
    40    14     6    1
    41    16    18    1
    42    16    19    1
@<TRIPOS>MOLECULE
*****
 37 42 0 0 0
SMALL
GASTEIGER

@<TRIPOS>ATOM
      1 C          -1.9623    3.7529   22.7705 C.3     1  UNL1        0.0468
      2 C          -3.4227    3.9818   22.5152 C.ar    1  UNL1        0.0146
      3 C          -4.0024    3.6899   21.1630 C.ar    1  UNL1       -0.0011
      4 C          -5.4626    3.9188   20.9077 C.ar    1  UNL1        0.0014
      5 C          -6.3432    4.4396   22.0047 C.ar    1  UNL1        0.0206
      6 C          -5.7634    4.7316   23.3569 C.ar    1  UNL1        0.0989
      7 C          -4.3032    4.5027   23.6122 C.ar    1  UNL1        0.1511
      8 O          -3.7234    4.7946   24.9645 O.3     1  UNL1       -0.4678
      9 C          -4.6039    5.3155   26.0615 C.3     1  UNL1        0.2510
     10 C          -6.0642    5.5444   25.8062 C.ar    1  UNL1        0.1087
     11 C          -7.1703    6.0463   26.6863 C.ar    1  UNL1        0.1514
     12 N          -8.4338    6.0645   25.8779 N.ar    1  UNL1       -0.2192
     13 C          -8.1084    5.5739   24.4982 C.ar    1  UNL1        0.1828
     14 N          -6.6440    5.2524   24.4539 N.ar    1  UNL1       -0.2851
     15 C          -7.0366    6.4577   28.1225 C.2     1  UNL1        0.2618
     16 N          -5.7896    7.1465   28.5923 N.am    1  UNL1       -0.3240
     17 O          -8.1496    6.1803   29.0890 O.2     1  UNL1       -0.2687
     18 H          -5.0590    7.3286   27.9579 H       1  UNL1        0.1453
     19 H          -5.7017    7.4166   29.5349 H       1  UNL1        0.1453
     20 C          -0.9473    4.1755   21.7502 C.3     1  UNL1        0.0770
     21 N           1.8080    1.1247   19.9197 N.pl3   1  UNL1       -0.3046
     22 C           2.3641    2.4082   20.4613 C.3     1  UNL1        0.1081
     23 C           1.4456    3.4252   21.0715 C.3     1  UNL1        0.0938
     24 N          -0.0289    3.1586   21.1400 N.3     1  UNL1       -0.2695
     25 C          -0.5850    1.8750   20.5984 C.3     1  UNL1        0.0938
     26 C           0.3335    0.8581   19.9883 C.3     1  UNL1        0.1081
     27 C           5.5220   -3.8891   22.8039 C.3     1  UNL1        0.0521
     28 C           4.8231   -2.8899   21.9303 C.ar    1  UNL1        0.0593
     29 C           3.9047   -1.8729   22.5404 C.ar    1  UNL1        0.0148
     30 C           3.2058   -0.8737   21.6669 C.ar    1  UNL1        0.0039
     31 C           3.4253   -0.8914   20.1831 C.ar    1  UNL1        0.0310
     32 C           2.7264    0.1078   19.3096 C.ar    1  UNL1        0.0493
     33 C           2.9460    0.0900   17.8258 C.ar    1  UNL1        0.0146
     34 C           3.8644   -0.9269   17.2156 C.ar    1  UNL1        0.0028
     35 C           4.5633   -1.9261   18.0892 C.ar    1  UNL1        0.0192
     36 C           4.3438   -1.9084   19.5729 C.ar    1  UNL1        0.0821
     37 N           5.0427   -2.9076   20.4465 N.ar    1  UNL1       -0.2496
@<TRIPOS>BOND
     1    27    28    1
     2    28    29   ar
     3    29    30   ar
     4    30    31   ar
     5    31    32   ar
     6    32    21    1
     7    21    22    1
     8    22    23    1
     9    23    24    1
    10    24    20    1
    11    20     1    1
    12     1     2    1
    13     2     3   ar
    14     3     4   ar
    15     4     5   ar
    16     5     6   ar
    17     6     7   ar
    18     7     8    1
    19     8     9    1
    20     9    10    1
    21    10    11   ar
    22    11    15    1
    23    15    16   am
    24    15    17    2
    25    11    12   ar
    26    12    13   ar
    27    13    14   ar
    28    24    25    1
    29    25    26    1
    30    32    33   ar
    31    33    34   ar
    32    34    35   ar
    33    35    36   ar
    34    36    37   ar
    35    37    28   ar
    36    36    31   ar
    37    26    21    1
    38     7     2   ar
    39    14    10   ar
    40    14     6    1
    41    16    18    1
    42    16    19    1
@<TRIPOS>MOLECULE
*****
 37 42 0 0 0
SMALL
GASTEIGER

@<TRIPOS>ATOM
      1 C          -0.7102    2.7573   24.2247 C.3     1  UNL1        0.0468
      2 C          -2.0528    3.2521   24.6750 C.ar    1  UNL1        0.0146
      3 C          -2.3479    3.3929   26.1389 C.ar    1  UNL1       -0.0011
      4 C          -3.6904    3.8876   26.5892 C.ar    1  UNL1        0.0014
      5 C          -4.7379    4.2415   25.5755 C.ar    1  UNL1        0.0206
      6 C          -4.4429    4.1006   24.1116 C.ar    1  UNL1        0.0989
      7 C          -3.1003    3.6060   23.6614 C.ar    1  UNL1        0.1511
      8 O          -2.8052    3.4651   22.1974 O.3     1  UNL1       -0.4678
      9 C          -3.8527    3.8190   21.1837 C.3     1  UNL1        0.2510
     10 C          -5.1953    4.3137   21.6341 C.ar    1  UNL1        0.1087
     11 C          -6.4165    4.7362   20.8723 C.ar    1  UNL1        0.1514
     12 N          -7.4663    5.1381   21.8655 N.ar    1  UNL1       -0.2192
     13 C          -6.8939    4.9640   23.2410 C.ar    1  UNL1        0.1828
     14 N          -5.4904    4.4545   23.0980 N.ar    1  UNL1       -0.2851
     15 C          -6.5623    4.7536   19.3795 C.2     1  UNL1        0.2618
     16 N          -7.7637    4.1272   18.7360 N.am    1  UNL1       -0.3240
     17 O          -5.5067    5.3974   18.5303 O.2     1  UNL1       -0.2687
     18 H          -8.4566    3.7047   19.2933 H       1  UNL1        0.1453
     19 H          -7.8595    4.1387   17.7562 H       1  UNL1        0.1453
     20 C           0.1969    3.6588   23.4408 C.3     1  UNL1        0.0770
     21 N           2.9410    1.9291   20.3217 N.pl3   1  UNL1       -0.3046
     22 C           3.4480    2.1793   21.7110 C.3     1  UNL1        0.1081
     23 C           2.5333    2.7559   22.7508 C.3     1  UNL1        0.0938
     24 N           1.1116    3.0822   22.4011 N.3     1  UNL1       -0.2695
     25 C           0.6046    2.8320   21.0117 C.3     1  UNL1        0.0938
     26 C           1.5193    2.2555   19.9720 C.3     1  UNL1        0.1081
     27 C           4.3894   -4.5974   18.7229 C.3     1  UNL1        0.0521
     28 C           4.2559   -3.1099   18.8627 C.ar    1  UNL1        0.0593
     29 C           3.3413   -2.5334   19.9023 C.ar    1  UNL1        0.0148
     30 C           3.2078   -1.0459   20.0421 C.ar    1  UNL1        0.0039
     31 C           3.9891   -0.1349   19.1423 C.ar    1  UNL1        0.0310
     32 C           3.8556    1.3526   19.2821 C.ar    1  UNL1        0.0493
     33 C           4.6369    2.2635   18.3821 C.ar    1  UNL1        0.0146
     34 C           5.5516    1.6870   17.3425 C.ar    1  UNL1        0.0028
     35 C           5.6850    0.1995   17.2027 C.ar    1  UNL1        0.0192
     36 C           4.9038   -0.7114   18.1025 C.ar    1  UNL1        0.0821
     37 N           5.0372   -2.1989   17.9627 N.ar    1  UNL1       -0.2496
@<TRIPOS>BOND
     1    27    28    1
     2    28    29   ar
     3    29    30   ar
     4    30    31   ar
     5    31    32   ar
     6    32    21    1
     7    21    22    1
     8    22    23    1
     9    23    24    1
    10    24    20    1
    11    20     1    1
    12     1     2    1
    13     2     3   ar
    14     3     4   ar
    15     4     5   ar
    16     5     6   ar
    17     6     7   ar
    18     7     8    1
    19     8     9    1
    20     9    10    1
    21    10    11   ar
    22    11    15    1
    23    15    16   am
    24    15    17    2
    25    11    12   ar
    26    12    13   ar
    27    13    14   ar
    28    24    25    1
    29    25    26    1
    30    32    33   ar
    31    33    34   ar
    32    34    35   ar
    33    35    36   ar
    34    36    37   ar
    35    37    28   ar
    36    36    31   ar
    37    26    21    1
    38     7     2   ar
    39    14    10   ar
    40    14     6    1
    41    16    18    1
    42    16    19    1
