@<TRIPOS>MOLECULE
*****
 31 35 0 0 0
SMALL
GASTEIGER

@<TRIPOS>ATOM
      1 C          -5.3895  -16.0451   23.9793 C.3     1  UNL1        0.1128
      2 O          -5.0650  -14.7771   24.7120 O.3     1  UNL1       -0.3844
      3 H          -4.1856  -14.8521   25.1142 H       1  UNL1        0.2103
      4 O         -11.1296  -15.4980   20.2375 O.2     1  UNL1       -0.2745
      5 C         -10.6379  -16.6022   21.1257 C.2     1  UNL1        0.2301
      6 N          -9.3258  -16.4629   21.8391 N.am    1  UNL1       -0.2793
      7 C          -8.5054  -15.2194   21.6643 C.3     1  UNL1        0.0935
      8 C          -7.1933  -15.0801   22.3777 C.3     1  UNL1        0.0240
      9 C          -6.7016  -16.1844   23.2659 C.3     1  UNL1        0.0304
     10 C          -7.5220  -17.4279   23.4407 C.3     1  UNL1        0.0240
     11 C          -8.8341  -17.5672   22.7272 C.3     1  UNL1        0.0935
     12 C         -11.4584  -17.8457   21.3004 C.3     1  UNL1        0.1116
     13 C         -12.1283  -18.1239   22.6133 C.ar    1  UNL1       -0.0100
     14 C         -11.3683  -18.8024   23.7142 C.ar    1  UNL1        0.0169
     15 C         -12.0382  -19.0806   25.0272 C.ar    1  UNL1        0.0986
     16 N         -13.4682  -18.6803   25.2391 N.ar    1  UNL1       -0.2423
     17 C         -14.2283  -18.0018   24.1382 C.ar    1  UNL1        0.0986
     18 C         -13.5583  -17.7236   22.8253 C.ar    1  UNL1        0.0169
     19 C          -4.4018  -17.1740   23.9600 C.3     1  UNL1        0.0564
     20 C          -3.9422  -17.7462   22.6518 C.3     1  UNL1        0.1119
     21 C          -4.5631  -18.9051   21.9297 C.ar    1  UNL1       -0.0002
     22 C          -5.7359  -19.7807   22.2584 C.ar    1  UNL1       -0.0024
     23 C          -6.1312  -20.8862   21.3249 C.ar    1  UNL1       -0.0003
     24 C          -5.3539  -21.1162   20.0629 C.ar    1  UNL1        0.0000
     25 C          -4.1811  -20.2407   19.7342 C.ar    1  UNL1        0.0012
     26 C          -3.7857  -19.1351   20.6677 C.ar    1  UNL1        0.0152
     27 C          -2.6845  -18.1184   20.6098 C.ar    1  UNL1        0.0804
     28 C          -1.5233  -17.6321   19.7940 C.ar    1  UNL1        0.1177
     29 N          -0.9025  -16.4732   20.5161 N.ar    1  UNL1       -0.2223
     30 C          -1.6799  -16.2432   21.7782 C.ar    1  UNL1        0.1788
     31 N          -2.7812  -17.2599   21.8361 N.ar    1  UNL1       -0.3069
@<TRIPOS>BOND
     1     4     5    2
     2     5    12    1
     3    12    13    1
     4    13    14   ar
     5    14    15   ar
     6    15    16   ar
     7    16    17   ar
     8    17    18   ar
     9     5     6   am
    10     6     7    1
    11     7     8    1
    12     8     9    1
    13     9     1    1
    14     1     2    1
    15     1    19    1
    16    19    20    1
    17    20    21    1
    18    21    22   ar
    19    22    23   ar
    20    23    24   ar
    21    24    25   ar
    22    25    26   ar
    23    26    27    1
    24    27    28   ar
    25    28    29   ar
    26    29    30   ar
    27    30    31   ar
    28     9    10    1
    29    10    11    1
    30    18    13   ar
    31    11     6    1
    32    31    20    1
    33    26    21   ar
    34    31    27   ar
    35     2     3    1
@<TRIPOS>MOLECULE
*****
 31 35 0 0 0
SMALL
GASTEIGER

@<TRIPOS>ATOM
      1 C          -5.6828  -16.0623   23.7946 C.3     1  UNL1        0.1128
      2 O          -5.5248  -14.5749   23.6822 O.3     1  UNL1       -0.3844
      3 H          -4.5813  -14.3512   23.6544 H       1  UNL1        0.2103
      4 O         -11.8686  -18.6201   25.3576 O.2     1  UNL1       -0.2745
      5 C         -11.1658  -18.4866   24.0393 C.2     1  UNL1        0.2301
      6 N          -9.7950  -17.8805   23.9781 N.am    1  UNL1       -0.2793
      7 C          -9.1272  -17.4079   25.2354 C.3     1  UNL1        0.0935
      8 C          -7.7564  -16.8019   25.1742 C.3     1  UNL1        0.0240
      9 C          -7.0536  -16.6684   23.8558 C.3     1  UNL1        0.0304
     10 C          -7.7214  -17.1410   22.5985 C.3     1  UNL1        0.0240
     11 C          -9.0922  -17.7470   22.6598 C.3     1  UNL1        0.0935
     12 C         -11.8337  -18.9592   22.7821 C.3     1  UNL1        0.1116
     13 C         -11.8749  -18.0699   21.5748 C.ar    1  UNL1       -0.0100
     14 C         -12.5977  -16.7569   21.6349 C.ar    1  UNL1        0.0169
     15 C         -12.6389  -15.8676   20.4276 C.ar    1  UNL1        0.0986
     16 N         -11.9573  -16.2913   19.1604 N.ar    1  UNL1       -0.2423
     17 C         -11.2345  -17.6043   19.1003 C.ar    1  UNL1        0.0986
     18 C         -11.1933  -18.4936   20.3076 C.ar    1  UNL1        0.0169
     19 C          -4.4701  -16.9437   23.8458 C.3     1  UNL1        0.0564
     20 C          -3.9806  -17.6191   22.5990 C.3     1  UNL1        0.1119
     21 C          -4.5986  -18.8198   21.9461 C.ar    1  UNL1       -0.0002
     22 C          -5.7954  -19.6511   22.3018 C.ar    1  UNL1       -0.0024
     23 C          -6.1807  -20.8178   21.4413 C.ar    1  UNL1       -0.0003
     24 C          -5.3692  -21.1531   20.2251 C.ar    1  UNL1        0.0000
     25 C          -4.1724  -20.3217   19.8694 C.ar    1  UNL1        0.0012
     26 C          -3.7871  -19.1551   20.7299 C.ar    1  UNL1        0.0152
     27 C          -2.6677  -18.1616   20.6312 C.ar    1  UNL1        0.0804
     28 C          -1.4742  -17.7548   19.8186 C.ar    1  UNL1        0.1177
     29 N          -0.8563  -16.5540   20.4716 N.ar    1  UNL1       -0.2223
     30 C          -1.6677  -16.2188   21.6878 C.ar    1  UNL1        0.1788
     31 N          -2.7872  -17.2123   21.7864 N.ar    1  UNL1       -0.3069
@<TRIPOS>BOND
     1     4     5    2
     2     5    12    1
     3    12    13    1
     4    13    14   ar
     5    14    15   ar
     6    15    16   ar
     7    16    17   ar
     8    17    18   ar
     9     5     6   am
    10     6     7    1
    11     7     8    1
    12     8     9    1
    13     9     1    1
    14     1     2    1
    15     1    19    1
    16    19    20    1
    17    20    21    1
    18    21    22   ar
    19    22    23   ar
    20    23    24   ar
    21    24    25   ar
    22    25    26   ar
    23    26    27    1
    24    27    28   ar
    25    28    29   ar
    26    29    30   ar
    27    30    31   ar
    28     9    10    1
    29    10    11    1
    30    18    13   ar
    31    11     6    1
    32    31    20    1
    33    26    21   ar
    34    31    27   ar
    35     2     3    1
@<TRIPOS>MOLECULE
*****
 31 35 0 0 0
SMALL
GASTEIGER

@<TRIPOS>ATOM
      1 C          -7.4270  -15.3732   24.2346 C.3     1  UNL1        0.1128
      2 O          -6.6701  -14.2849   24.9365 O.3     1  UNL1       -0.3844
      3 H          -7.2964  -13.6624   25.3377 H       1  UNL1        0.2103
      4 O          -5.2069  -20.7752   20.6098 O.2     1  UNL1       -0.2745
      5 C          -4.4548  -19.7541   21.4109 C.2     1  UNL1        0.2301
      6 N          -5.1979  -18.6589   22.1168 N.am    1  UNL1       -0.2793
      7 C          -6.6930  -18.5848   22.0216 C.3     1  UNL1        0.0935
      8 C          -7.4361  -17.4896   22.7276 C.3     1  UNL1        0.0240
      9 C          -6.6840  -16.4685   23.5287 C.3     1  UNL1        0.0304
     10 C          -5.1889  -16.5426   23.6238 C.3     1  UNL1        0.0240
     11 C          -4.4458  -17.6378   22.9179 C.3     1  UNL1        0.0935
     12 C          -2.9597  -19.8283   21.5060 C.3     1  UNL1        0.1116
     13 C          -2.1077  -19.0506   20.5471 C.ar    1  UNL1       -0.0100
     14 C          -2.6334  -18.7079   19.1848 C.ar    1  UNL1        0.0169
     15 C          -1.7814  -17.9303   18.2258 C.ar    1  UNL1        0.0986
     16 N          -0.4038  -17.4954   18.6294 N.ar    1  UNL1       -0.2423
     17 C           0.1220  -17.8381   19.9919 C.ar    1  UNL1        0.0986
     18 C          -0.7300  -18.6157   20.9507 C.ar    1  UNL1        0.0169
     19 C          -8.9271  -15.3663   24.2387 C.3     1  UNL1        0.0564
     20 C          -9.6840  -16.5235   23.6572 C.3     1  UNL1        0.1119
     21 C         -10.3495  -16.5557   22.3134 C.ar    1  UNL1       -0.0002
     22 C         -10.4590  -15.5318   21.2227 C.ar    1  UNL1       -0.0024
     23 C         -11.2040  -15.8559   19.9618 C.ar    1  UNL1       -0.0003
     24 C         -11.8396  -17.2038   19.7916 C.ar    1  UNL1        0.0000
     25 C         -11.7301  -18.2278   20.8822 C.ar    1  UNL1        0.0012
     26 C         -10.9851  -17.9037   22.1431 C.ar    1  UNL1        0.0152
     27 C         -10.7124  -18.7045   23.3818 C.ar    1  UNL1        0.0804
     28 C         -10.9366  -20.0326   24.0421 C.ar    1  UNL1        0.1177
     29 N         -10.2710  -20.0003   25.3860 N.ar    1  UNL1       -0.2223
     30 C          -9.6354  -18.6523   25.5563 C.ar    1  UNL1        0.1788
     31 N          -9.9082  -17.8515   24.3176 N.ar    1  UNL1       -0.3069
@<TRIPOS>BOND
     1     4     5    2
     2     5    12    1
     3    12    13    1
     4    13    14   ar
     5    14    15   ar
     6    15    16   ar
     7    16    17   ar
     8    17    18   ar
     9     5     6   am
    10     6     7    1
    11     7     8    1
    12     8     9    1
    13     9     1    1
    14     1     2    1
    15     1    19    1
    16    19    20    1
    17    20    21    1
    18    21    22   ar
    19    22    23   ar
    20    23    24   ar
    21    24    25   ar
    22    25    26   ar
    23    26    27    1
    24    27    28   ar
    25    28    29   ar
    26    29    30   ar
    27    30    31   ar
    28     9    10    1
    29    10    11    1
    30    18    13   ar
    31    11     6    1
    32    31    20    1
    33    26    21   ar
    34    31    27   ar
    35     2     3    1
@<TRIPOS>MOLECULE
*****
 31 35 0 0 0
SMALL
GASTEIGER

@<TRIPOS>ATOM
      1 C          -8.4966  -20.1509   19.5437 C.3     1  UNL1        0.1128
      2 O          -7.9469  -20.8756   18.3509 O.3     1  UNL1       -0.3844
      3 H          -8.6783  -21.2427   17.8303 H       1  UNL1        0.2103
      4 O          -3.5786  -18.2507   23.9541 O.2     1  UNL1       -0.2745
      5 C          -4.7672  -17.5029   23.4268 C.2     1  UNL1        0.2301
      6 N          -5.6995  -18.1650   22.4560 N.am    1  UNL1       -0.2793
      7 C          -5.4433  -19.5748   22.0125 C.3     1  UNL1        0.0935
      8 C          -6.3757  -20.2368   21.0418 C.3     1  UNL1        0.0240
      9 C          -7.5642  -19.4889   20.5144 C.3     1  UNL1        0.0304
     10 C          -7.8205  -18.0791   20.9579 C.3     1  UNL1        0.0240
     11 C          -6.8881  -17.4171   21.9286 C.3     1  UNL1        0.0935
     12 C          -5.0233  -16.0930   23.8702 C.3     1  UNL1        0.1116
     13 C          -6.0605  -15.8128   24.9170 C.ar    1  UNL1       -0.0100
     14 C          -5.6488  -15.6093   26.3450 C.ar    1  UNL1        0.0169
     15 C          -6.6859  -15.3291   27.3919 C.ar    1  UNL1        0.0986
     16 N          -8.1346  -15.2523   27.0107 N.ar    1  UNL1       -0.2423
     17 C          -8.5463  -15.4557   25.5826 C.ar    1  UNL1        0.0986
     18 C          -7.5092  -15.7360   24.5358 C.ar    1  UNL1        0.0169
     19 C          -9.9789  -20.0883   19.7656 C.3     1  UNL1        0.0564
     20 C         -10.5388  -19.2142   20.8485 C.3     1  UNL1        0.1119
     21 C         -10.4108  -19.4480   22.3246 C.ar    1  UNL1       -0.0002
     22 C          -9.7419  -20.5335   23.1146 C.ar    1  UNL1       -0.0024
     23 C          -9.7800  -20.5022   24.6138 C.ar    1  UNL1       -0.0003
     24 C         -10.4870  -19.3854   25.3230 C.ar    1  UNL1        0.0000
     25 C         -11.1560  -18.2999   24.5329 C.ar    1  UNL1        0.0012
     26 C         -11.1179  -18.3312   23.0338 C.ar    1  UNL1        0.0152
     27 C         -11.6828  -17.4072   21.9959 C.ar    1  UNL1        0.0804
     28 C         -12.4689  -16.1459   21.7928 C.ar    1  UNL1        0.1177
     29 N         -12.5968  -15.9122   20.3166 N.ar    1  UNL1       -0.2223
     30 C         -11.8897  -17.0290   19.6074 C.ar    1  UNL1        0.1788
     31 N         -11.3249  -17.9529   20.6453 N.ar    1  UNL1       -0.3069
@<TRIPOS>BOND
     1     4     5    2
     2     5    12    1
     3    12    13    1
     4    13    14   ar
     5    14    15   ar
     6    15    16   ar
     7    16    17   ar
     8    17    18   ar
     9     5     6   am
    10     6     7    1
    11     7     8    1
    12     8     9    1
    13     9     1    1
    14     1     2    1
    15     1    19    1
    16    19    20    1
    17    20    21    1
    18    21    22   ar
    19    22    23   ar
    20    23    24   ar
    21    24    25   ar
    22    25    26   ar
    23    26    27    1
    24    27    28   ar
    25    28    29   ar
    26    29    30   ar
    27    30    31   ar
    28     9    10    1
    29    10    11    1
    30    18    13   ar
    31    11     6    1
    32    31    20    1
    33    26    21   ar
    34    31    27   ar
    35     2     3    1
@<TRIPOS>MOLECULE
*****
 31 35 0 0 0
SMALL
GASTEIGER

@<TRIPOS>ATOM
      1 C          -5.5296  -16.1353   23.8520 C.3     1  UNL1        0.1128
      2 O          -5.1565  -14.8454   24.5204 O.3     1  UNL1       -0.3844
      3 H          -4.2788  -14.9324   24.9242 H       1  UNL1        0.2103
      4 O         -11.2820  -15.5424   20.1362 O.2     1  UNL1       -0.2745
      5 C         -10.8055  -16.6408   21.0398 C.2     1  UNL1        0.2301
      6 N          -9.4865  -16.5144   21.7429 N.am    1  UNL1       -0.2793
      7 C          -8.6440  -15.2896   21.5422 C.3     1  UNL1        0.0935
      8 C          -7.3250  -15.1633   22.2453 C.3     1  UNL1        0.0240
      9 C          -6.8486  -16.2617   23.1490 C.3     1  UNL1        0.0304
     10 C          -7.6910  -17.4864   23.3496 C.3     1  UNL1        0.0240
     11 C          -9.0100  -17.6127   22.6465 C.3     1  UNL1        0.0935
     12 C         -11.6481  -17.8655   21.2404 C.3     1  UNL1        0.1116
     13 C         -12.2627  -18.1417   22.5805 C.ar    1  UNL1       -0.0100
     14 C         -13.6779  -17.7281   22.8561 C.ar    1  UNL1        0.0169
     15 C         -14.2926  -18.0044   24.1962 C.ar    1  UNL1        0.0986
     16 N         -13.4920  -18.6942   25.2607 N.ar    1  UNL1       -0.2423
     17 C         -12.0767  -19.1079   24.9851 C.ar    1  UNL1        0.0986
     18 C         -11.4621  -18.8316   23.6450 C.ar    1  UNL1        0.0169
     19 C          -4.5836  -17.2991   23.8867 C.3     1  UNL1        0.0564
     20 C          -4.1921  -17.9855   22.6118 C.3     1  UNL1        0.1119
     21 C          -3.0245  -17.6281   21.7406 C.ar    1  UNL1       -0.0002
     22 C          -1.9725  -16.5654   21.8585 C.ar    1  UNL1       -0.0024
     23 C          -0.9061  -16.4462   20.8103 C.ar    1  UNL1       -0.0003
     24 C          -0.8918  -17.3897   19.6443 C.ar    1  UNL1        0.0000
     25 C          -1.9438  -18.4524   19.5265 C.ar    1  UNL1        0.0012
     26 C          -3.0101  -18.5716   20.5746 C.ar    1  UNL1        0.0152
     27 C          -4.1689  -19.5121   20.7252 C.ar    1  UNL1        0.0804
     28 C          -4.8762  -20.6766   20.0975 C.ar    1  UNL1        0.1177
     29 N          -6.0438  -21.0340   20.9688 N.ar    1  UNL1       -0.2223
     30 C          -6.0582  -20.0905   22.1348 C.ar    1  UNL1        0.1788
     31 N          -4.8994  -19.1499   21.9842 N.ar    1  UNL1       -0.3069
@<TRIPOS>BOND
     1     4     5    2
     2     5    12    1
     3    12    13    1
     4    13    14   ar
     5    14    15   ar
     6    15    16   ar
     7    16    17   ar
     8    17    18   ar
     9     5     6   am
    10     6     7    1
    11     7     8    1
    12     8     9    1
    13     9     1    1
    14     1     2    1
    15     1    19    1
    16    19    20    1
    17    20    21    1
    18    21    22   ar
    19    22    23   ar
    20    23    24   ar
    21    24    25   ar
    22    25    26   ar
    23    26    27    1
    24    27    28   ar
    25    28    29   ar
    26    29    30   ar
    27    30    31   ar
    28     9    10    1
    29    10    11    1
    30    18    13   ar
    31    11     6    1
    32    31    20    1
    33    26    21   ar
    34    31    27   ar
    35     2     3    1
@<TRIPOS>MOLECULE
*****
 31 35 0 0 0
SMALL
GASTEIGER

@<TRIPOS>ATOM
      1 C          -7.5448  -15.4205   24.1527 C.3     1  UNL1        0.1128
      2 O          -6.8603  -14.2473   24.7891 O.3     1  UNL1       -0.3844
      3 H          -7.5255  -13.6492   25.1641 H       1  UNL1        0.2103
      4 O          -4.9796  -20.8229   20.7640 O.2     1  UNL1       -0.2745
      5 C          -4.2959  -19.7284   21.5286 C.2     1  UNL1        0.2301
      6 N          -5.1082  -18.6515   22.1847 N.am    1  UNL1       -0.2793
      7 C          -6.6041  -18.6690   22.0760 C.3     1  UNL1        0.0935
      8 C          -7.4163  -17.5920   22.7321 C.3     1  UNL1        0.0240
      9 C          -6.7326  -16.4975   23.4967 C.3     1  UNL1        0.0304
     10 C          -5.2367  -16.4800   23.6053 C.3     1  UNL1        0.0240
     11 C          -4.4245  -17.5570   22.9493 C.3     1  UNL1        0.0935
     12 C          -2.7999  -19.7110   21.6372 C.3     1  UNL1        0.1116
     13 C          -1.9827  -18.9715   20.6197 C.ar    1  UNL1       -0.0100
     14 C          -0.5941  -18.5173   20.9595 C.ar    1  UNL1        0.0169
     15 C           0.2232  -17.7779   19.9421 C.ar    1  UNL1        0.0986
     16 N          -0.3481  -17.4926   18.5848 N.ar    1  UNL1       -0.2423
     17 C          -1.7368  -17.9468   18.2449 C.ar    1  UNL1        0.0986
     18 C          -2.5540  -18.6863   19.2624 C.ar    1  UNL1        0.0169
     19 C          -9.0417  -15.5167   24.1723 C.3     1  UNL1        0.0564
     20 C          -9.7428  -16.4867   23.2681 C.3     1  UNL1        0.1119
     21 C         -10.0855  -17.9095   23.5974 C.ar    1  UNL1       -0.0002
     22 C          -9.8557  -18.7386   24.8261 C.ar    1  UNL1       -0.0024
     23 C         -10.3193  -20.1645   24.8661 C.ar    1  UNL1       -0.0003
     24 C         -11.0126  -20.7614   23.6774 C.ar    1  UNL1        0.0000
     25 C         -11.2424  -19.9323   22.4487 C.ar    1  UNL1        0.0012
     26 C         -10.7788  -18.5063   22.4087 C.ar    1  UNL1        0.0152
     27 C         -10.8646  -17.4524   21.3448 C.ar    1  UNL1        0.0804
     28 C         -11.3462  -17.1700   19.9524 C.ar    1  UNL1        0.1177
     29 N         -11.0036  -15.7472   19.6232 N.ar    1  UNL1       -0.2223
     30 C         -10.3102  -15.1504   20.8119 C.ar    1  UNL1        0.1788
     31 N         -10.2244  -16.2042   21.8759 N.ar    1  UNL1       -0.3069
@<TRIPOS>BOND
     1     4     5    2
     2     5    12    1
     3    12    13    1
     4    13    14   ar
     5    14    15   ar
     6    15    16   ar
     7    16    17   ar
     8    17    18   ar
     9     5     6   am
    10     6     7    1
    11     7     8    1
    12     8     9    1
    13     9     1    1
    14     1     2    1
    15     1    19    1
    16    19    20    1
    17    20    21    1
    18    21    22   ar
    19    22    23   ar
    20    23    24   ar
    21    24    25   ar
    22    25    26   ar
    23    26    27    1
    24    27    28   ar
    25    28    29   ar
    26    29    30   ar
    27    30    31   ar
    28     9    10    1
    29    10    11    1
    30    18    13   ar
    31    11     6    1
    32    31    20    1
    33    26    21   ar
    34    31    27   ar
    35     2     3    1
@<TRIPOS>MOLECULE
*****
 31 35 0 0 0
SMALL
GASTEIGER

@<TRIPOS>ATOM
      1 C           4.9503   -2.0887   26.1964 C.3     1  UNL1        0.1128
      2 O           4.0752   -2.0061   27.4119 O.3     1  UNL1       -0.3844
      3 H           4.6015   -2.2014   28.2030 H       1  UNL1        0.2103
      4 O           1.6749    0.0883   20.5588 O.2     1  UNL1       -0.2745
      5 C           2.6389   -1.0434   20.7591 C.2     1  UNL1        0.2301
      6 N           3.2167   -1.3047   22.1185 N.am    1  UNL1       -0.2793
      7 C           2.8305   -0.4344   23.2775 C.3     1  UNL1        0.0935
      8 C           3.4084   -0.6957   24.6368 C.3     1  UNL1        0.0240
      9 C           4.3724   -1.8273   24.8371 C.3     1  UNL1        0.0304
     10 C           4.7586   -2.6977   23.6780 C.3     1  UNL1        0.0240
     11 C           4.1807   -2.4363   22.3187 C.3     1  UNL1        0.0935
     12 C           3.0250   -1.9136   19.6000 C.3     1  UNL1        0.1116
     13 C           4.2437   -1.5858   18.7892 C.ar    1  UNL1       -0.0100
     14 C           4.2665   -0.3534   17.9345 C.ar    1  UNL1        0.0169
     15 C           5.4852   -0.0255   17.1237 C.ar    1  UNL1        0.0986
     16 N           6.6810   -0.9301   17.1677 N.ar    1  UNL1       -0.2423
     17 C           6.6581   -2.1625   18.0225 C.ar    1  UNL1        0.0986
     18 C           5.4394   -2.4904   18.8333 C.ar    1  UNL1        0.0169
     19 C           6.4033   -2.4326   26.3402 C.3     1  UNL1        0.0564
     20 C           6.8069   -3.7642   26.9007 C.3     1  UNL1        0.1119
     21 C           7.2715   -4.9501   26.1083 C.ar    1  UNL1       -0.0002
     22 C           7.4624   -5.1608   24.6355 C.ar    1  UNL1       -0.0024
     23 C           7.9503   -6.4838   24.1243 C.ar    1  UNL1       -0.0003
     24 C           8.2474   -7.5961   25.0858 C.ar    1  UNL1        0.0000
     25 C           8.0565   -7.3854   26.5585 C.ar    1  UNL1        0.0012
     26 C           7.5685   -6.0624   27.0698 C.ar    1  UNL1        0.0152
     27 C           7.2875   -5.5639   28.4564 C.ar    1  UNL1        0.0804
     28 C           7.2975   -5.9434   29.9076 C.ar    1  UNL1        0.1177
     29 N           6.8329   -4.7574   30.6999 N.ar    1  UNL1       -0.2223
     30 C           6.5358   -3.6451   29.7384 C.ar    1  UNL1        0.1788
     31 N           6.8168   -4.1435   28.3519 N.ar    1  UNL1       -0.3069
@<TRIPOS>BOND
     1     4     5    2
     2     5    12    1
     3    12    13    1
     4    13    14   ar
     5    14    15   ar
     6    15    16   ar
     7    16    17   ar
     8    17    18   ar
     9     5     6   am
    10     6     7    1
    11     7     8    1
    12     8     9    1
    13     9     1    1
    14     1     2    1
    15     1    19    1
    16    19    20    1
    17    20    21    1
    18    21    22   ar
    19    22    23   ar
    20    23    24   ar
    21    24    25   ar
    22    25    26   ar
    23    26    27    1
    24    27    28   ar
    25    28    29   ar
    26    29    30   ar
    27    30    31   ar
    28     9    10    1
    29    10    11    1
    30    18    13   ar
    31    11     6    1
    32    31    20    1
    33    26    21   ar
    34    31    27   ar
    35     2     3    1
@<TRIPOS>MOLECULE
*****
 31 35 0 0 0
SMALL
GASTEIGER

@<TRIPOS>ATOM
      1 C          -8.5135  -20.0618   19.8844 C.3     1  UNL1        0.1128
      2 O          -8.0728  -20.5958   18.5537 O.3     1  UNL1       -0.3844
      3 H          -8.8255  -21.0152   18.1083 H       1  UNL1        0.2103
      4 O          -3.2965  -17.9437   23.8273 O.2     1  UNL1       -0.2745
      5 C          -4.5787  -17.2645   23.4470 C.2     1  UNL1        0.2301
      6 N          -5.5624  -17.9639   22.5563 N.am    1  UNL1       -0.2793
      7 C          -5.2639  -19.3424   22.0460 C.3     1  UNL1        0.0935
      8 C          -6.2476  -20.0417   21.1553 C.3     1  UNL1        0.0240
      9 C          -7.5298  -19.3625   20.7751 C.3     1  UNL1        0.0304
     10 C          -7.8284  -17.9840   21.2854 C.3     1  UNL1        0.0240
     11 C          -6.8446  -17.2847   22.1761 C.3     1  UNL1        0.0935
     12 C          -4.8772  -15.8860   23.9574 C.3     1  UNL1        0.1116
     13 C          -5.9660  -15.6799   24.9684 C.ar    1  UNL1       -0.0100
     14 C          -7.3736  -15.4303   24.5142 C.ar    1  UNL1        0.0169
     15 C          -8.4625  -15.2242   25.5251 C.ar    1  UNL1        0.0986
     16 N          -8.1437  -15.2679   26.9902 N.ar    1  UNL1       -0.2423
     17 C          -6.7361  -15.5176   27.4444 C.ar    1  UNL1        0.0986
     18 C          -5.6472  -15.7236   26.4334 C.ar    1  UNL1        0.0169
     19 C          -9.9380  -20.2272   20.3245 C.3     1  UNL1        0.0564
     20 C         -10.4513  -19.4610   21.5074 C.3     1  UNL1        0.1119
     21 C         -11.2813  -18.2125   21.4566 C.ar    1  UNL1       -0.0002
     22 C         -11.8131  -17.4070   20.3085 C.ar    1  UNL1       -0.0024
     23 C         -12.6315  -16.1775   20.5705 C.ar    1  UNL1       -0.0003
     24 C         -12.9179  -15.7536   21.9806 C.ar    1  UNL1        0.0000
     25 C         -12.3860  -16.5592   23.1286 C.ar    1  UNL1        0.0012
     26 C         -11.5677  -17.7886   22.8667 C.ar    1  UNL1        0.0152
     27 C         -10.9148  -18.7751   23.7889 C.ar    1  UNL1        0.0804
     28 C         -10.6883  -19.1228   25.2305 C.ar    1  UNL1        0.1177
     29 N          -9.8583  -20.3713   25.2812 N.ar    1  UNL1       -0.2223
     30 C          -9.5719  -20.7952   23.8712 C.ar    1  UNL1        0.1788
     31 N         -10.2248  -19.8087   22.9489 N.ar    1  UNL1       -0.3069
@<TRIPOS>BOND
     1     4     5    2
     2     5    12    1
     3    12    13    1
     4    13    14   ar
     5    14    15   ar
     6    15    16   ar
     7    16    17   ar
     8    17    18   ar
     9     5     6   am
    10     6     7    1
    11     7     8    1
    12     8     9    1
    13     9     1    1
    14     1     2    1
    15     1    19    1
    16    19    20    1
    17    20    21    1
    18    21    22   ar
    19    22    23   ar
    20    23    24   ar
    21    24    25   ar
    22    25    26   ar
    23    26    27    1
    24    27    28   ar
    25    28    29   ar
    26    29    30   ar
    27    30    31   ar
    28     9    10    1
    29    10    11    1
    30    18    13   ar
    31    11     6    1
    32    31    20    1
    33    26    21   ar
    34    31    27   ar
    35     2     3    1
@<TRIPOS>MOLECULE
*****
 31 35 0 0 0
SMALL
GASTEIGER

@<TRIPOS>ATOM
      1 C          -5.6642  -16.1322   23.6567 C.3     1  UNL1        0.1128
      2 O          -5.4770  -14.6516   23.5058 O.3     1  UNL1       -0.3844
      3 H          -4.5297  -14.4489   23.4556 H       1  UNL1        0.2103
      4 O         -11.8681  -18.5282   25.3943 O.2     1  UNL1       -0.2745
      5 C         -11.1914  -18.4316   24.0592 C.2     1  UNL1        0.2301
      6 N          -9.8095  -17.8567   23.9586 N.am    1  UNL1       -0.2793
      7 C          -9.1045  -17.3785   25.1932 C.3     1  UNL1        0.0935
      8 C          -7.7227  -16.8036   25.0925 C.3     1  UNL1        0.0240
      9 C          -7.0460  -16.7070   23.7573 C.3     1  UNL1        0.0304
     10 C          -7.7510  -17.1853   22.5228 C.3     1  UNL1        0.0240
     11 C          -9.1328  -17.7601   22.6234 C.3     1  UNL1        0.0935
     12 C         -11.8965  -18.9099   22.8246 C.3     1  UNL1        0.1116
     13 C         -11.9019  -18.0613   21.5877 C.ar    1  UNL1       -0.0100
     14 C         -11.2241  -18.5482   20.3413 C.ar    1  UNL1        0.0169
     15 C         -11.2295  -17.6997   19.1044 C.ar    1  UNL1        0.0986
     16 N         -11.9127  -16.3643   19.1139 N.ar    1  UNL1       -0.2423
     17 C         -12.5906  -15.8774   20.3603 C.ar    1  UNL1        0.0986
     18 C         -12.5852  -16.7260   21.5973 C.ar    1  UNL1        0.0169
     19 C          -4.4695  -17.0380   23.7068 C.3     1  UNL1        0.0564
     20 C          -4.0762  -17.8284   22.4942 C.3     1  UNL1        0.1119
     21 C          -2.8932  -17.5594   21.6120 C.ar    1  UNL1       -0.0002
     22 C          -1.8243  -16.5081   21.6593 C.ar    1  UNL1       -0.0024
     23 C          -0.7448  -16.4888   20.6180 C.ar    1  UNL1       -0.0003
     24 C          -0.7343  -17.5207   19.5294 C.ar    1  UNL1        0.0000
     25 C          -1.8032  -18.5720   19.4821 C.ar    1  UNL1        0.0012
     26 C          -2.8826  -18.5913   20.5234 C.ar    1  UNL1        0.0152
     27 C          -4.0591  -19.4980   20.7328 C.ar    1  UNL1        0.0804
     28 C          -4.7796  -20.6963   20.1894 C.ar    1  UNL1        0.1177
     29 N          -5.9626  -20.9652   21.0717 N.ar    1  UNL1       -0.2223
     30 C          -5.9732  -19.9333   22.1603 C.ar    1  UNL1        0.1788
     31 N          -4.7967  -19.0265   21.9508 N.ar    1  UNL1       -0.3069
@<TRIPOS>BOND
     1     4     5    2
     2     5    12    1
     3    12    13    1
     4    13    14   ar
     5    14    15   ar
     6    15    16   ar
     7    16    17   ar
     8    17    18   ar
     9     5     6   am
    10     6     7    1
    11     7     8    1
    12     8     9    1
    13     9     1    1
    14     1     2    1
    15     1    19    1
    16    19    20    1
    17    20    21    1
    18    21    22   ar
    19    22    23   ar
    20    23    24   ar
    21    24    25   ar
    22    25    26   ar
    23    26    27    1
    24    27    28   ar
    25    28    29   ar
    26    29    30   ar
    27    30    31   ar
    28     9    10    1
    29    10    11    1
    30    18    13   ar
    31    11     6    1
    32    31    20    1
    33    26    21   ar
    34    31    27   ar
    35     2     3    1
