@<TRIPOS>MOLECULE
*****
 26 29 0 0 0
SMALL
GASTEIGER

@<TRIPOS>ATOM
      1 C          -6.8743  -20.2291   20.9816 C.ar    1  UNL1        0.1385
      2 C          -7.2466  -20.5838   22.3907 C.ar    1  UNL1        0.0384
      3 C          -8.5208  -20.0603   22.9841 C.ar    1  UNL1        0.0203
      4 C          -9.4228  -19.1822   22.1684 C.ar    1  UNL1        0.0602
      5 C          -9.0505  -18.8275   20.7593 C.ar    1  UNL1        0.0204
      6 C          -7.7763  -19.3510   20.1659 C.ar    1  UNL1        0.0384
      7 C         -10.1305  -17.9483   20.2019 C.ar    1  UNL1        0.0233
      8 C         -11.1702  -17.7596   21.2665 C.ar    1  UNL1        0.1140
      9 N         -10.7329  -18.5221   22.4819 N.ar    1  UNL1       -0.3238
     10 C         -11.5840  -18.5170   23.7170 C.3     1  UNL1        0.1052
     11 C         -11.1466  -19.2795   24.9324 C.3     1  UNL1        0.0263
     12 C         -12.8725  -17.7493   23.7367 C.3     1  UNL1        0.1122
     13 N         -13.3098  -16.9867   22.5213 N.am    1  UNL1       -0.2978
     14 C         -12.4586  -16.9919   21.2861 C.2     1  UNL1        0.2618
     15 O         -12.8960  -16.2293   20.0707 O.2     1  UNL1       -0.2686
     16 H         -14.1555  -16.4829   22.5342 H       1  UNL1        0.1498
     17 O          -5.6000  -20.7526   20.3881 O.3     1  UNL1       -0.4791
     18 N          -1.8987  -18.1933   20.3909 N.3     1  UNL1       -0.2737
     19 C          -2.9020  -18.0596   19.2840 C.3     1  UNL1        0.0758
     20 C          -4.1359  -18.9128   19.2830 C.3     1  UNL1        0.0609
     21 C          -4.3662  -19.8995   20.3890 C.3     1  UNL1        0.1687
     22 C          -3.3628  -20.0332   21.4960 C.3     1  UNL1        0.0609
     23 C          -2.1290  -19.1801   21.4969 C.3     1  UNL1        0.0758
     24 C          -0.7186  -15.9444   20.9385 C.3     1  UNL1        0.0173
     25 C          -0.6649  -17.3402   20.3919 C.3     1  UNL1        0.0576
     26 C           0.6226  -17.8829   19.8461 C.3     1  UNL1        0.0173
@<TRIPOS>BOND
     1    24    25    1
     2    25    26    1
     3    25    18    1
     4    18    19    1
     5    19    20    1
     6    20    21    1
     7    21    17    1
     8    17     1    1
     9     1     2   ar
    10     2     3   ar
    11     3     4   ar
    12     4     5   ar
    13     5     6   ar
    14     5     7   ar
    15     7     8   ar
    16     8     9   ar
    17     9    10    1
    18    10    11    1
    19    10    12    1
    20    12    13    1
    21    13    14   am
    22    14    15    2
    23    21    22    1
    24    22    23    1
    25    23    18    1
    26     6     1   ar
    27    14     8    1
    28     9     4   ar
    29    13    16    1
@<TRIPOS>MOLECULE
*****
 26 29 0 0 0
SMALL
GASTEIGER

@<TRIPOS>ATOM
      1 C          -6.7295  -20.2401   21.0161 C.ar    1  UNL1        0.1385
      2 C          -7.3620  -19.5331   19.8542 C.ar    1  UNL1        0.0384
      3 C          -8.7155  -18.9045   20.0052 C.ar    1  UNL1        0.0203
      4 C          -9.4365  -18.9828   21.3182 C.ar    1  UNL1        0.0602
      5 C          -8.8040  -19.6898   22.4802 C.ar    1  UNL1        0.0204
      6 C          -7.4506  -20.3184   22.3291 C.ar    1  UNL1        0.0384
      7 C          -9.7477  -19.6060   23.6431 C.ar    1  UNL1        0.0233
      8 C         -10.9635  -18.8473   23.1999 C.ar    1  UNL1        0.1140
      9 N         -10.7711  -18.4621   21.7630 N.ar    1  UNL1       -0.3238
     10 C         -11.8361  -17.6871   21.0454 C.3     1  UNL1        0.1052
     11 C         -11.6437  -17.3020   19.6085 C.3     1  UNL1        0.0263
     12 C         -13.0933  -17.2972   21.7645 C.3     1  UNL1        0.1122
     13 N         -13.2857  -17.6824   23.2014 N.am    1  UNL1       -0.2978
     14 C         -12.2207  -18.4575   23.9191 C.2     1  UNL1        0.2618
     15 O         -12.4130  -18.8427   25.3561 O.2     1  UNL1       -0.2686
     16 H         -14.1109  -17.4265   23.6734 H       1  UNL1        0.1498
     17 O          -5.3760  -20.8687   20.8651 O.3     1  UNL1       -0.4791
     18 N          -1.7166  -18.2737   20.5116 N.3     1  UNL1       -0.2737
     19 C          -2.1411  -18.7928   21.8533 C.3     1  UNL1        0.0758
     20 C          -3.3610  -19.6578   21.9712 C.3     1  UNL1        0.0609
     21 C          -4.1562  -20.0037   20.7473 C.3     1  UNL1        0.1687
     22 C          -3.7316  -19.4846   19.4055 C.3     1  UNL1        0.0609
     23 C          -2.5119  -18.6196   19.2877 C.3     1  UNL1        0.0758
     24 C           0.7991  -17.9997   19.9234 C.3     1  UNL1        0.0173
     25 C          -0.4969  -17.4087   20.3937 C.3     1  UNL1        0.0576
     26 C          -0.5730  -15.9527   20.7463 C.3     1  UNL1        0.0173
@<TRIPOS>BOND
     1    24    25    1
     2    25    26    1
     3    25    18    1
     4    18    19    1
     5    19    20    1
     6    20    21    1
     7    21    17    1
     8    17     1    1
     9     1     2   ar
    10     2     3   ar
    11     3     4   ar
    12     4     5   ar
    13     5     6   ar
    14     5     7   ar
    15     7     8   ar
    16     8     9   ar
    17     9    10    1
    18    10    11    1
    19    10    12    1
    20    12    13    1
    21    13    14   am
    22    14    15    2
    23    21    22    1
    24    22    23    1
    25    23    18    1
    26     6     1   ar
    27    14     8    1
    28     9     4   ar
    29    13    16    1
@<TRIPOS>MOLECULE
*****
 26 29 0 0 0
SMALL
GASTEIGER

@<TRIPOS>ATOM
      1 C           7.8699   -3.8077   25.5714 C.ar    1  UNL1        0.1385
      2 C           7.3644   -2.4817   26.0573 C.ar    1  UNL1        0.0384
      3 C           6.9474   -2.3168   27.4887 C.ar    1  UNL1        0.0203
      4 C           7.0358   -3.4780   28.4341 C.ar    1  UNL1        0.0602
      5 C           7.5413   -4.8040   27.9482 C.ar    1  UNL1        0.0204
      6 C           7.9584   -4.9688   26.5169 C.ar    1  UNL1        0.0384
      7 C           7.5171   -5.7608   29.1032 C.ar    1  UNL1        0.0233
      8 C           6.9966   -5.0261   30.3029 C.ar    1  UNL1        0.1140
      9 N           6.6992   -3.6152   29.8895 N.ar    1  UNL1       -0.3238
     10 C           6.1602   -2.6378   30.8915 C.3     1  UNL1        0.1052
     11 C           5.8627   -1.2270   30.4780 C.3     1  UNL1        0.0263
     12 C           5.9187   -3.0713   32.3070 C.3     1  UNL1        0.1122
     13 N           6.2161   -4.4821   32.7205 N.am    1  UNL1       -0.2978
     14 C           6.7551   -5.4595   31.7184 C.2     1  UNL1        0.2618
     15 O           7.0526   -6.8705   32.1320 O.2     1  UNL1       -0.2686
     16 H           6.0576   -4.7666   33.6496 H       1  UNL1        0.1498
     17 O           8.2870   -3.9726   24.1400 O.3     1  UNL1       -0.4791
     18 N           5.2006   -3.8427   20.8679 N.3     1  UNL1       -0.2737
     19 C           6.6585   -3.9079   20.5214 C.3     1  UNL1        0.0758
     20 C           7.6874   -3.9512   21.6121 C.3     1  UNL1        0.0609
     21 C           7.2582   -3.9293   23.0493 C.3     1  UNL1        0.1687
     22 C           5.8002   -3.8642   23.3957 C.3     1  UNL1        0.0609
     23 C           4.7714   -3.8209   22.3050 C.3     1  UNL1        0.0758
     24 C           3.8480   -5.0420   19.0018 C.3     1  UNL1        0.0173
     25 C           4.1718   -3.7995   19.7772 C.3     1  UNL1        0.0576
     26 C           3.4667   -2.5136   19.4618 C.3     1  UNL1        0.0173
@<TRIPOS>BOND
     1    24    25    1
     2    25    26    1
     3    25    18    1
     4    18    19    1
     5    19    20    1
     6    20    21    1
     7    21    17    1
     8    17     1    1
     9     1     2   ar
    10     2     3   ar
    11     3     4   ar
    12     4     5   ar
    13     5     6   ar
    14     5     7   ar
    15     7     8   ar
    16     8     9   ar
    17     9    10    1
    18    10    11    1
    19    10    12    1
    20    12    13    1
    21    13    14   am
    22    14    15    2
    23    21    22    1
    24    22    23    1
    25    23    18    1
    26     6     1   ar
    27    14     8    1
    28     9     4   ar
    29    13    16    1
@<TRIPOS>MOLECULE
*****
 26 29 0 0 0
SMALL
GASTEIGER

@<TRIPOS>ATOM
      1 C           7.3690   -3.4294   21.3622 C.ar    1  UNL1        0.1385
      2 C           8.2900   -4.6007   21.1895 C.ar    1  UNL1        0.0384
      3 C           8.5336   -5.5385   22.3345 C.ar    1  UNL1        0.0203
      4 C           7.8561   -5.3050   23.6523 C.ar    1  UNL1        0.0602
      5 C           6.9351   -4.1338   23.8250 C.ar    1  UNL1        0.0204
      6 C           6.6916   -3.1960   22.6800 C.ar    1  UNL1        0.0384
      7 C           6.4122   -4.1586   25.2307 C.ar    1  UNL1        0.0233
      8 C           7.0101   -5.3453   25.9268 C.ar    1  UNL1        0.1140
      9 N           7.9025   -6.0538   24.9513 N.ar    1  UNL1       -0.3238
     10 C           8.6419   -7.2891   25.3718 C.3     1  UNL1        0.1052
     11 C           9.5343   -7.9977   24.3963 C.3     1  UNL1        0.0263
     12 C           8.4891   -7.8160   26.7679 C.3     1  UNL1        0.1122
     13 N           7.5967   -7.1075   27.7434 N.am    1  UNL1       -0.2978
     14 C           6.8572   -5.8721   27.3228 C.2     1  UNL1        0.2618
     15 O           5.9648   -5.1635   28.2984 O.2     1  UNL1       -0.2686
     16 H           7.4964   -7.4533   28.6597 H       1  UNL1        0.1498
     17 O           7.1255   -2.4915   20.2171 O.3     1  UNL1       -0.4791
     18 N           3.0572   -0.6579   19.6368 N.3     1  UNL1       -0.2737
     19 C           4.2559    0.2226   19.8309 C.3     1  UNL1        0.0758
     20 C           5.6121   -0.3886   20.0243 C.3     1  UNL1        0.0609
     21 C           5.7694   -1.8803   20.0237 C.3     1  UNL1        0.1687
     22 C           4.5706   -2.7608   19.8296 C.3     1  UNL1        0.0609
     23 C           3.2145   -2.1496   19.6362 C.3     1  UNL1        0.0758
     24 C           1.3923    0.7110   18.1862 C.3     1  UNL1        0.0173
     25 C           1.7011   -0.0467   19.4434 C.3     1  UNL1        0.0576
     26 C           0.6538   -0.1930   20.5073 C.3     1  UNL1        0.0173
@<TRIPOS>BOND
     1    24    25    1
     2    25    26    1
     3    25    18    1
     4    18    19    1
     5    19    20    1
     6    20    21    1
     7    21    17    1
     8    17     1    1
     9     1     2   ar
    10     2     3   ar
    11     3     4   ar
    12     4     5   ar
    13     5     6   ar
    14     5     7   ar
    15     7     8   ar
    16     8     9   ar
    17     9    10    1
    18    10    11    1
    19    10    12    1
    20    12    13    1
    21    13    14   am
    22    14    15    2
    23    21    22    1
    24    22    23    1
    25    23    18    1
    26     6     1   ar
    27    14     8    1
    28     9     4   ar
    29    13    16    1
@<TRIPOS>MOLECULE
*****
 26 29 0 0 0
SMALL
GASTEIGER

@<TRIPOS>ATOM
      1 C           6.8109   -4.2282   22.1911 C.ar    1  UNL1        0.1385
      2 C           5.8325   -3.5364   23.0933 C.ar    1  UNL1        0.0384
      3 C           4.8233   -2.5874   22.5181 C.ar    1  UNL1        0.0203
      4 C           4.7926   -2.3301   21.0407 C.ar    1  UNL1        0.0602
      5 C           5.7711   -3.0218   20.1384 C.ar    1  UNL1        0.0204
      6 C           6.7803   -3.9708   20.7136 C.ar    1  UNL1        0.0384
      7 C           5.5024   -2.5731   18.7326 C.ar    1  UNL1        0.0233
      8 C           4.3579   -1.6041   18.7659 C.ar    1  UNL1        0.1140
      9 N           3.9192   -1.4539   20.1924 N.ar    1  UNL1       -0.3238
     10 C           2.7812   -0.5387   20.5346 C.3     1  UNL1        0.1052
     11 C           2.3425   -0.3885   21.9611 C.3     1  UNL1        0.0263
     12 C           2.0818    0.2263   19.4504 C.3     1  UNL1        0.1122
     13 N           2.5205    0.0761   18.0239 N.am    1  UNL1       -0.2978
     14 C           3.6586   -0.8392   17.6816 C.2     1  UNL1        0.2618
     15 O           4.0973   -0.9894   16.2550 O.2     1  UNL1       -0.2686
     16 H           2.0615    0.5781   17.3122 H       1  UNL1        0.1498
     17 O           7.8202   -5.1773   22.7663 O.3     1  UNL1       -0.4791
     18 N           7.9129   -5.9487   27.1987 N.3     1  UNL1       -0.2737
     19 C           7.7161   -7.0880   26.2431 C.3     1  UNL1        0.0758
     20 C           7.6852   -6.8309   24.7656 C.3     1  UNL1        0.0609
     21 C           7.8511   -5.4344   24.2437 C.3     1  UNL1        0.1687
     22 C           8.0478   -4.2950   25.1994 C.3     1  UNL1        0.0609
     23 C           8.0787   -4.5522   26.6768 C.3     1  UNL1        0.0758
     24 C           9.0177   -7.0723   29.2643 C.3     1  UNL1        0.0173
     25 C           7.9438   -6.2058   28.6761 C.3     1  UNL1        0.0576
     26 C           6.9007   -5.5965   29.5654 C.3     1  UNL1        0.0173
@<TRIPOS>BOND
     1    24    25    1
     2    25    26    1
     3    25    18    1
     4    18    19    1
     5    19    20    1
     6    20    21    1
     7    21    17    1
     8    17     1    1
     9     1     2   ar
    10     2     3   ar
    11     3     4   ar
    12     4     5   ar
    13     5     6   ar
    14     5     7   ar
    15     7     8   ar
    16     8     9   ar
    17     9    10    1
    18    10    11    1
    19    10    12    1
    20    12    13    1
    21    13    14   am
    22    14    15    2
    23    21    22    1
    24    22    23    1
    25    23    18    1
    26     6     1   ar
    27    14     8    1
    28     9     4   ar
    29    13    16    1
@<TRIPOS>MOLECULE
*****
 26 29 0 0 0
SMALL
GASTEIGER

@<TRIPOS>ATOM
      1 C           6.4192   -1.8140   25.8055 C.ar    1  UNL1        0.1385
      2 C           6.9814   -3.1978   25.6681 C.ar    1  UNL1        0.0384
      3 C           7.1372   -4.0678   26.8801 C.ar    1  UNL1        0.0203
      4 C           6.7307   -3.5539   28.2294 C.ar    1  UNL1        0.0602
      5 C           6.1685   -2.1701   28.3668 C.ar    1  UNL1        0.0204
      6 C           6.0128   -1.3001   27.1549 C.ar    1  UNL1        0.0384
      7 C           5.8571   -1.9380   29.8157 C.ar    1  UNL1        0.0233
      8 C           6.2269   -3.1785   30.5737 C.ar    1  UNL1        0.1140
      9 N           6.7668   -4.1772   29.5934 N.ar    1  UNL1       -0.3238
     10 C           7.2215   -5.5249   30.0693 C.3     1  UNL1        0.1052
     11 C           7.7614   -6.5236   29.0890 C.3     1  UNL1        0.0263
     12 C           7.1363   -5.8741   31.5256 C.3     1  UNL1        0.1122
     13 N           6.5964   -4.8754   32.5059 N.am    1  UNL1       -0.2978
     14 C           6.1416   -3.5276   32.0300 C.2     1  UNL1        0.2618
     15 O           5.6017   -2.5288   33.0104 O.2     1  UNL1       -0.2686
     16 H           6.5405   -5.1046   33.4618 H       1  UNL1        0.1498
     17 O           6.2635   -0.9439   24.5935 O.3     1  UNL1       -0.4791
     18 N           5.2633   -2.7888   20.6129 N.3     1  UNL1       -0.2737
     19 C           6.6372   -2.2407   20.8614 C.3     1  UNL1        0.0758
     20 C           6.9706   -1.6257   22.1883 C.3     1  UNL1        0.0609
     21 C           5.9301   -1.5589   23.2667 C.3     1  UNL1        0.1687
     22 C           4.5561   -2.1070   23.0180 C.3     1  UNL1        0.0609
     23 C           4.2227   -2.7220   21.6912 C.3     1  UNL1        0.0758
     24 C           4.1432   -4.6796   19.2271 C.3     1  UNL1        0.0173
     25 C           4.9299   -3.4038   19.2860 C.3     1  UNL1        0.0576
     26 C           5.3832   -2.7429   18.0179 C.3     1  UNL1        0.0173
@<TRIPOS>BOND
     1    24    25    1
     2    25    26    1
     3    25    18    1
     4    18    19    1
     5    19    20    1
     6    20    21    1
     7    21    17    1
     8    17     1    1
     9     1     2   ar
    10     2     3   ar
    11     3     4   ar
    12     4     5   ar
    13     5     6   ar
    14     5     7   ar
    15     7     8   ar
    16     8     9   ar
    17     9    10    1
    18    10    11    1
    19    10    12    1
    20    12    13    1
    21    13    14   am
    22    14    15    2
    23    21    22    1
    24    22    23    1
    25    23    18    1
    26     6     1   ar
    27    14     8    1
    28     9     4   ar
    29    13    16    1
@<TRIPOS>MOLECULE
*****
 26 29 0 0 0
SMALL
GASTEIGER

@<TRIPOS>ATOM
      1 C         -15.6063    0.5608   19.2918 C.ar    1  UNL1        0.1385
      2 C         -14.4665    1.1180   18.4916 C.ar    1  UNL1        0.0384
      3 C         -13.3096    0.2381   18.1210 C.ar    1  UNL1        0.0203
      4 C         -13.2926   -1.1990   18.5505 C.ar    1  UNL1        0.0602
      5 C         -14.4324   -1.7562   19.3507 C.ar    1  UNL1        0.0204
      6 C         -15.5892   -0.8763   19.7213 C.ar    1  UNL1        0.0384
      7 C         -14.1399   -3.2006   19.6303 C.ar    1  UNL1        0.0233
      8 C         -12.8194   -3.5361   19.0029 C.ar    1  UNL1        0.1140
      9 N         -12.2956   -2.2990   18.3356 N.ar    1  UNL1       -0.3238
     10 C         -10.9787   -2.3341   17.6184 C.3     1  UNL1        0.1052
     11 C         -10.4550   -1.0971   16.9510 C.3     1  UNL1        0.0263
     12 C         -10.1855   -3.6062   17.5686 C.3     1  UNL1        0.1122
     13 N         -10.7092   -4.8433   18.2359 N.am    1  UNL1       -0.2978
     14 C         -12.0262   -4.8082   18.9531 C.2     1  UNL1        0.2618
     15 O         -12.5500   -6.0453   19.6205 O.2     1  UNL1       -0.2686
     16 H         -10.1886   -5.6782   18.2033 H       1  UNL1        0.1498
     17 O         -16.7632    1.4407   19.6625 O.3     1  UNL1       -0.4791
     18 N         -16.5870    3.9312   23.4063 N.3     1  UNL1       -0.2737
     19 C         -15.8864    4.3946   22.1635 C.3     1  UNL1        0.0758
     20 C         -15.9451    3.5644   20.9155 C.3     1  UNL1        0.0609
     21 C         -16.7045    2.2709   20.9104 C.3     1  UNL1        0.1687
     22 C         -17.4051    1.8075   22.1532 C.3     1  UNL1        0.0609
     23 C         -17.3463    2.6376   23.4011 C.3     1  UNL1        0.0758
     24 C         -15.2249    4.9411   25.3747 C.3     1  UNL1        0.0173
     25 C         -16.5282    4.7614   24.6542 C.3     1  UNL1        0.0576
     26 C         -17.7727    5.4119   25.1815 C.3     1  UNL1        0.0173
@<TRIPOS>BOND
     1    24    25    1
     2    25    26    1
     3    25    18    1
     4    18    19    1
     5    19    20    1
     6    20    21    1
     7    21    17    1
     8    17     1    1
     9     1     2   ar
    10     2     3   ar
    11     3     4   ar
    12     4     5   ar
    13     5     6   ar
    14     5     7   ar
    15     7     8   ar
    16     8     9   ar
    17     9    10    1
    18    10    11    1
    19    10    12    1
    20    12    13    1
    21    13    14   am
    22    14    15    2
    23    21    22    1
    24    22    23    1
    25    23    18    1
    26     6     1   ar
    27    14     8    1
    28     9     4   ar
    29    13    16    1
@<TRIPOS>MOLECULE
*****
 26 29 0 0 0
SMALL
GASTEIGER

@<TRIPOS>ATOM
      1 C         -13.6754   -0.9627   17.9183 C.ar    1  UNL1        0.1385
      2 C         -12.3091   -1.0475   18.5314 C.ar    1  UNL1        0.0384
      3 C         -11.6235   -2.3759   18.6547 C.ar    1  UNL1        0.0203
      4 C         -12.3043   -3.6196   18.1651 C.ar    1  UNL1        0.0602
      5 C         -13.6707   -3.5348   17.5520 C.ar    1  UNL1        0.0204
      6 C         -14.3562   -2.2064   17.4286 C.ar    1  UNL1        0.0384
      7 C         -14.0902   -4.9210   17.1614 C.ar    1  UNL1        0.0233
      8 C         -12.9832   -5.8624   17.5331 C.ar    1  UNL1        0.1140
      9 N         -11.8794   -5.0582   18.1534 N.ar    1  UNL1       -0.3238
     10 C         -10.6301   -5.7396   18.6274 C.3     1  UNL1        0.1052
     11 C          -9.5263   -4.9353   19.2477 C.3     1  UNL1        0.0263
     12 C         -10.4845   -7.2253   18.4812 C.3     1  UNL1        0.1122
     13 N         -11.5883   -8.0296   17.8609 N.am    1  UNL1       -0.2978
     14 C         -12.8377   -7.3481   17.3869 C.2     1  UNL1        0.2618
     15 O         -13.9415   -8.1525   16.7666 O.2     1  UNL1       -0.2686
     16 H         -11.4927   -9.0047   17.7649 H       1  UNL1        0.1498
     17 O         -14.3611    0.3657   17.7949 O.3     1  UNL1       -0.4791
     18 N         -17.0127    1.8463   21.1155 N.3     1  UNL1       -0.2737
     19 C         -17.0019    0.3898   20.7572 C.3     1  UNL1        0.0758
     20 C         -16.1180   -0.1038   19.6503 C.3     1  UNL1        0.0609
     21 C         -15.2449    0.8592   18.9018 C.3     1  UNL1        0.1687
     22 C         -15.2558    2.3158   19.2601 C.3     1  UNL1        0.0609
     23 C         -16.1397    2.8093   20.3670 C.3     1  UNL1        0.0758
     24 C         -19.3681    2.5115   21.9872 C.3     1  UNL1        0.0173
     25 C         -17.8966    2.3398   22.2224 C.3     1  UNL1        0.0576
     26 C         -17.3090    2.6617   23.5645 C.3     1  UNL1        0.0173
@<TRIPOS>BOND
     1    24    25    1
     2    25    26    1
     3    25    18    1
     4    18    19    1
     5    19    20    1
     6    20    21    1
     7    21    17    1
     8    17     1    1
     9     1     2   ar
    10     2     3   ar
    11     3     4   ar
    12     4     5   ar
    13     5     6   ar
    14     5     7   ar
    15     7     8   ar
    16     8     9   ar
    17     9    10    1
    18    10    11    1
    19    10    12    1
    20    12    13    1
    21    13    14   am
    22    14    15    2
    23    21    22    1
    24    22    23    1
    25    23    18    1
    26     6     1   ar
    27    14     8    1
    28     9     4   ar
    29    13    16    1
@<TRIPOS>MOLECULE
*****
 26 29 0 0 0
SMALL
GASTEIGER

@<TRIPOS>ATOM
      1 C          -0.9913    2.9569   20.3901 C.ar    1  UNL1        0.1385
      2 C          -0.4079    3.0967   21.7649 C.ar    1  UNL1        0.0384
      3 C          -1.2948    3.4407   22.9245 C.ar    1  UNL1        0.0203
      4 C          -2.7652    3.6449   22.7094 C.ar    1  UNL1        0.0602
      5 C          -3.3487    3.5050   21.3347 C.ar    1  UNL1        0.0204
      6 C          -2.4617    3.1610   20.1750 C.ar    1  UNL1        0.0384
      7 C          -4.8233    3.7628   21.4286 C.ar    1  UNL1        0.0233
      8 C          -5.1513    4.0620   22.8614 C.ar    1  UNL1        0.1140
      9 N          -3.8794    3.9891   23.6531 N.ar    1  UNL1       -0.3238
     10 C          -3.9000    4.2456   25.1307 C.3     1  UNL1        0.1052
     11 C          -2.6280    4.1727   25.9224 C.3     1  UNL1        0.0263
     12 C          -5.1925    4.5750   25.8169 C.3     1  UNL1        0.1122
     13 N          -6.4645    4.6479   25.0252 N.am    1  UNL1       -0.2978
     14 C          -6.4439    4.3914   23.5474 C.2     1  UNL1        0.2618
     15 O          -7.7160    4.4643   22.7557 O.2     1  UNL1       -0.2686
     16 H          -7.3129    4.8640   25.4755 H       1  UNL1        0.1498
     17 O          -0.1043    2.6128   19.2303 O.3     1  UNL1       -0.4791
     18 N           2.8575   -0.7565   19.5847 N.3     1  UNL1       -0.2737
     19 C           1.4983   -0.8843   20.2061 C.3     1  UNL1        0.0758
     20 C           0.5109    0.2389   20.0880 C.3     1  UNL1        0.0609
     21 C           0.8829    1.4897   19.3484 C.3     1  UNL1        0.1687
     22 C           2.2422    1.6175   18.7270 C.3     1  UNL1        0.0609
     23 C           3.2294    0.4944   18.8451 C.3     1  UNL1        0.0758
     24 C           5.2305   -1.6098   20.2094 C.3     1  UNL1        0.0173
     25 C           3.8447   -1.8796   19.7028 C.3     1  UNL1        0.0576
     26 C           3.4461   -3.2725   19.3143 C.3     1  UNL1        0.0173
@<TRIPOS>BOND
     1    24    25    1
     2    25    26    1
     3    25    18    1
     4    18    19    1
     5    19    20    1
     6    20    21    1
     7    21    17    1
     8    17     1    1
     9     1     2   ar
    10     2     3   ar
    11     3     4   ar
    12     4     5   ar
    13     5     6   ar
    14     5     7   ar
    15     7     8   ar
    16     8     9   ar
    17     9    10    1
    18    10    11    1
    19    10    12    1
    20    12    13    1
    21    13    14   am
    22    14    15    2
    23    21    22    1
    24    22    23    1
    25    23    18    1
    26     6     1   ar
    27    14     8    1
    28     9     4   ar
    29    13    16    1
