@<TRIPOS>MOLECULE
*****
 29 30 0 0 0
SMALL
GASTEIGER

@<TRIPOS>ATOM
      1 C          -6.8326  -19.7359   21.9710 C.3     1  UNL1        0.1010
      2 C          -9.8348  -17.9116   23.9149 C.3     1  UNL1        0.0928
      3 C         -10.8745  -18.6519   24.7028 C.3     1  UNL1        0.0230
      4 C         -10.5687  -20.1176   24.6118 C.3     1  UNL1        0.0232
      5 C          -9.3400  -20.2831   23.7676 C.3     1  UNL1        0.0934
      6 N          -8.8864  -18.9198   23.3369 N.am    1  UNL1       -0.2797
      7 C          -7.6937  -18.6176   22.4788 C.2     1  UNL1        0.2270
      8 O          -7.3623  -17.1973   22.1286 O.2     1  UNL1       -0.2748
      9 C          -9.7571  -16.4243   23.7363 C.3     1  UNL1        0.1108
     10 N         -10.0322  -15.8147   22.3936 N.3     1  UNL1       -0.1816
     11 H         -10.1441  -14.8119   22.5429 H       1  UNL1        0.1485
     12 C         -12.4007  -16.7213   20.7912 C.3     1  UNL1        0.1957
     13 S         -11.2164  -16.2680   21.5924 S.O2    1  UNL1        0.0427
     14 O         -12.1370  -15.6841   22.6228 O.2     1  UNL1       -0.1575
     15 O         -10.2958  -16.8518   20.5620 O.2     1  UNL1       -0.1575
     16 C          -6.2771  -19.6818   20.5786 C.3     1  UNL1        0.0644
     17 N          -7.0490  -18.9982   19.4892 N.3     1  UNL1       -0.3215
     18 H          -7.9209  -18.6303   19.8697 H       1  UNL1        0.1188
     19 H          -7.2571  -19.6678   18.7484 H       1  UNL1        0.1188
     20 C          -4.9497  -20.3113   20.2758 C.3     1  UNL1        0.0447
     21 C          -3.7061  -19.4726   20.2685 C.ar    1  UNL1        0.0090
     22 C          -3.1498  -18.9674   18.9703 C.ar    1  UNL1        0.0300
     23 C          -1.9062  -18.1288   18.9631 C.ar    1  UNL1        0.1672
     24 F          -1.3498  -17.6235   17.6649 F       1  UNL1       -0.2018
     25 C          -1.2189  -17.7953   20.2540 C.ar    1  UNL1        0.1696
     26 F           0.0248  -16.9566   20.2467 F       1  UNL1       -0.2017
     27 C          -1.7752  -18.3005   21.5521 C.ar    1  UNL1        0.0612
     28 C          -3.0188  -19.1392   21.5594 C.ar    1  UNL1        0.1386
     29 F          -3.5751  -19.6444   22.8576 F       1  UNL1       -0.2044
@<TRIPOS>BOND
     1    12    13    1
     2    13    14    2
     3    13    15    2
     4    13    10    1
     5    10     9    1
     6     2     9    1
     7     2     3    1
     8     3     4    1
     9     4     5    1
    10     5     6    1
    11     6     7   am
    12     7     8    2
    13     7     1    1
    14     1    16    1
    15    16    17    1
    16    16    20    1
    17    20    21    1
    18    21    22   ar
    19    22    23   ar
    20    23    24    1
    21    23    25   ar
    22    25    26    1
    23    25    27   ar
    24    27    28   ar
    25    28    29    1
    26     6     2    1
    27    28    21   ar
    28    10    11    1
    29    17    18    1
    30    17    19    1
@<TRIPOS>MOLECULE
*****
 29 30 0 0 0
SMALL
GASTEIGER

@<TRIPOS>ATOM
      1 C          -7.0796  -16.3875   23.9719 C.3     1  UNL1        0.1010
      2 C          -9.7932  -18.9325   22.4621 C.3     1  UNL1        0.0928
      3 C         -10.8362  -19.6138   23.2975 C.3     1  UNL1        0.0230
      4 C         -10.6561  -19.1679   24.7183 C.3     1  UNL1        0.0232
      5 C          -9.5017  -18.2110   24.7610 C.3     1  UNL1        0.0934
      6 N          -8.9684  -18.0655   23.3666 N.am    1  UNL1       -0.2797
      7 C          -7.8132  -17.2043   22.9498 C.2     1  UNL1        0.2270
      8 O          -7.3916  -17.1599   21.5110 O.2     1  UNL1       -0.2748
      9 C          -9.6075  -19.0905   20.9820 C.3     1  UNL1        0.1108
     10 N         -10.0396  -17.9967   20.0509 N.3     1  UNL1       -0.1816
     11 H          -9.2249  -17.4031   19.8958 H       1  UNL1        0.1485
     12 C         -12.3012  -16.1807   20.8170 C.3     1  UNL1        0.1957
     13 S         -11.1704  -17.0887   20.4339 S.O2    1  UNL1        0.0427
     14 O         -12.1341  -18.2296   20.2935 O.2     1  UNL1       -0.1575
     15 O         -10.2067  -15.9478   20.5744 O.2     1  UNL1       -0.1575
     16 C          -5.6552  -15.9850   23.7286 C.3     1  UNL1        0.0644
     17 N          -5.3372  -14.5929   23.2695 N.3     1  UNL1       -0.3215
     18 H          -6.2019  -14.0600   23.1756 H       1  UNL1        0.1188
     19 H          -4.8625  -14.6324   22.3675 H       1  UNL1        0.1188
     20 C          -4.5489  -16.9747   23.9444 C.3     1  UNL1        0.0447
     21 C          -3.7281  -17.4475   22.7814 C.ar    1  UNL1        0.0090
     22 C          -2.5954  -16.6066   22.2715 C.ar    1  UNL1        0.0300
     23 C          -1.7747  -17.0795   21.1085 C.ar    1  UNL1        0.1672
     24 F          -0.6419  -16.2386   20.5987 F       1  UNL1       -0.2018
     25 C          -2.0865  -18.3933   20.4553 C.ar    1  UNL1        0.1696
     26 F          -1.2657  -18.8661   19.2922 F       1  UNL1       -0.2017
     27 C          -3.2192  -19.2342   20.9651 C.ar    1  UNL1        0.0612
     28 C          -4.0399  -18.7613   22.1281 C.ar    1  UNL1        0.1386
     29 F          -5.1726  -19.6023   22.6380 F       1  UNL1       -0.2044
@<TRIPOS>BOND
     1    12    13    1
     2    13    14    2
     3    13    15    2
     4    13    10    1
     5    10     9    1
     6     2     9    1
     7     2     3    1
     8     3     4    1
     9     4     5    1
    10     5     6    1
    11     6     7   am
    12     7     8    2
    13     7     1    1
    14     1    16    1
    15    16    17    1
    16    16    20    1
    17    20    21    1
    18    21    22   ar
    19    22    23   ar
    20    23    24    1
    21    23    25   ar
    22    25    26    1
    23    25    27   ar
    24    27    28   ar
    25    28    29    1
    26     6     2    1
    27    28    21   ar
    28    10    11    1
    29    17    18    1
    30    17    19    1
@<TRIPOS>MOLECULE
*****
 29 30 0 0 0
SMALL
GASTEIGER

@<TRIPOS>ATOM
      1 C          -6.8110  -19.6652   21.9887 C.3     1  UNL1        0.1010
      2 C          -9.8478  -17.8198   23.8573 C.3     1  UNL1        0.0928
      3 C         -10.8759  -18.5470   24.6722 C.3     1  UNL1        0.0230
      4 C         -10.5445  -20.0096   24.6384 C.3     1  UNL1        0.0232
      5 C          -9.3116  -20.1862   23.8025 C.3     1  UNL1        0.0934
      6 N          -8.8810  -18.8329   23.3198 N.am    1  UNL1       -0.2797
      7 C          -7.6923  -18.5434   22.4519 C.2     1  UNL1        0.2270
      8 O          -7.3850  -17.1320   22.0473 O.2     1  UNL1       -0.2748
      9 C          -9.7957  -16.3394   23.6214 C.3     1  UNL1        0.1108
     10 N          -9.3742  -15.4179   24.7274 N.3     1  UNL1       -0.1816
     11 H          -9.5358  -14.4669   24.3960 H       1  UNL1        0.1485
     12 C          -6.5604  -15.5073   25.7639 C.3     1  UNL1        0.1957
     13 S          -7.9673  -15.4626   25.2457 S.O2    1  UNL1        0.0427
     14 O          -7.5100  -14.6441   24.0747 O.2     1  UNL1       -0.1575
     15 O          -8.4246  -16.2811   26.4166 O.2     1  UNL1       -0.1575
     16 C          -6.3080  -19.6894   20.5757 C.3     1  UNL1        0.0644
     17 N          -7.1236  -19.0720   19.4786 N.3     1  UNL1       -0.3215
     18 H          -7.9827  -18.6856   19.8698 H       1  UNL1        0.1188
     19 H          -7.3555  -19.7836   18.7856 H       1  UNL1        0.1188
     20 C          -4.9895  -20.3310   20.2598 C.3     1  UNL1        0.0447
     21 C          -3.7339  -19.5102   20.2719 C.ar    1  UNL1        0.0090
     22 C          -3.1620  -18.9954   18.9844 C.ar    1  UNL1        0.0300
     23 C          -1.9065  -18.1747   18.9965 C.ar    1  UNL1        0.1672
     24 F          -1.3345  -17.6599   17.7089 F       1  UNL1       -0.2018
     25 C          -1.2230  -17.8688   20.2962 C.ar    1  UNL1        0.1696
     26 F           0.0325  -17.0480   20.3083 F       1  UNL1       -0.2017
     27 C          -1.7950  -18.3836   21.5838 C.ar    1  UNL1        0.0612
     28 C          -3.0504  -19.2043   21.5716 C.ar    1  UNL1        0.1386
     29 F          -3.6224  -19.7191   22.8592 F       1  UNL1       -0.2044
@<TRIPOS>BOND
     1    12    13    1
     2    13    14    2
     3    13    15    2
     4    13    10    1
     5    10     9    1
     6     2     9    1
     7     2     3    1
     8     3     4    1
     9     4     5    1
    10     5     6    1
    11     6     7   am
    12     7     8    2
    13     7     1    1
    14     1    16    1
    15    16    17    1
    16    16    20    1
    17    20    21    1
    18    21    22   ar
    19    22    23   ar
    20    23    24    1
    21    23    25   ar
    22    25    26    1
    23    25    27   ar
    24    27    28   ar
    25    28    29    1
    26     6     2    1
    27    28    21   ar
    28    10    11    1
    29    17    18    1
    30    17    19    1
@<TRIPOS>MOLECULE
*****
 29 30 0 0 0
SMALL
GASTEIGER

@<TRIPOS>ATOM
      1 C          -7.8445  -19.1092   21.5447 C.3     1  UNL1        0.1010
      2 C          -4.0086  -18.5647   22.5975 C.3     1  UNL1        0.0928
      3 C          -3.5437  -17.4211   23.4497 C.3     1  UNL1        0.0230
      4 C          -4.7402  -16.5857   23.7972 C.3     1  UNL1        0.0232
      5 C          -5.9444  -17.2131   23.1598 C.3     1  UNL1        0.0934
      6 N          -5.4922  -18.4361   22.4184 N.am    1  UNL1       -0.2797
      7 C          -6.3697  -19.3671   21.6353 C.2     1  UNL1        0.2270
      8 O          -5.7723  -20.5560   20.9428 O.2     1  UNL1       -0.2748
      9 C          -3.1418  -19.6468   22.0250 C.3     1  UNL1        0.1108
     10 N          -2.9924  -19.7804   20.5384 N.3     1  UNL1       -0.1816
     11 H          -2.3655  -20.5683   20.3752 H       1  UNL1        0.1485
     12 C          -1.9350  -17.4833   18.9245 C.3     1  UNL1        0.1957
     13 S          -2.4637  -18.6319   19.7315 S.O2    1  UNL1        0.0427
     14 O          -3.8517  -18.3331   19.2475 O.2     1  UNL1       -0.1575
     15 O          -1.0757  -18.9308   20.2155 O.2     1  UNL1       -0.1575
     16 C          -8.5699  -19.3482   20.2536 C.3     1  UNL1        0.0644
     17 N          -7.8488  -19.1900   18.9479 N.3     1  UNL1       -0.3215
     18 H          -6.8815  -18.9187   19.1243 H       1  UNL1        0.1188
     19 H          -8.3079  -18.4692   18.3910 H       1  UNL1        0.1188
     20 C         -10.0162  -19.7455   20.2683 C.3     1  UNL1        0.0447
     21 C         -10.9724  -19.0617   21.2002 C.ar    1  UNL1        0.0090
     22 C         -11.0845  -19.5156   22.6254 C.ar    1  UNL1        0.0300
     23 C         -12.0406  -18.8319   23.5573 C.ar    1  UNL1        0.1672
     24 F         -12.1528  -19.2858   24.9826 F       1  UNL1       -0.2018
     25 C         -12.8846  -17.6943   23.0638 C.ar    1  UNL1        0.1696
     26 F         -13.8407  -17.0105   23.9957 F       1  UNL1       -0.2017
     27 C         -12.7724  -17.2403   21.6386 C.ar    1  UNL1        0.0612
     28 C         -11.8163  -17.9241   20.7068 C.ar    1  UNL1        0.1386
     29 F         -11.7041  -17.4702   19.2815 F       1  UNL1       -0.2044
@<TRIPOS>BOND
     1    12    13    1
     2    13    14    2
     3    13    15    2
     4    13    10    1
     5    10     9    1
     6     2     9    1
     7     2     3    1
     8     3     4    1
     9     4     5    1
    10     5     6    1
    11     6     7   am
    12     7     8    2
    13     7     1    1
    14     1    16    1
    15    16    17    1
    16    16    20    1
    17    20    21    1
    18    21    22   ar
    19    22    23   ar
    20    23    24    1
    21    23    25   ar
    22    25    26    1
    23    25    27   ar
    24    27    28   ar
    25    28    29    1
    26     6     2    1
    27    28    21   ar
    28    10    11    1
    29    17    18    1
    30    17    19    1
@<TRIPOS>MOLECULE
*****
 29 30 0 0 0
SMALL
GASTEIGER

@<TRIPOS>ATOM
      1 C          -7.2002  -19.9672   22.2051 C.3     1  UNL1        0.1010
      2 C          -9.9220  -17.2804   23.4271 C.3     1  UNL1        0.0928
      3 C          -9.5608  -15.9154   23.9333 C.3     1  UNL1        0.0230
      4 C          -8.0672  -15.7838   23.8863 C.3     1  UNL1        0.0232
      5 C          -7.5055  -17.0675   23.3510 C.3     1  UNL1        0.0934
      6 N          -8.6518  -17.9925   23.0672 N.am    1  UNL1       -0.2797
      7 C          -8.5463  -19.3849   22.5196 C.2     1  UNL1        0.2270
      8 O          -9.7870  -20.1951   22.2866 O.2     1  UNL1       -0.2748
      9 C         -11.3098  -17.8359   23.3026 C.3     1  UNL1        0.1108
     10 N         -11.8974  -18.0894   21.9460 N.3     1  UNL1       -0.1816
     11 H         -11.4705  -18.9471   21.5958 H       1  UNL1        0.1485
     12 C         -11.6128  -16.0335   19.7798 C.3     1  UNL1        0.1957
     13 S         -11.7551  -17.0615   20.8629 S.O2    1  UNL1        0.0427
     14 O         -12.5375  -16.0835   21.6884 O.2     1  UNL1       -0.1575
     15 O         -10.9727  -18.0395   20.0375 O.2     1  UNL1       -0.1575
     16 C          -6.5424  -19.6685   20.8905 C.3     1  UNL1        0.0644
     17 N          -7.2627  -18.8500   19.8603 N.3     1  UNL1       -0.3215
     18 H          -8.1795  -18.5826   20.2186 H       1  UNL1        0.1188
     19 H          -7.3775  -19.3997   19.0088 H       1  UNL1        0.1188
     20 C          -5.1644  -20.1882   20.6062 C.3     1  UNL1        0.0447
     21 C          -4.0044  -19.2396   20.5371 C.ar    1  UNL1        0.0090
     22 C          -3.3820  -18.9111   19.2125 C.ar    1  UNL1        0.0300
     23 C          -2.2221  -17.9626   19.1435 C.ar    1  UNL1        0.1672
     24 F          -1.5997  -17.6340   17.8189 F       1  UNL1       -0.2018
     25 C          -1.6846  -17.3425   20.3992 C.ar    1  UNL1        0.1696
     26 F          -0.5247  -16.3939   20.3301 F       1  UNL1       -0.2017
     27 C          -2.3070  -17.6710   21.7238 C.ar    1  UNL1        0.0612
     28 C          -3.4669  -18.6196   21.7928 C.ar    1  UNL1        0.1386
     29 F          -4.0894  -18.9481   23.1174 F       1  UNL1       -0.2044
@<TRIPOS>BOND
     1    12    13    1
     2    13    14    2
     3    13    15    2
     4    13    10    1
     5    10     9    1
     6     2     9    1
     7     2     3    1
     8     3     4    1
     9     4     5    1
    10     5     6    1
    11     6     7   am
    12     7     8    2
    13     7     1    1
    14     1    16    1
    15    16    17    1
    16    16    20    1
    17    20    21    1
    18    21    22   ar
    19    22    23   ar
    20    23    24    1
    21    23    25   ar
    22    25    26    1
    23    25    27   ar
    24    27    28   ar
    25    28    29    1
    26     6     2    1
    27    28    21   ar
    28    10    11    1
    29    17    18    1
    30    17    19    1
@<TRIPOS>MOLECULE
*****
 29 30 0 0 0
SMALL
GASTEIGER

@<TRIPOS>ATOM
      1 C          -7.0373  -17.5533   22.6204 C.3     1  UNL1        0.1010
      2 C          -3.9240  -19.6949   21.2639 C.3     1  UNL1        0.0928
      3 C          -4.0693  -20.8468   20.3140 C.3     1  UNL1        0.0230
      4 C          -5.5278  -21.0112   20.0045 C.3     1  UNL1        0.0232
      5 C          -6.2838  -19.9610   20.7630 C.3     1  UNL1        0.0934
      6 N          -5.2926  -19.1475   21.5413 N.am    1  UNL1       -0.2797
      7 C          -5.6137  -17.9898   22.4394 C.2     1  UNL1        0.2270
      8 O          -4.5112  -17.2686   23.1565 O.2     1  UNL1       -0.2748
      9 C          -2.6361  -19.1809   21.8358 C.3     1  UNL1        0.1108
     10 N          -1.9994  -17.9496   21.2625 N.3     1  UNL1       -0.1816
     11 H          -2.5861  -17.1608   21.5346 H       1  UNL1        0.1485
     12 C          -1.5645  -17.7248   18.3028 C.3     1  UNL1        0.1957
     13 S          -1.7819  -17.8372   19.7827 S.O2    1  UNL1        0.0427
     14 O          -3.0035  -16.9741   19.6688 O.2     1  UNL1       -0.1575
     15 O          -0.5604  -18.7003   19.8966 O.2     1  UNL1       -0.1575
     16 C          -7.3497  -16.3309   23.4317 C.3     1  UNL1        0.0644
     17 N          -6.5401  -15.0816   23.2478 N.3     1  UNL1       -0.3215
     18 H          -5.8257  -15.2410   22.5374 H       1  UNL1        0.1188
     19 H          -6.0927  -14.8334   24.1302 H       1  UNL1        0.1188
     20 C          -8.4716  -16.3579   24.4270 C.3     1  UNL1        0.0447
     21 C          -9.8278  -16.8491   24.0152 C.ar    1  UNL1        0.0090
     22 C         -10.5910  -16.1323   22.9412 C.ar    1  UNL1        0.0300
     23 C         -11.9471  -16.6235   22.5295 C.ar    1  UNL1        0.1672
     24 F         -12.7103  -15.9067   21.4554 F       1  UNL1       -0.2018
     25 C         -12.5401  -17.8317   23.1919 C.ar    1  UNL1        0.1696
     26 F         -13.8963  -18.3229   22.7802 F       1  UNL1       -0.2017
     27 C         -11.7769  -18.5485   24.2660 C.ar    1  UNL1        0.0612
     28 C         -10.4208  -18.0573   24.6776 C.ar    1  UNL1        0.1386
     29 F          -9.6576  -18.7741   25.7518 F       1  UNL1       -0.2044
@<TRIPOS>BOND
     1    12    13    1
     2    13    14    2
     3    13    15    2
     4    13    10    1
     5    10     9    1
     6     2     9    1
     7     2     3    1
     8     3     4    1
     9     4     5    1
    10     5     6    1
    11     6     7   am
    12     7     8    2
    13     7     1    1
    14     1    16    1
    15    16    17    1
    16    16    20    1
    17    20    21    1
    18    21    22   ar
    19    22    23   ar
    20    23    24    1
    21    23    25   ar
    22    25    26    1
    23    25    27   ar
    24    27    28   ar
    25    28    29    1
    26     6     2    1
    27    28    21   ar
    28    10    11    1
    29    17    18    1
    30    17    19    1
@<TRIPOS>MOLECULE
*****
 29 30 0 0 0
SMALL
GASTEIGER

@<TRIPOS>ATOM
      1 C          -7.2867  -15.7640   23.3376 C.3     1  UNL1        0.1010
      2 C          -5.3559  -19.0681   22.1233 C.3     1  UNL1        0.0928
      3 C          -5.9495  -20.0654   21.1730 C.3     1  UNL1        0.0230
      4 C          -7.3237  -19.5916   20.8025 C.3     1  UNL1        0.0232
      5 C          -7.5793  -18.3015   21.5239 C.3     1  UNL1        0.0934
      6 N          -6.3632  -17.9780   22.3402 N.am    1  UNL1       -0.2797
      7 C          -6.1855  -16.7755   23.2190 C.2     1  UNL1        0.2270
      8 O          -4.9066  -16.5846   23.9793 O.2     1  UNL1       -0.2748
      9 C          -3.9941  -19.1472   22.7472 C.3     1  UNL1        0.1108
     10 N          -2.9465  -18.1339   22.3924 N.3     1  UNL1       -0.1816
     11 H          -3.4125  -17.2271   22.3614 H       1  UNL1        0.1485
     12 C          -1.4050  -18.4031   19.8330 C.3     1  UNL1        0.1957
     13 S          -2.1757  -18.2686   21.1127 S.O2    1  UNL1        0.0427
     14 O          -2.5214  -16.8532   20.7557 O.2     1  UNL1       -0.1575
     15 O          -1.8301  -19.6838   21.4698 O.2     1  UNL1       -0.1575
     16 C          -7.9574  -15.5370   24.6600 C.3     1  UNL1        0.0644
     17 N          -7.2168  -14.8489   25.7682 N.3     1  UNL1       -0.3215
     18 H          -6.2784  -14.6064   25.4507 H       1  UNL1        0.1188
     19 H          -7.1529  -15.4725   26.5729 H       1  UNL1        0.1188
     20 C          -9.3686  -15.9979   24.8741 C.3     1  UNL1        0.0447
     21 C          -9.8686  -17.2303   24.1802 C.ar    1  UNL1        0.0090
     22 C          -9.3980  -18.5838   24.6235 C.ar    1  UNL1        0.0300
     23 C          -9.8979  -19.8160   23.9296 C.ar    1  UNL1        0.1672
     24 F          -9.4273  -21.1696   24.3729 F       1  UNL1       -0.2018
     25 C         -10.8685  -19.6948   22.7923 C.ar    1  UNL1        0.1696
     26 F         -11.3684  -20.9271   22.0984 F       1  UNL1       -0.2017
     27 C         -11.3391  -18.3413   22.3490 C.ar    1  UNL1        0.0612
     28 C         -10.8391  -17.1091   23.0429 C.ar    1  UNL1        0.1386
     29 F         -11.3098  -15.7555   22.5996 F       1  UNL1       -0.2044
@<TRIPOS>BOND
     1    12    13    1
     2    13    14    2
     3    13    15    2
     4    13    10    1
     5    10     9    1
     6     2     9    1
     7     2     3    1
     8     3     4    1
     9     4     5    1
    10     5     6    1
    11     6     7   am
    12     7     8    2
    13     7     1    1
    14     1    16    1
    15    16    17    1
    16    16    20    1
    17    20    21    1
    18    21    22   ar
    19    22    23   ar
    20    23    24    1
    21    23    25   ar
    22    25    26    1
    23    25    27   ar
    24    27    28   ar
    25    28    29    1
    26     6     2    1
    27    28    21   ar
    28    10    11    1
    29    17    18    1
    30    17    19    1
@<TRIPOS>MOLECULE
*****
 29 30 0 0 0
SMALL
GASTEIGER

@<TRIPOS>ATOM
      1 C          -6.4820  -17.5005   23.0715 C.3     1  UNL1        0.1010
      2 C          -3.5475  -19.6659   21.3924 C.3     1  UNL1        0.0928
      3 C          -3.7927  -20.7116   20.3453 C.3     1  UNL1        0.0230
      4 C          -5.2685  -20.7669   20.0820 C.3     1  UNL1        0.0232
      5 C          -5.9352  -19.7554   20.9664 C.3     1  UNL1        0.0934
      6 N          -4.8716  -19.0749   21.7763 N.am    1  UNL1       -0.2797
      7 C          -5.0932  -17.9934   22.7918 C.2     1  UNL1        0.2270
      8 O          -3.9261  -17.4048   23.5275 O.2     1  UNL1       -0.2748
      9 C          -2.2125  -19.2792   21.9565 C.3     1  UNL1        0.1108
     10 N          -1.4708  -18.1046   21.3906 N.3     1  UNL1       -0.1816
     11 H          -1.8377  -17.2735   21.8543 H       1  UNL1        0.1485
     12 C          -1.5522  -17.5581   18.4420 C.3     1  UNL1        0.1957
     13 S          -1.5116  -17.8313   19.9163 S.O2    1  UNL1        0.0427
     14 O          -0.3885  -18.8031   19.7052 O.2     1  UNL1       -0.1575
     15 O          -2.6346  -16.8596   20.1274 O.2     1  UNL1       -0.1575
     16 C          -6.7031  -16.0756   23.4846 C.3     1  UNL1        0.0644
     17 N          -5.5623  -15.1019   23.4601 N.3     1  UNL1       -0.3215
     18 H          -4.7178  -15.5757   23.1396 H       1  UNL1        0.1188
     19 H          -5.4098  -14.7331   24.3987 H       1  UNL1        0.1188
     20 C          -8.0650  -15.6243   23.9223 C.3     1  UNL1        0.0447
     21 C          -9.2904  -16.2318   23.3062 C.ar    1  UNL1        0.0090
     22 C         -10.1216  -17.2029   24.0910 C.ar    1  UNL1        0.0300
     23 C         -11.3469  -17.8103   23.4749 C.ar    1  UNL1        0.1672
     24 F         -12.1782  -18.7816   24.2596 F       1  UNL1       -0.2018
     25 C         -11.7410  -17.4466   22.0740 C.ar    1  UNL1        0.1696
     26 F         -12.9664  -18.0541   21.4579 F       1  UNL1       -0.2017
     27 C         -10.9098  -16.4754   21.2893 C.ar    1  UNL1        0.0612
     28 C          -9.6845  -15.8680   21.9054 C.ar    1  UNL1        0.1386
     29 F          -8.8532  -14.8968   21.1206 F       1  UNL1       -0.2044
@<TRIPOS>BOND
     1    12    13    1
     2    13    14    2
     3    13    15    2
     4    13    10    1
     5    10     9    1
     6     2     9    1
     7     2     3    1
     8     3     4    1
     9     4     5    1
    10     5     6    1
    11     6     7   am
    12     7     8    2
    13     7     1    1
    14     1    16    1
    15    16    17    1
    16    16    20    1
    17    20    21    1
    18    21    22   ar
    19    22    23   ar
    20    23    24    1
    21    23    25   ar
    22    25    26    1
    23    25    27   ar
    24    27    28   ar
    25    28    29    1
    26     6     2    1
    27    28    21   ar
    28    10    11    1
    29    17    18    1
    30    17    19    1
@<TRIPOS>MOLECULE
*****
 29 30 0 0 0
SMALL
GASTEIGER

@<TRIPOS>ATOM
      1 C          -7.6531  -19.3689   21.4628 C.3     1  UNL1        0.1010
      2 C          -5.7352  -16.4518   23.4456 C.3     1  UNL1        0.0928
      3 C          -4.2890  -16.5349   23.8349 C.3     1  UNL1        0.0230
      4 C          -3.7549  -17.8522   23.3555 C.3     1  UNL1        0.0232
      5 C          -4.8711  -18.5830   22.6699 C.3     1  UNL1        0.0934
      6 N          -6.0950  -17.7175   22.7256 N.am    1  UNL1       -0.2797
      7 C          -7.4421  -18.0580   22.1605 C.2     1  UNL1        0.2270
      8 O          -8.5781  -17.0875   22.2931 O.2     1  UNL1       -0.2748
      9 C          -6.6594  -15.3043   23.7269 C.3     1  UNL1        0.1108
     10 N          -6.7669  -14.7511   25.1171 N.3     1  UNL1       -0.1816
     11 H          -5.8139  -14.6250   25.4583 H       1  UNL1        0.1485
     12 C          -8.2479  -16.2813   27.2301 C.3     1  UNL1        0.1957
     13 S          -7.5074  -15.5162   26.1736 S.O2    1  UNL1        0.0427
     14 O          -8.7688  -15.4058   25.3693 O.2     1  UNL1       -0.1575
     15 O          -6.2460  -15.6266   26.9778 O.2     1  UNL1       -0.1575
     16 C          -8.5017  -19.4331   20.2275 C.3     1  UNL1        0.0644
     17 N          -7.9268  -19.0334   18.9010 N.3     1  UNL1       -0.3215
     18 H          -6.9554  -18.7473   19.0238 H       1  UNL1        0.1188
     19 H          -8.4644  -18.2558   18.5179 H       1  UNL1        0.1188
     20 C          -9.9253  -19.8969   20.3189 C.3     1  UNL1        0.0447
     21 C         -10.8906  -19.1829   21.2180 C.ar    1  UNL1        0.0090
     22 C         -11.0153  -19.5879   22.6569 C.ar    1  UNL1        0.0300
     23 C         -11.9806  -18.8739   23.5560 C.ar    1  UNL1        0.1672
     24 F         -12.1054  -19.2790   24.9949 F       1  UNL1       -0.2018
     25 C         -12.8211  -17.7549   23.0162 C.ar    1  UNL1        0.1696
     26 F         -13.7864  -17.0409   23.9154 F       1  UNL1       -0.2017
     27 C         -12.6963  -17.3499   21.5774 C.ar    1  UNL1        0.0612
     28 C         -11.7311  -18.0639   20.6783 C.ar    1  UNL1        0.1386
     29 F         -11.6062  -17.6589   19.2393 F       1  UNL1       -0.2044
@<TRIPOS>BOND
     1    12    13    1
     2    13    14    2
     3    13    15    2
     4    13    10    1
     5    10     9    1
     6     2     9    1
     7     2     3    1
     8     3     4    1
     9     4     5    1
    10     5     6    1
    11     6     7   am
    12     7     8    2
    13     7     1    1
    14     1    16    1
    15    16    17    1
    16    16    20    1
    17    20    21    1
    18    21    22   ar
    19    22    23   ar
    20    23    24    1
    21    23    25   ar
    22    25    26    1
    23    25    27   ar
    24    27    28   ar
    25    28    29    1
    26     6     2    1
    27    28    21   ar
    28    10    11    1
    29    17    18    1
    30    17    19    1
