@<TRIPOS>MOLECULE
*****
 30 33 0 0 0
SMALL
GASTEIGER

@<TRIPOS>ATOM
      1 C          -9.2620  -19.3437   21.7729 C.ar    1  UNL1        0.2172
      2 N          -8.3112  -20.0003   22.7293 N.ar    1  UNL1       -0.2126
      3 C          -6.9775  -20.4871   22.2454 C.ar    1  UNL1        0.0994
      4 C          -6.5946  -20.3174   20.8051 C.ar    1  UNL1        0.0207
      5 C          -7.5454  -19.6608   19.8486 C.ar    1  UNL1        0.0994
      6 N          -8.8791  -19.1740   20.3325 N.ar    1  UNL1       -0.2126
      7 N         -10.5957  -18.8569   22.2567 N.pl3   1  UNL1       -0.2989
      8 H         -11.4232  -19.2586   21.9059 H       1  UNL1        0.1500
      9 C         -10.6688  -17.7579   23.2750 C.3     1  UNL1        0.1212
     10 C          -8.9645  -16.0577   22.2978 C.ar    1  UNL1        0.2225
     11 N          -7.7997  -15.1317   22.4867 N.ar    1  UNL1       -0.2080
     12 C          -7.1745  -14.9797   23.8417 C.ar    1  UNL1        0.1316
     13 C          -7.7140  -15.7538   25.0078 C.ar    1  UNL1        0.1592
     14 F          -7.0887  -15.6017   26.3628 F       1  UNL1       -0.2025
     15 C          -8.8788  -16.6798   24.8189 C.ar    1  UNL1        0.0333
     16 C          -9.5040  -16.8318   23.4639 C.ar    1  UNL1        0.0529
     17 C         -10.9340  -15.6051   20.6650 C.3     1  UNL1        0.2542
     18 O          -9.5897  -16.2097   20.9428 O.3     1  UNL1       -0.4563
     19 C          -5.2608  -20.8043   20.3212 C.3     1  UNL1        0.0575
     20 C          -4.1179  -19.8432   20.1794 C.ar    1  UNL1        0.0044
     21 C          -3.1618  -19.7742   19.0257 C.ar    1  UNL1        0.0966
     22 N          -2.1835  -18.6707   19.2998 N.ar    1  UNL1       -0.2273
     23 C          -2.5349  -18.0577   20.6229 C.ar    1  UNL1        0.1403
     24 N          -1.9208  -16.9332   21.4029 N.ar    1  UNL1       -0.3367
     25 C          -2.5022  -16.5335   22.7265 C.ar    1  UNL1        0.0850
     26 C          -3.6977  -17.2581   23.2702 C.ar    1  UNL1        0.0747
     27 CL         -4.2791  -16.8582   24.5939 Cl      1  UNL1       -0.0807
     28 C          -4.3119  -18.3825   22.4902 C.ar    1  UNL1        0.0156
     29 C          -3.7305  -18.7823   21.1666 C.ar    1  UNL1        0.0327
     30 H          -1.1361  -16.4576   21.0461 H       1  UNL1        0.1674
@<TRIPOS>BOND
     1    17    18    1
     2    18    10    1
     3    10    11   ar
     4    11    12   ar
     5    12    13   ar
     6    13    14    1
     7    13    15   ar
     8    15    16   ar
     9    16     9    1
    10     9     7    1
    11     7     1    1
    12     1     2   ar
    13     2     3   ar
    14     3     4   ar
    15     4    19    1
    16    19    20    1
    17    20    21   ar
    18    21    22   ar
    19    22    23   ar
    20    23    24   ar
    21    24    25   ar
    22    25    26   ar
    23    26    27    1
    24    26    28   ar
    25    28    29   ar
    26     4     5   ar
    27     5     6   ar
    28    16    10   ar
    29     6     1   ar
    30    29    20   ar
    31    29    23    1
    32     7     8    1
    33    24    30    1
@<TRIPOS>MOLECULE
*****
 30 33 0 0 0
SMALL
GASTEIGER

@<TRIPOS>ATOM
      1 C          -4.6624  -16.1678   23.3844 C.ar    1  UNL1        0.2172
      2 N          -5.0764  -15.1672   24.4224 N.ar    1  UNL1       -0.2126
      3 C          -6.4974  -15.1274   24.9011 C.ar    1  UNL1        0.0994
      4 C          -7.5044  -16.0883   24.3418 C.ar    1  UNL1        0.0207
      5 C          -7.0904  -17.0889   23.3039 C.ar    1  UNL1        0.0994
      6 N          -5.6695  -17.1287   22.8252 N.ar    1  UNL1       -0.2126
      7 N          -3.2415  -16.2077   22.9057 N.pl3   1  UNL1       -0.2989
      8 H          -2.7671  -15.3694   22.7018 H       1  UNL1        0.1500
      9 C          -2.5432  -17.5246   22.7376 C.3     1  UNL1        0.1212
     10 C          -2.0517  -18.1327   20.2600 C.ar    1  UNL1        0.2225
     11 N          -2.3248  -18.9775   19.0510 N.ar    1  UNL1       -0.2080
     12 C          -3.3625  -20.0590   19.1107 C.ar    1  UNL1        0.1316
     13 C          -4.1270  -20.2957   20.3793 C.ar    1  UNL1        0.1592
     14 F          -5.1647  -21.3773   20.4389 F       1  UNL1       -0.2025
     15 C          -3.8539  -19.4509   21.5883 C.ar    1  UNL1        0.0333
     16 C          -2.8162  -18.3694   21.5286 C.ar    1  UNL1        0.0529
     17 C           0.4377  -17.4101   20.0845 C.3     1  UNL1        0.2542
     18 O          -1.0140  -17.0511   20.2004 O.3     1  UNL1       -0.4563
     19 C          -8.9255  -16.0485   24.8206 C.3     1  UNL1        0.0575
     20 C          -9.9075  -17.0759   24.3410 C.ar    1  UNL1        0.0044
     21 C         -10.3801  -18.2719   25.1132 C.ar    1  UNL1        0.0966
     22 N         -11.3540  -19.0228   24.2544 N.ar    1  UNL1       -0.2273
     23 C         -11.4834  -18.2909   22.9515 C.ar    1  UNL1        0.1403
     24 N         -12.2997  -18.5647   21.7232 N.ar    1  UNL1       -0.3367
     25 C         -12.2221  -17.6353   20.5485 C.ar    1  UNL1        0.0850
     26 C         -11.3281  -16.4320   20.6020 C.ar    1  UNL1        0.0747
     27 CL        -11.2504  -15.5025   19.4273 Cl      1  UNL1       -0.0807
     28 C         -10.5117  -16.1582   21.8303 C.ar    1  UNL1        0.0156
     29 C         -10.5894  -17.0877   23.0050 C.ar    1  UNL1        0.0327
     30 H         -12.8865  -19.3545   21.6881 H       1  UNL1        0.1674
@<TRIPOS>BOND
     1    17    18    1
     2    18    10    1
     3    10    11   ar
     4    11    12   ar
     5    12    13   ar
     6    13    14    1
     7    13    15   ar
     8    15    16   ar
     9    16     9    1
    10     9     7    1
    11     7     1    1
    12     1     2   ar
    13     2     3   ar
    14     3     4   ar
    15     4    19    1
    16    19    20    1
    17    20    21   ar
    18    21    22   ar
    19    22    23   ar
    20    23    24   ar
    21    24    25   ar
    22    25    26   ar
    23    26    27    1
    24    26    28   ar
    25    28    29   ar
    26     4     5   ar
    27     5     6   ar
    28    16    10   ar
    29     6     1   ar
    30    29    20   ar
    31    29    23    1
    32     7     8    1
    33    24    30    1
@<TRIPOS>MOLECULE
*****
 30 33 0 0 0
SMALL
GASTEIGER

@<TRIPOS>ATOM
      1 C          -9.6441  -19.7733   22.3307 C.ar    1  UNL1        0.2172
      2 N          -9.3628  -19.2337   20.9596 N.ar    1  UNL1       -0.2126
      3 C          -7.9770  -19.3148   20.3916 C.ar    1  UNL1        0.0994
      4 C          -6.8723  -19.9353   21.1946 C.ar    1  UNL1        0.0207
      5 C          -7.1536  -20.4748   22.5656 C.ar    1  UNL1        0.0994
      6 N          -8.5395  -20.3938   23.1336 N.ar    1  UNL1       -0.2126
      7 N         -11.0300  -19.6923   22.8987 N.pl3   1  UNL1       -0.2989
      8 H         -11.7759  -20.1458   22.4435 H       1  UNL1        0.1500
      9 C         -11.2796  -18.9203   24.1604 C.3     1  UNL1        0.1212
     10 C         -10.1544  -16.6295   23.6744 C.ar    1  UNL1        0.2225
     11 N          -9.2169  -15.5308   24.0794 N.ar    1  UNL1       -0.2080
     12 C          -8.4670  -15.6243   25.3752 C.ar    1  UNL1        0.1316
     13 C          -8.6547  -16.8164   26.2660 C.ar    1  UNL1        0.1592
     14 F          -7.9048  -16.9098   27.5618 F       1  UNL1       -0.2025
     15 C          -9.5922  -17.9151   25.8610 C.ar    1  UNL1        0.0333
     16 C         -10.3421  -17.8216   24.5653 C.ar    1  UNL1        0.0529
     17 C         -12.3112  -16.0164   22.3621 C.3     1  UNL1        0.2542
     18 O         -10.9042  -16.5360   22.3787 O.3     1  UNL1       -0.4563
     19 C          -5.4864  -20.0163   20.6265 C.3     1  UNL1        0.0575
     20 C          -4.3647  -19.2602   21.2747 C.ar    1  UNL1        0.0044
     21 C          -4.2084  -19.0028   22.7442 C.ar    1  UNL1        0.0966
     22 N          -2.9496  -18.2123   22.9449 N.ar    1  UNL1       -0.2273
     23 C          -2.3278  -17.9811   21.5995 C.ar    1  UNL1        0.1403
     24 N          -1.0783  -17.2646   21.1811 N.ar    1  UNL1       -0.3367
     25 C          -0.7034  -17.1957   19.7303 C.ar    1  UNL1        0.0850
     26 C          -1.5780  -17.8433   18.6981 C.ar    1  UNL1        0.0747
     27 CL         -1.2030  -17.7744   17.2473 Cl      1  UNL1       -0.0807
     28 C          -2.8275  -18.5599   19.1166 C.ar    1  UNL1        0.0156
     29 C          -3.2025  -18.6288   20.5673 C.ar    1  UNL1        0.0327
     30 H          -0.5042  -16.8395   21.8586 H       1  UNL1        0.1674
@<TRIPOS>BOND
     1    17    18    1
     2    18    10    1
     3    10    11   ar
     4    11    12   ar
     5    12    13   ar
     6    13    14    1
     7    13    15   ar
     8    15    16   ar
     9    16     9    1
    10     9     7    1
    11     7     1    1
    12     1     2   ar
    13     2     3   ar
    14     3     4   ar
    15     4    19    1
    16    19    20    1
    17    20    21   ar
    18    21    22   ar
    19    22    23   ar
    20    23    24   ar
    21    24    25   ar
    22    25    26   ar
    23    26    27    1
    24    26    28   ar
    25    28    29   ar
    26     4     5   ar
    27     5     6   ar
    28    16    10   ar
    29     6     1   ar
    30    29    20   ar
    31    29    23    1
    32     7     8    1
    33    24    30    1
@<TRIPOS>MOLECULE
*****
 30 33 0 0 0
SMALL
GASTEIGER

@<TRIPOS>ATOM
      1 C          -5.0170  -20.1879   20.2996 C.ar    1  UNL1        0.2172
      2 N          -5.8050  -21.4171   19.9558 N.ar    1  UNL1       -0.2126
      3 C          -7.2637  -21.3045   19.6249 C.ar    1  UNL1        0.0994
      4 C          -7.9343  -19.9629   19.6377 C.ar    1  UNL1        0.0207
      5 C          -7.1463  -18.7337   19.9815 C.ar    1  UNL1        0.0994
      6 N          -5.6877  -18.8463   20.3124 N.ar    1  UNL1       -0.2126
      7 N          -3.5583  -20.3004   20.6306 N.pl3   1  UNL1       -0.2989
      8 H          -2.9435  -20.7425   20.0015 H       1  UNL1        0.1500
      9 C          -3.0363  -19.7393   21.9200 C.3     1  UNL1        0.1212
     10 C          -2.5860  -17.2167   21.4909 C.ar    1  UNL1        0.2225
     11 N          -2.8284  -15.7770   21.8351 N.ar    1  UNL1       -0.2080
     12 C          -3.7635  -15.4201   22.9524 C.ar    1  UNL1        0.1316
     13 C          -4.4561  -16.5029   23.7255 C.ar    1  UNL1        0.1592
     14 F          -5.3911  -16.1460   24.8428 F       1  UNL1       -0.2025
     15 C          -4.2136  -17.9427   23.3814 C.ar    1  UNL1        0.0333
     16 C          -3.2786  -18.2995   22.2641 C.ar    1  UNL1        0.0529
     17 C          -2.1301  -17.5333   18.9528 C.3     1  UNL1        0.2542
     18 O          -1.6510  -17.5736   20.3736 O.3     1  UNL1       -0.4563
     19 C          -9.3931  -19.8504   19.3067 C.3     1  UNL1        0.0575
     20 C         -10.2824  -18.9645   20.1280 C.ar    1  UNL1        0.0044
     21 C         -11.0885  -17.8073   19.6172 C.ar    1  UNL1        0.0966
     22 N         -11.8259  -17.2080   20.7778 N.ar    1  UNL1       -0.2273
     23 C         -11.4755  -17.9948   22.0059 C.ar    1  UNL1        0.1403
     24 N         -11.9019  -17.8630   23.4379 N.ar    1  UNL1       -0.3367
     25 C         -11.3743  -18.8168   24.4684 C.ar    1  UNL1        0.0850
     26 C         -10.4203  -19.9024   24.0667 C.ar    1  UNL1        0.0747
     27 CL         -9.8926  -20.8562   25.0973 Cl      1  UNL1       -0.0807
     28 C          -9.9939  -20.0342   22.6347 C.ar    1  UNL1        0.0156
     29 C         -10.5215  -19.0804   21.6043 C.ar    1  UNL1        0.0327
     30 H         -12.5280  -17.1504   23.7015 H       1  UNL1        0.1674
@<TRIPOS>BOND
     1    17    18    1
     2    18    10    1
     3    10    11   ar
     4    11    12   ar
     5    12    13   ar
     6    13    14    1
     7    13    15   ar
     8    15    16   ar
     9    16     9    1
    10     9     7    1
    11     7     1    1
    12     1     2   ar
    13     2     3   ar
    14     3     4   ar
    15     4    19    1
    16    19    20    1
    17    20    21   ar
    18    21    22   ar
    19    22    23   ar
    20    23    24   ar
    21    24    25   ar
    22    25    26   ar
    23    26    27    1
    24    26    28   ar
    25    28    29   ar
    26     4     5   ar
    27     5     6   ar
    28    16    10   ar
    29     6     1   ar
    30    29    20   ar
    31    29    23    1
    32     7     8    1
    33    24    30    1
@<TRIPOS>MOLECULE
*****
 30 33 0 0 0
SMALL
GASTEIGER

@<TRIPOS>ATOM
      1 C          -5.5211  -20.2807   20.4452 C.ar    1  UNL1        0.2172
      2 N          -6.1425  -18.9435   20.7207 N.ar    1  UNL1       -0.2126
      3 C          -7.5577  -18.6738   20.3031 C.ar    1  UNL1        0.0994
      4 C          -8.3515  -19.7412   19.6100 C.ar    1  UNL1        0.0207
      5 C          -7.7302  -21.0784   19.3345 C.ar    1  UNL1        0.0994
      6 N          -6.3150  -21.3481   19.7521 N.ar    1  UNL1       -0.2126
      7 N          -4.1059  -20.5504   20.8628 N.pl3   1  UNL1       -0.2989
      8 H          -3.5781  -21.2389   20.3973 H       1  UNL1        0.1500
      9 C          -3.4949  -19.7714   21.9897 C.3     1  UNL1        0.1212
     10 C          -3.2747  -17.1979   22.2705 C.ar    1  UNL1        0.2225
     11 N          -2.5450  -15.9182   21.9883 N.ar    1  UNL1       -0.2080
     12 C          -1.3057  -15.9320   21.1432 C.ar    1  UNL1        0.1316
     13 C          -0.7963  -17.2257   20.5803 C.ar    1  UNL1        0.1592
     14 F           0.4430  -17.2395   19.7352 F       1  UNL1       -0.2025
     15 C          -1.5260  -18.5055   20.8625 C.ar    1  UNL1        0.0333
     16 C          -2.7652  -18.4916   21.7075 C.ar    1  UNL1        0.0529
     17 C          -4.8977  -15.9420   23.8637 C.3     1  UNL1        0.2542
     18 O          -4.5139  -17.1840   23.1156 O.3     1  UNL1       -0.4563
     19 C          -9.7668  -19.4714   19.1923 C.3     1  UNL1        0.0575
     20 C         -10.6704  -18.6675   20.0797 C.ar    1  UNL1        0.0044
     21 C         -11.5471  -17.5300   19.6468 C.ar    1  UNL1        0.0966
     22 N         -12.2744  -17.0195   20.8553 N.ar    1  UNL1       -0.2273
     23 C         -11.8471  -17.8415   22.0351 C.ar    1  UNL1        0.1403
     24 N         -12.2326  -17.7940   23.4839 N.ar    1  UNL1       -0.3367
     25 C         -11.6267  -18.7652   24.4533 C.ar    1  UNL1        0.0850
     26 C         -10.6354  -19.7837   23.9739 C.ar    1  UNL1        0.0747
     27 CL        -10.0296  -20.7549   24.9435 Cl      1  UNL1       -0.0807
     28 C         -10.2499  -19.8311   22.5251 C.ar    1  UNL1        0.0156
     29 C         -10.8557  -18.8600   21.5557 C.ar    1  UNL1        0.0327
     30 H         -12.8832  -17.1255   23.7985 H       1  UNL1        0.1674
@<TRIPOS>BOND
     1    17    18    1
     2    18    10    1
     3    10    11   ar
     4    11    12   ar
     5    12    13   ar
     6    13    14    1
     7    13    15   ar
     8    15    16   ar
     9    16     9    1
    10     9     7    1
    11     7     1    1
    12     1     2   ar
    13     2     3   ar
    14     3     4   ar
    15     4    19    1
    16    19    20    1
    17    20    21   ar
    18    21    22   ar
    19    22    23   ar
    20    23    24   ar
    21    24    25   ar
    22    25    26   ar
    23    26    27    1
    24    26    28   ar
    25    28    29   ar
    26     4     5   ar
    27     5     6   ar
    28    16    10   ar
    29     6     1   ar
    30    29    20   ar
    31    29    23    1
    32     7     8    1
    33    24    30    1
@<TRIPOS>MOLECULE
*****
 30 33 0 0 0
SMALL
GASTEIGER

@<TRIPOS>ATOM
      1 C          -5.0110  -16.2145   23.4909 C.ar    1  UNL1        0.2172
      2 N          -5.5023  -15.2148   24.4954 N.ar    1  UNL1       -0.2126
      3 C          -6.9576  -15.1664   24.8554 C.ar    1  UNL1        0.0994
      4 C          -7.9217  -16.1178   24.2109 C.ar    1  UNL1        0.0207
      5 C          -7.4304  -17.1176   23.2064 C.ar    1  UNL1        0.0994
      6 N          -5.9751  -17.1659   22.8464 N.ar    1  UNL1       -0.2126
      7 N          -3.5557  -16.2629   23.1309 N.pl3   1  UNL1       -0.2989
      8 H          -3.0167  -15.4392   23.1479 H       1  UNL1        0.1500
      9 C          -2.9214  -17.5663   22.7448 C.3     1  UNL1        0.1212
     10 C          -2.9749  -18.2857   20.2489 C.ar    1  UNL1        0.2225
     11 N          -2.2900  -18.4224   18.9214 N.ar    1  UNL1       -0.2080
     12 C          -0.8667  -17.9763   18.7624 C.ar    1  UNL1        0.1316
     13 C          -0.1284  -17.3935   19.9308 C.ar    1  UNL1        0.1592
     14 F           1.2949  -16.9475   19.7717 F       1  UNL1       -0.2025
     15 C          -0.8133  -17.2569   21.2583 C.ar    1  UNL1        0.0333
     16 C          -2.2366  -17.7030   21.4173 C.ar    1  UNL1        0.0529
     17 C          -4.7276  -20.1950   20.4301 C.3     1  UNL1        0.2542
     18 O          -4.3982  -18.7318   20.4079 O.3     1  UNL1       -0.4563
     19 C          -9.3771  -16.0694   24.5709 C.3     1  UNL1        0.0575
     20 C         -10.3527  -16.9701   23.8731 C.ar    1  UNL1        0.0044
     21 C         -11.0385  -18.1612   24.4739 C.ar    1  UNL1        0.0966
     22 N         -11.9234  -18.7650   23.4239 N.ar    1  UNL1       -0.2273
     23 C         -11.7845  -17.9471   22.1742 C.ar    1  UNL1        0.1403
     24 N         -12.4166  -18.0691   20.8194 N.ar    1  UNL1       -0.3367
     25 C         -12.0779  -17.0818   19.7422 C.ar    1  UNL1        0.0850
     26 C         -11.1072  -15.9724   20.0198 C.ar    1  UNL1        0.0747
     27 CL        -10.7685  -14.9851   18.9425 Cl      1  UNL1       -0.0807
     28 C         -10.4751  -15.8504   21.3746 C.ar    1  UNL1        0.0156
     29 C         -10.8138  -16.8377   22.4518 C.ar    1  UNL1        0.0327
     30 H         -13.0537  -18.7972   20.6373 H       1  UNL1        0.1674
@<TRIPOS>BOND
     1    17    18    1
     2    18    10    1
     3    10    11   ar
     4    11    12   ar
     5    12    13   ar
     6    13    14    1
     7    13    15   ar
     8    15    16   ar
     9    16     9    1
    10     9     7    1
    11     7     1    1
    12     1     2   ar
    13     2     3   ar
    14     3     4   ar
    15     4    19    1
    16    19    20    1
    17    20    21   ar
    18    21    22   ar
    19    22    23   ar
    20    23    24   ar
    21    24    25   ar
    22    25    26   ar
    23    26    27    1
    24    26    28   ar
    25    28    29   ar
    26     4     5   ar
    27     5     6   ar
    28    16    10   ar
    29     6     1   ar
    30    29    20   ar
    31    29    23    1
    32     7     8    1
    33    24    30    1
@<TRIPOS>MOLECULE
*****
 30 33 0 0 0
SMALL
GASTEIGER

@<TRIPOS>ATOM
      1 C          -9.5977  -19.8504   22.1487 C.ar    1  UNL1        0.2172
      2 N          -9.2844  -19.5333   20.7164 N.ar    1  UNL1       -0.2126
      3 C          -7.8756  -19.6465   20.2141 C.ar    1  UNL1        0.0994
      4 C          -6.7801  -20.0768   21.1439 C.ar    1  UNL1        0.0207
      5 C          -7.0933  -20.3940   22.5761 C.ar    1  UNL1        0.0994
      6 N          -8.5021  -20.2807   23.0785 N.ar    1  UNL1       -0.2126
      7 N         -11.0065  -19.7372   22.6511 N.pl3   1  UNL1       -0.2989
      8 H         -11.5031  -20.5467   22.9105 H       1  UNL1        0.1500
      9 C         -11.6587  -18.3906   22.7583 C.3     1  UNL1        0.1212
     10 C          -9.9473  -16.5258   22.1722 C.ar    1  UNL1        0.2225
     11 N          -9.5027  -15.4041   21.2811 N.ar    1  UNL1       -0.2080
     12 C         -10.3251  -15.0253   20.0851 C.ar    1  UNL1        0.1316
     13 C         -11.5919  -15.7684   19.7802 C.ar    1  UNL1        0.1592
     14 F         -12.4142  -15.3896   18.5842 F       1  UNL1       -0.2025
     15 C         -12.0364  -16.8901   20.6713 C.ar    1  UNL1        0.0333
     16 C         -11.2141  -17.2689   21.8673 C.ar    1  UNL1        0.0529
     17 C          -9.1960  -16.0797   24.6189 C.3     1  UNL1        0.2542
     18 O          -9.1249  -16.9045   23.3682 O.3     1  UNL1       -0.4563
     19 C          -5.3712  -20.1901   20.6414 C.3     1  UNL1        0.0575
     20 C          -4.2807  -19.3798   21.2774 C.ar    1  UNL1        0.0044
     21 C          -4.1231  -19.1115   22.7448 C.ar    1  UNL1        0.0966
     22 N          -2.9014  -18.2615   22.9318 N.ar    1  UNL1       -0.2273
     23 C          -2.3040  -18.0045   21.5801 C.ar    1  UNL1        0.1403
     24 N          -1.0940  -17.2305   21.1483 N.ar    1  UNL1       -0.3367
     25 C          -0.7364  -17.1476   19.6939 C.ar    1  UNL1        0.0850
     26 C          -1.5889  -17.8387   18.6714 C.ar    1  UNL1        0.0747
     27 CL         -1.2313  -17.7558   17.2170 Cl      1  UNL1       -0.0807
     28 C          -2.7990  -18.6128   19.1032 C.ar    1  UNL1        0.0156
     29 C          -3.1565  -18.6957   20.5576 C.ar    1  UNL1        0.0327
     30 H          -0.5345  -16.7768   21.8194 H       1  UNL1        0.1674
@<TRIPOS>BOND
     1    17    18    1
     2    18    10    1
     3    10    11   ar
     4    11    12   ar
     5    12    13   ar
     6    13    14    1
     7    13    15   ar
     8    15    16   ar
     9    16     9    1
    10     9     7    1
    11     7     1    1
    12     1     2   ar
    13     2     3   ar
    14     3     4   ar
    15     4    19    1
    16    19    20    1
    17    20    21   ar
    18    21    22   ar
    19    22    23   ar
    20    23    24   ar
    21    24    25   ar
    22    25    26   ar
    23    26    27    1
    24    26    28   ar
    25    28    29   ar
    26     4     5   ar
    27     5     6   ar
    28    16    10   ar
    29     6     1   ar
    30    29    20   ar
    31    29    23    1
    32     7     8    1
    33    24    30    1
@<TRIPOS>MOLECULE
*****
 30 33 0 0 0
SMALL
GASTEIGER

@<TRIPOS>ATOM
      1 C          -9.3685  -19.3339   19.7319 C.ar    1  UNL1        0.2172
      2 N          -8.9376  -20.5776   19.0125 N.ar    1  UNL1       -0.2126
      3 C          -7.5206  -21.0565   19.1257 C.ar    1  UNL1        0.0994
      4 C          -6.5346  -20.2918   19.9581 C.ar    1  UNL1        0.0207
      5 C          -6.9656  -19.0480   20.6775 C.ar    1  UNL1        0.0994
      6 N          -8.3825  -18.5691   20.5643 N.ar    1  UNL1       -0.2126
      7 N         -10.7855  -18.8549   19.6188 N.pl3   1  UNL1       -0.2989
      8 H         -11.1170  -18.4961   18.7640 H       1  UNL1        0.1500
      9 C         -11.6973  -18.9225   20.8079 C.3     1  UNL1        0.1212
     10 C         -10.9616  -17.5334   22.8765 C.ar    1  UNL1        0.2225
     11 N         -10.3922  -17.4698   24.2628 N.ar    1  UNL1       -0.2080
     12 C          -9.9893  -18.7316   24.9667 C.ar    1  UNL1        0.1316
     13 C         -10.1557  -20.0570   24.2844 C.ar    1  UNL1        0.1592
     14 F          -9.7528  -21.3187   24.9885 F       1  UNL1       -0.2025
     15 C         -10.7251  -20.1206   22.8981 C.ar    1  UNL1        0.0333
     16 C         -11.1280  -18.8588   22.1942 C.ar    1  UNL1        0.0529
     17 C         -10.4343  -15.6350   21.1829 C.3     1  UNL1        0.2542
     18 O         -11.3645  -16.2716   22.1725 O.3     1  UNL1       -0.4563
     19 C          -5.1176  -20.7708   20.0712 C.3     1  UNL1        0.0575
     20 C          -3.9879  -19.7843   20.0428 C.ar    1  UNL1        0.0044
     21 C          -3.0442  -19.5574   18.8992 C.ar    1  UNL1        0.0966
     22 N          -2.0767  -18.4844   19.3026 N.ar    1  UNL1       -0.2273
     23 C          -2.4225  -18.0482   20.6955 C.ar    1  UNL1        0.1403
     24 N          -1.8144  -17.0234   21.6064 N.ar    1  UNL1       -0.3367
     25 C          -2.3875  -16.8019   22.9748 C.ar    1  UNL1        0.0850
     26 C          -3.5687  -17.6053   23.4322 C.ar    1  UNL1        0.0747
     27 CL         -4.1419  -17.3837   24.8007 Cl      1  UNL1       -0.0807
     28 C          -4.1768  -18.6302   22.5213 C.ar    1  UNL1        0.0156
     29 C          -3.6037  -18.8516   21.1530 C.ar    1  UNL1        0.0327
     30 H          -1.0391  -16.4961   21.3062 H       1  UNL1        0.1674
@<TRIPOS>BOND
     1    17    18    1
     2    18    10    1
     3    10    11   ar
     4    11    12   ar
     5    12    13   ar
     6    13    14    1
     7    13    15   ar
     8    15    16   ar
     9    16     9    1
    10     9     7    1
    11     7     1    1
    12     1     2   ar
    13     2     3   ar
    14     3     4   ar
    15     4    19    1
    16    19    20    1
    17    20    21   ar
    18    21    22   ar
    19    22    23   ar
    20    23    24   ar
    21    24    25   ar
    22    25    26   ar
    23    26    27    1
    24    26    28   ar
    25    28    29   ar
    26     4     5   ar
    27     5     6   ar
    28    16    10   ar
    29     6     1   ar
    30    29    20   ar
    31    29    23    1
    32     7     8    1
    33    24    30    1
@<TRIPOS>MOLECULE
*****
 30 33 0 0 0
SMALL
GASTEIGER

@<TRIPOS>ATOM
      1 C          -9.2692  -19.4559   21.8723 C.ar    1  UNL1        0.2172
      2 N          -8.9432  -19.2941   20.4172 N.ar    1  UNL1       -0.2126
      3 C          -7.6159  -19.7534   19.8904 C.ar    1  UNL1        0.0994
      4 C          -6.6148  -20.3745   20.8188 C.ar    1  UNL1        0.0207
      5 C          -6.9408  -20.5363   22.2740 C.ar    1  UNL1        0.0994
      6 N          -8.2680  -20.0770   22.8007 N.ar    1  UNL1       -0.2126
      7 N         -10.5964  -18.9966   22.3992 N.pl3   1  UNL1       -0.2989
      8 H         -11.4233  -19.4445   22.1079 H       1  UNL1        0.1500
      9 C         -10.6638  -17.8548   23.3697 C.3     1  UNL1        0.1212
     10 C          -8.8312  -16.5596   24.6789 C.ar    1  UNL1        0.2225
     11 N          -7.7352  -15.5359   24.7099 N.ar    1  UNL1       -0.2080
     12 C          -7.3759  -14.7839   23.4627 C.ar    1  UNL1        0.1316
     13 C          -8.1125  -15.0555   22.1846 C.ar    1  UNL1        0.1592
     14 F          -7.7532  -14.3034   20.9375 F       1  UNL1       -0.2025
     15 C          -9.2085  -16.0792   22.1537 C.ar    1  UNL1        0.0333
     16 C          -9.5678  -16.8312   23.4008 C.ar    1  UNL1        0.0529
     17 C          -8.5765  -16.9244   27.2386 C.3     1  UNL1        0.2542
     18 O          -9.1905  -17.3116   25.9260 O.3     1  UNL1       -0.4563
     19 C          -5.2875  -20.8338   20.2920 C.3     1  UNL1        0.0575
     20 C          -4.1534  -19.8603   20.1649 C.ar    1  UNL1        0.0044
     21 C          -3.1794  -19.7851   19.0266 C.ar    1  UNL1        0.0966
     22 N          -2.2183  -18.6694   19.3120 N.ar    1  UNL1       -0.2273
     23 C          -2.5983  -18.0550   20.6266 C.ar    1  UNL1        0.1403
     24 N          -2.0098  -16.9205   21.4118 N.ar    1  UNL1       -0.3367
     25 C          -2.6174  -16.5220   22.7240 C.ar    1  UNL1        0.0850
     26 C          -3.8134  -17.2580   23.2511 C.ar    1  UNL1        0.0747
     27 CL         -4.4209  -16.8595   24.5634 Cl      1  UNL1       -0.0807
     28 C          -4.4019  -18.3926   22.4660 C.ar    1  UNL1        0.0156
     29 C          -3.7943  -18.7911   21.1537 C.ar    1  UNL1        0.0327
     30 H          -1.2249  -16.4374   21.0658 H       1  UNL1        0.1674
@<TRIPOS>BOND
     1    17    18    1
     2    18    10    1
     3    10    11   ar
     4    11    12   ar
     5    12    13   ar
     6    13    14    1
     7    13    15   ar
     8    15    16   ar
     9    16     9    1
    10     9     7    1
    11     7     1    1
    12     1     2   ar
    13     2     3   ar
    14     3     4   ar
    15     4    19    1
    16    19    20    1
    17    20    21   ar
    18    21    22   ar
    19    22    23   ar
    20    23    24   ar
    21    24    25   ar
    22    25    26   ar
    23    26    27    1
    24    26    28   ar
    25    28    29   ar
    26     4     5   ar
    27     5     6   ar
    28    16    10   ar
    29     6     1   ar
    30    29    20   ar
    31    29    23    1
    32     7     8    1
    33    24    30    1
