@<TRIPOS>MOLECULE
*****
 22 24 0 0 0
SMALL
GASTEIGER

@<TRIPOS>ATOM
      1 N          -5.0658  -17.7765   23.0640 N.ar    1  UNL1       -0.3165
      2 C          -4.0741  -16.9683   23.8471 C.ar    1  UNL1        0.0779
      3 C          -4.8178  -15.8623   24.5353 C.ar    1  UNL1        0.0392
      4 C          -6.2692  -15.9869   24.1775 C.ar    1  UNL1        0.0985
      5 N          -7.4710  -15.1760   24.5622 N.ar    1  UNL1       -0.2423
      6 C          -8.8260  -15.5481   24.0376 C.ar    1  UNL1        0.0989
      7 C          -8.9793  -16.7312   23.1283 C.ar    1  UNL1        0.0206
      8 C          -7.7775  -17.5421   22.7436 C.ar    1  UNL1        0.0203
      9 C          -6.4224  -17.1700   23.2682 C.ar    1  UNL1        0.0782
     10 C         -10.3344  -17.1033   22.6036 C.ar    1  UNL1        0.0024
     11 C         -10.5685  -17.1889   21.1245 C.ar    1  UNL1        0.0001
     12 C         -11.9237  -17.5610   20.5999 C.ar    1  UNL1        0.0009
     13 C         -13.0447  -17.8476   21.5545 C.ar    1  UNL1        0.0114
     14 C         -12.8105  -17.7620   23.0337 C.ar    1  UNL1        0.0577
     15 CL        -13.9316  -18.0486   23.9883 Cl      1  UNL1       -0.0822
     16 C         -11.4554  -17.3899   23.5582 C.ar    1  UNL1        0.0114
     17 C          -4.7554  -18.9800   22.2242 C.3     1  UNL1        0.1920
     18 C          -2.3597  -18.5345   19.0917 C.3     1  UNL1        0.1150
     19 N          -2.8245  -18.7075   20.5073 N.am    1  UNL1       -0.2744
     20 C          -1.8232  -18.7811   21.6218 C.3     1  UNL1        0.1150
     21 C          -4.2906  -18.8070   20.8085 C.2     1  UNL1        0.2488
     22 O          -5.2918  -18.7334   19.6940 O.2     1  UNL1       -0.2728
@<TRIPOS>BOND
     1    18    19    1
     2    19    20    1
     3    19    21   am
     4    21    22    2
     5    21    17    1
     6    17     1    1
     7     1     2   ar
     8     2     3   ar
     9     3     4   ar
    10     4     5   ar
    11     5     6   ar
    12     6     7   ar
    13     7    10    1
    14    10    11   ar
    15    11    12   ar
    16    12    13   ar
    17    13    14   ar
    18    14    15    1
    19    14    16   ar
    20     7     8   ar
    21     8     9   ar
    22     9     1   ar
    23     9     4   ar
    24    16    10   ar
@<TRIPOS>MOLECULE
*****
 22 24 0 0 0
SMALL
GASTEIGER

@<TRIPOS>ATOM
      1 N         -10.0140  -16.9619   22.9888 N.ar    1  UNL1       -0.3165
      2 C         -11.3962  -16.9685   22.4061 C.ar    1  UNL1        0.0779
      3 C         -11.3554  -17.7481   21.1253 C.ar    1  UNL1        0.0392
      4 C          -9.9481  -18.2233   20.9163 C.ar    1  UNL1        0.0985
      5 N          -9.3144  -19.0357   19.8262 N.ar    1  UNL1       -0.2423
      6 C          -7.8517  -19.3621   19.8878 C.ar    1  UNL1        0.0989
      7 C          -7.0227  -18.8762   21.0395 C.ar    1  UNL1        0.0206
      8 C          -7.6563  -18.0638   22.1297 C.ar    1  UNL1        0.0203
      9 C          -9.1190  -17.7374   22.0681 C.ar    1  UNL1        0.0782
     10 C          -5.5599  -19.2026   21.1011 C.ar    1  UNL1        0.0024
     11 C          -4.9858  -20.2479   20.1913 C.ar    1  UNL1        0.0001
     12 C          -3.5230  -20.5744   20.2528 C.ar    1  UNL1        0.0009
     13 C          -2.6343  -19.8555   21.2242 C.ar    1  UNL1        0.0114
     14 C          -3.2085  -18.8102   22.1340 C.ar    1  UNL1        0.0577
     15 CL         -2.3198  -18.0913   23.1054 Cl      1  UNL1       -0.0822
     16 C          -4.6712  -18.4838   22.0724 C.ar    1  UNL1        0.0114
     17 C          -9.5995  -16.2965   24.2677 C.3     1  UNL1        0.1920
     18 C          -6.1330  -15.1254   25.8045 C.3     1  UNL1        0.1150
     19 N          -7.4953  -15.7420   25.6873 N.am    1  UNL1       -0.2744
     20 C          -8.1160  -16.4208   26.8722 C.3     1  UNL1        0.1150
     21 C          -8.2371  -15.6799   24.3850 C.2     1  UNL1        0.2488
     22 O          -7.6165  -15.0011   23.2000 O.2     1  UNL1       -0.2728
@<TRIPOS>BOND
     1    18    19    1
     2    19    20    1
     3    19    21   am
     4    21    22    2
     5    21    17    1
     6    17     1    1
     7     1     2   ar
     8     2     3   ar
     9     3     4   ar
    10     4     5   ar
    11     5     6   ar
    12     6     7   ar
    13     7    10    1
    14    10    11   ar
    15    11    12   ar
    16    12    13   ar
    17    13    14   ar
    18    14    15    1
    19    14    16   ar
    20     7     8   ar
    21     8     9   ar
    22     9     1   ar
    23     9     4   ar
    24    16    10   ar
@<TRIPOS>MOLECULE
*****
 22 24 0 0 0
SMALL
GASTEIGER

@<TRIPOS>ATOM
      1 N          -8.3581  -19.4294   20.0711 N.ar    1  UNL1       -0.3165
      2 C          -9.5698  -19.6897   19.2261 C.ar    1  UNL1        0.0779
      3 C         -10.7027  -18.8754   19.7772 C.ar    1  UNL1        0.0392
      4 C         -10.1911  -18.1120   20.9627 C.ar    1  UNL1        0.0985
      5 N         -10.8576  -17.1493   21.9002 N.ar    1  UNL1       -0.2423
      6 C         -10.0749  -16.5290   23.0194 C.ar    1  UNL1        0.0989
      7 C          -8.6259  -16.8714   23.2011 C.ar    1  UNL1        0.0206
      8 C          -7.9594  -17.8341   22.2636 C.ar    1  UNL1        0.0203
      9 C          -8.7421  -18.4544   21.1444 C.ar    1  UNL1        0.0782
     10 C          -7.8432  -16.2510   24.3204 C.ar    1  UNL1        0.0024
     11 C          -6.3684  -16.0237   24.1683 C.ar    1  UNL1        0.0001
     12 C          -5.5858  -15.4034   25.2876 C.ar    1  UNL1        0.0009
     13 C          -6.2781  -15.0103   26.5589 C.ar    1  UNL1        0.0114
     14 C          -7.7530  -15.2376   26.7109 C.ar    1  UNL1        0.0577
     15 CL         -8.4453  -14.8446   27.9823 Cl      1  UNL1       -0.0822
     16 C          -8.5355  -15.8579   25.5917 C.ar    1  UNL1        0.0114
     17 C          -7.0007  -20.0375   19.8770 C.3     1  UNL1        0.1920
     18 C          -3.7154  -19.5995   22.0598 C.3     1  UNL1        0.1150
     19 N          -4.6729  -19.5193   20.9080 N.am    1  UNL1       -0.2744
     20 C          -4.2603  -18.8408   19.6355 C.3     1  UNL1        0.1150
     21 C          -6.0431  -20.1177   21.0288 C.2     1  UNL1        0.2488
     22 O          -6.4556  -20.7962   22.3013 O.2     1  UNL1       -0.2728
@<TRIPOS>BOND
     1    18    19    1
     2    19    20    1
     3    19    21   am
     4    21    22    2
     5    21    17    1
     6    17     1    1
     7     1     2   ar
     8     2     3   ar
     9     3     4   ar
    10     4     5   ar
    11     5     6   ar
    12     6     7   ar
    13     7    10    1
    14    10    11   ar
    15    11    12   ar
    16    12    13   ar
    17    13    14   ar
    18    14    15    1
    19    14    16   ar
    20     7     8   ar
    21     8     9   ar
    22     9     1   ar
    23     9     4   ar
    24    16    10   ar
@<TRIPOS>MOLECULE
*****
 22 24 0 0 0
SMALL
GASTEIGER

@<TRIPOS>ATOM
      1 N         -10.1456  -17.6411   22.0213 N.ar    1  UNL1       -0.3165
      2 C         -11.4459  -18.0468   21.3932 C.ar    1  UNL1        0.0779
      3 C         -11.1437  -19.0065   20.2807 C.ar    1  UNL1        0.0392
      4 C          -9.6567  -19.1940   20.2213 C.ar    1  UNL1        0.0985
      5 N          -8.7846  -20.0240   19.3265 N.ar    1  UNL1       -0.2423
      6 C          -7.2957  -20.0102   19.5076 C.ar    1  UNL1        0.0989
      7 C          -6.6788  -19.1663   20.5834 C.ar    1  UNL1        0.0206
      8 C          -7.5508  -18.3363   21.4781 C.ar    1  UNL1        0.0203
      9 C          -9.0398  -18.3501   21.2970 C.ar    1  UNL1        0.0782
     10 C          -5.1898  -19.1525   20.7644 C.ar    1  UNL1        0.0024
     11 C          -4.5910  -19.5423   22.0833 C.ar    1  UNL1        0.0001
     12 C          -3.1019  -19.5285   22.2643 C.ar    1  UNL1        0.0009
     13 C          -2.2118  -19.1249   21.1265 C.ar    1  UNL1        0.0114
     14 C          -2.8107  -18.7351   19.8076 C.ar    1  UNL1        0.0577
     15 CL         -1.9206  -18.3315   18.6697 Cl      1  UNL1       -0.0822
     16 C          -4.2996  -18.7489   19.6266 C.ar    1  UNL1        0.0114
     17 C          -9.9801  -16.6929   23.1718 C.3     1  UNL1        0.1920
     18 C          -8.4374  -16.9703   26.8178 C.3     1  UNL1        0.1150
     19 N          -8.7583  -16.4423   25.4510 N.am    1  UNL1       -0.2744
     20 C          -8.1785  -15.1356   24.9965 C.3     1  UNL1        0.1150
     21 C          -9.6591  -17.2209   24.5387 C.2     1  UNL1        0.2488
     22 O         -10.2388  -18.5276   24.9932 O.2     1  UNL1       -0.2728
@<TRIPOS>BOND
     1    18    19    1
     2    19    20    1
     3    19    21   am
     4    21    22    2
     5    21    17    1
     6    17     1    1
     7     1     2   ar
     8     2     3   ar
     9     3     4   ar
    10     4     5   ar
    11     5     6   ar
    12     6     7   ar
    13     7    10    1
    14    10    11   ar
    15    11    12   ar
    16    12    13   ar
    17    13    14   ar
    18    14    15    1
    19    14    16   ar
    20     7     8   ar
    21     8     9   ar
    22     9     1   ar
    23     9     4   ar
    24    16    10   ar
@<TRIPOS>MOLECULE
*****
 22 24 0 0 0
SMALL
GASTEIGER

@<TRIPOS>ATOM
      1 N          -4.8605  -16.7022   24.3728 N.ar    1  UNL1       -0.3165
      2 C          -4.5140  -15.9466   25.6214 C.ar    1  UNL1        0.0779
      3 C          -5.7577  -15.2660   26.1114 C.ar    1  UNL1        0.0392
      4 C          -6.8728  -15.6011   25.1657 C.ar    1  UNL1        0.0985
      5 N          -8.3214  -15.2126   25.1442 N.ar    1  UNL1       -0.2423
      6 C          -9.2155  -15.7117   24.0481 C.ar    1  UNL1        0.0989
      7 C          -8.6609  -16.5994   22.9736 C.ar    1  UNL1        0.0206
      8 C          -7.2123  -16.9879   22.9951 C.ar    1  UNL1        0.0203
      9 C          -6.3182  -16.4887   24.0912 C.ar    1  UNL1        0.0782
     10 C          -9.5551  -17.0985   21.8775 C.ar    1  UNL1        0.0024
     11 C          -9.5832  -18.5596   21.5394 C.ar    1  UNL1        0.0001
     12 C         -10.4774  -19.0587   20.4433 C.ar    1  UNL1        0.0009
     13 C         -11.3435  -18.0967   19.6853 C.ar    1  UNL1        0.0114
     14 C         -11.3153  -16.6355   20.0235 C.ar    1  UNL1        0.0577
     15 CL        -12.1814  -15.6735   19.2656 Cl      1  UNL1       -0.0822
     16 C         -10.4212  -16.1365   21.1195 C.ar    1  UNL1        0.0114
     17 C          -3.9151  -17.5267   23.5503 C.3     1  UNL1        0.1920
     18 C          -1.4881  -17.0908   20.4406 C.3     1  UNL1        0.1150
     19 N          -2.2739  -17.7308   21.5465 N.am    1  UNL1       -0.2744
     20 C          -2.2043  -19.2146   21.7546 C.3     1  UNL1        0.1150
     21 C          -3.1292  -16.8868   22.4443 C.2     1  UNL1        0.2488
     22 O          -3.1988  -15.4029   22.2362 O.2     1  UNL1       -0.2728
@<TRIPOS>BOND
     1    18    19    1
     2    19    20    1
     3    19    21   am
     4    21    22    2
     5    21    17    1
     6    17     1    1
     7     1     2   ar
     8     2     3   ar
     9     3     4   ar
    10     4     5   ar
    11     5     6   ar
    12     6     7   ar
    13     7    10    1
    14    10    11   ar
    15    11    12   ar
    16    12    13   ar
    17    13    14   ar
    18    14    15    1
    19    14    16   ar
    20     7     8   ar
    21     8     9   ar
    22     9     1   ar
    23     9     4   ar
    24    16    10   ar
@<TRIPOS>MOLECULE
*****
 22 24 0 0 0
SMALL
GASTEIGER

@<TRIPOS>ATOM
      1 N          -4.8835  -17.1449   23.3685 N.ar    1  UNL1       -0.3165
      2 C          -3.6156  -17.9210   23.1686 C.ar    1  UNL1        0.0779
      3 C          -3.9457  -19.1525   22.3785 C.ar    1  UNL1        0.0392
      4 C          -5.4176  -19.1375   22.0900 C.ar    1  UNL1        0.0985
      5 N          -6.3050  -20.0934   21.3492 N.ar    1  UNL1       -0.2423
      6 C          -7.7720  -19.8085   21.2203 C.ar    1  UNL1        0.0989
      7 C          -8.3516  -18.5677   21.8322 C.ar    1  UNL1        0.0206
      8 C          -7.4643  -17.6118   22.5730 C.ar    1  UNL1        0.0203
      9 C          -5.9973  -17.8967   22.7019 C.ar    1  UNL1        0.0782
     10 C          -9.8187  -18.2828   21.7033 C.ar    1  UNL1        0.0024
     11 C         -10.3930  -17.8927   20.3736 C.ar    1  UNL1        0.0001
     12 C         -11.8601  -17.6078   20.2447 C.ar    1  UNL1        0.0009
     13 C         -12.7528  -17.7130   21.4455 C.ar    1  UNL1        0.0114
     14 C         -12.1785  -18.1031   22.7752 C.ar    1  UNL1        0.0577
     15 CL        -13.0713  -18.2083   23.9760 Cl      1  UNL1       -0.0822
     16 C         -10.7115  -18.3880   22.9041 C.ar    1  UNL1        0.0114
     17 C          -5.0148  -15.8451   24.1056 C.3     1  UNL1        0.1920
     18 C          -7.6210  -15.3073   27.0499 C.3     1  UNL1        0.1150
     19 N          -7.0206  -15.3327   25.6755 N.am    1  UNL1       -0.2744
     20 C          -7.8253  -14.8714   24.4968 C.3     1  UNL1        0.1150
     21 C          -5.6153  -15.8196   25.4800 C.2     1  UNL1        0.2488
     22 O          -4.8106  -16.2809   26.6588 O.2     1  UNL1       -0.2728
@<TRIPOS>BOND
     1    18    19    1
     2    19    20    1
     3    19    21   am
     4    21    22    2
     5    21    17    1
     6    17     1    1
     7     1     2   ar
     8     2     3   ar
     9     3     4   ar
    10     4     5   ar
    11     5     6   ar
    12     6     7   ar
    13     7    10    1
    14    10    11   ar
    15    11    12   ar
    16    12    13   ar
    17    13    14   ar
    18    14    15    1
    19    14    16   ar
    20     7     8   ar
    21     8     9   ar
    22     9     1   ar
    23     9     4   ar
    24    16    10   ar
@<TRIPOS>MOLECULE
*****
 22 24 0 0 0
SMALL
GASTEIGER

@<TRIPOS>ATOM
      1 N          -8.8055  -16.5092   23.7319 N.ar    1  UNL1       -0.3165
      2 C          -9.3135  -15.6779   24.8725 C.ar    1  UNL1        0.0779
      3 C          -8.1311  -15.2131   25.6699 C.ar    1  UNL1        0.0392
      4 C          -6.8923  -15.7571   25.0221 C.ar    1  UNL1        0.0985
      5 N          -5.4386  -15.6265   25.3682 N.ar    1  UNL1       -0.2423
      6 C          -4.4018  -16.2969   24.5165 C.ar    1  UNL1        0.0989
      7 C          -4.8186  -17.0980   23.3188 C.ar    1  UNL1        0.0206
      8 C          -6.2723  -17.2286   22.9727 C.ar    1  UNL1        0.0203
      9 C          -7.3091  -16.5581   23.8244 C.ar    1  UNL1        0.0782
     10 C          -3.7817  -17.7685   22.4671 C.ar    1  UNL1        0.0024
     11 C          -3.8370  -19.2511   22.2460 C.ar    1  UNL1        0.0001
     12 C          -2.8000  -19.9216   21.3943 C.ar    1  UNL1        0.0009
     13 C          -1.7079  -19.1094   20.7637 C.ar    1  UNL1        0.0114
     14 C          -1.6527  -17.6268   20.9848 C.ar    1  UNL1        0.0577
     15 CL         -0.5605  -16.8146   20.3543 Cl      1  UNL1       -0.0822
     16 C          -2.6896  -16.9564   21.8365 C.ar    1  UNL1        0.0114
     17 C          -9.6462  -17.1747   22.6830 C.3     1  UNL1        0.1920
     18 C         -13.4386  -17.8820   23.6145 C.3     1  UNL1        0.1150
     19 N         -11.9444  -18.0041   23.5668 N.am    1  UNL1       -0.2744
     20 C         -11.2539  -19.0774   24.3549 C.3     1  UNL1        0.1150
     21 C         -11.1406  -17.0527   22.7308 C.2     1  UNL1        0.2488
     22 O         -11.8310  -15.9794   21.9426 O.2     1  UNL1       -0.2728
@<TRIPOS>BOND
     1    18    19    1
     2    19    20    1
     3    19    21   am
     4    21    22    2
     5    21    17    1
     6    17     1    1
     7     1     2   ar
     8     2     3   ar
     9     3     4   ar
    10     4     5   ar
    11     5     6   ar
    12     6     7   ar
    13     7    10    1
    14    10    11   ar
    15    11    12   ar
    16    12    13   ar
    17    13    14   ar
    18    14    15    1
    19    14    16   ar
    20     7     8   ar
    21     8     9   ar
    22     9     1   ar
    23     9     4   ar
    24    16    10   ar
@<TRIPOS>MOLECULE
*****
 22 24 0 0 0
SMALL
GASTEIGER

@<TRIPOS>ATOM
      1 N          -9.1505  -16.8471   23.7302 N.ar    1  UNL1       -0.3165
      2 C          -9.6443  -15.8327   24.7187 C.ar    1  UNL1        0.0779
      3 C          -8.4499  -15.1680   25.3364 C.ar    1  UNL1        0.0392
      4 C          -7.2180  -15.7716   24.7297 C.ar    1  UNL1        0.0985
      5 N          -5.7579  -15.5104   24.9529 N.ar    1  UNL1       -0.2423
      6 C          -4.7309  -16.2869   24.1834 C.ar    1  UNL1        0.0989
      7 C          -5.1639  -17.3247   23.1907 C.ar    1  UNL1        0.0206
      8 C          -6.6240  -17.5859   22.9675 C.ar    1  UNL1        0.0203
      9 C          -7.6510  -16.8094   23.7370 C.ar    1  UNL1        0.0782
     10 C          -4.1368  -18.1012   22.4212 C.ar    1  UNL1        0.0024
     11 C          -2.6778  -17.8115   22.6143 C.ar    1  UNL1        0.0001
     12 C          -1.6507  -18.5880   21.8447 C.ar    1  UNL1        0.0009
     13 C          -2.0826  -19.6543   20.8822 C.ar    1  UNL1        0.0114
     14 C          -3.5417  -19.9440   20.6892 C.ar    1  UNL1        0.0577
     15 CL         -3.9737  -21.0102   19.7266 Cl      1  UNL1       -0.0822
     16 C          -4.5688  -19.1675   21.4586 C.ar    1  UNL1        0.0114
     17 C         -10.0061  -17.7422   22.8834 C.3     1  UNL1        0.1920
     18 C         -11.7957  -16.0873   19.7516 C.3     1  UNL1        0.1150
     19 N         -11.4849  -16.4681   21.1687 N.am    1  UNL1       -0.2744
     20 C         -12.3417  -15.9559   22.2882 C.3     1  UNL1        0.1150
     21 C         -10.3171  -17.3613   21.4662 C.2     1  UNL1        0.2488
     22 O          -9.4602  -17.8735   20.3467 O.2     1  UNL1       -0.2728
@<TRIPOS>BOND
     1    18    19    1
     2    19    20    1
     3    19    21   am
     4    21    22    2
     5    21    17    1
     6    17     1    1
     7     1     2   ar
     8     2     3   ar
     9     3     4   ar
    10     4     5   ar
    11     5     6   ar
    12     6     7   ar
    13     7    10    1
    14    10    11   ar
    15    11    12   ar
    16    12    13   ar
    17    13    14   ar
    18    14    15    1
    19    14    16   ar
    20     7     8   ar
    21     8     9   ar
    22     9     1   ar
    23     9     4   ar
    24    16    10   ar
@<TRIPOS>MOLECULE
*****
 22 24 0 0 0
SMALL
GASTEIGER

@<TRIPOS>ATOM
      1 N          -3.6713  -17.6957   23.3780 N.ar    1  UNL1       -0.3165
      2 C          -2.2464  -18.0406   23.0604 C.ar    1  UNL1        0.0779
      3 C          -2.2487  -19.0181   21.9227 C.ar    1  UNL1        0.0392
      4 C          -3.6749  -19.2773   21.5370 C.ar    1  UNL1        0.0985
      5 N          -4.2866  -20.1520   20.4831 N.ar    1  UNL1       -0.2423
      6 C          -5.7774  -20.2093   20.3286 C.ar    1  UNL1        0.0989
      7 C          -6.6567  -19.3920   21.2280 C.ar    1  UNL1        0.0206
      8 C          -6.0450  -18.5173   22.2820 C.ar    1  UNL1        0.0203
      9 C          -4.5541  -18.4600   22.4365 C.ar    1  UNL1        0.0782
     10 C          -8.1476  -19.4493   21.0735 C.ar    1  UNL1        0.0024
     11 C          -8.7576  -19.5220   19.7050 C.ar    1  UNL1        0.0001
     12 C         -10.2485  -19.5794   19.5505 C.ar    1  UNL1        0.0009
     13 C         -11.1295  -19.5641   20.7644 C.ar    1  UNL1        0.0114
     14 C         -10.5195  -19.4914   22.1329 C.ar    1  UNL1        0.0577
     15 CL        -11.4005  -19.4761   23.3469 Cl      1  UNL1       -0.0822
     16 C          -9.0286  -19.4340   22.2874 C.ar    1  UNL1        0.0114
     17 C          -4.1324  -16.7521   24.4490 C.3     1  UNL1        0.1920
     18 C          -7.4544  -14.6316   24.9150 C.3     1  UNL1        0.1150
     19 N          -6.3344  -15.5902   25.1915 N.am    1  UNL1       -0.2744
     20 C          -6.2961  -16.3456   26.4869 C.3     1  UNL1        0.1150
     21 C          -5.2525  -15.7934   24.1725 C.2     1  UNL1        0.2488
     22 O          -5.2908  -15.0381   22.8772 O.2     1  UNL1       -0.2728
@<TRIPOS>BOND
     1    18    19    1
     2    19    20    1
     3    19    21   am
     4    21    22    2
     5    21    17    1
     6    17     1    1
     7     1     2   ar
     8     2     3   ar
     9     3     4   ar
    10     4     5   ar
    11     5     6   ar
    12     6     7   ar
    13     7    10    1
    14    10    11   ar
    15    11    12   ar
    16    12    13   ar
    17    13    14   ar
    18    14    15    1
    19    14    16   ar
    20     7     8   ar
    21     8     9   ar
    22     9     1   ar
    23     9     4   ar
    24    16    10   ar
