@<TRIPOS>MOLECULE
*****
 19 20 0 0 0
SMALL
GASTEIGER

@<TRIPOS>ATOM
      1 C          -7.5084  -18.4805   22.0011 C.3     1  UNL1        0.0636
      2 S          -8.7509  -18.9360   22.7072 S.3     1  UNL1       -0.1127
      3 CL        -11.6852  -15.9948   19.5865 Cl      1  UNL1       -0.0822
      4 C         -11.5401  -16.8370   20.8192 C.ar    1  UNL1        0.0582
      5 C         -12.7169  -17.0506   21.7244 C.ar    1  UNL1        0.0123
      6 C         -12.5717  -17.8928   22.9572 C.ar    1  UNL1        0.0128
      7 C         -11.2498  -18.5212   23.2848 C.ar    1  UNL1        0.0634
      8 CL        -11.1046  -19.3633   24.5176 Cl      1  UNL1       -0.0817
      9 C         -10.0729  -18.3075   22.3796 C.ar    1  UNL1        0.0366
     10 C         -10.2181  -17.4654   21.1468 C.ar    1  UNL1        0.0184
     11 C          -6.4824  -19.4843   21.5655 C.3     1  UNL1        0.0293
     12 C          -5.5488  -19.1612   20.4368 C.3     1  UNL1        0.0731
     13 N          -4.1055  -18.8657   20.7186 N.3     1  UNL1       -0.2703
     14 C          -3.6542  -18.6039   22.1250 C.3     1  UNL1        0.0894
     15 C          -2.2109  -18.3084   22.4068 C.3     1  UNL1        0.0862
     16 N          -1.2188  -18.2746   21.2822 N.3     1  UNL1       -0.2951
     17 C          -1.6700  -18.5363   19.8759 C.3     1  UNL1        0.0862
     18 C          -3.1134  -18.8319   19.5940 C.3     1  UNL1        0.0894
     19 H          -0.5060  -18.9718   21.4973 H       1  UNL1        0.1233
@<TRIPOS>BOND
     1     3     4    1
     2     4     5   ar
     3     5     6   ar
     4     6     7   ar
     5     7     8    1
     6     7     9   ar
     7     9     2    1
     8     2     1    1
     9     1    11    1
    10    11    12    1
    11    12    13    1
    12    13    14    1
    13    14    15    1
    14    15    16    1
    15    16    17    1
    16    17    18    1
    17     9    10   ar
    18    10     4   ar
    19    18    13    1
    20    16    19    1
@<TRIPOS>MOLECULE
*****
 19 20 0 0 0
SMALL
GASTEIGER

@<TRIPOS>ATOM
      1 C          -6.8868  -18.7128   22.2380 C.3     1  UNL1        0.0636
      2 S          -8.0855  -19.6033   22.3789 S.3     1  UNL1       -0.1127
      3 CL        -12.8339  -17.8441   23.5445 Cl      1  UNL1       -0.0822
      4 C         -11.8097  -18.2394   22.5223 C.ar    1  UNL1        0.0582
      5 C         -12.1354  -18.1503   21.0609 C.ar    1  UNL1        0.0123
      6 C         -11.1112  -18.5456   20.0387 C.ar    1  UNL1        0.0128
      7 C          -9.7613  -19.0299   20.4781 C.ar    1  UNL1        0.0634
      8 CL         -8.7371  -19.4252   19.4559 Cl      1  UNL1       -0.0817
      9 C          -9.4355  -19.1190   21.9395 C.ar    1  UNL1        0.0366
     10 C         -10.4597  -18.7237   22.9617 C.ar    1  UNL1        0.0184
     11 C          -5.5324  -19.3107   21.9965 C.3     1  UNL1        0.0293
     12 C          -4.3002  -18.5821   22.4443 C.3     1  UNL1        0.0731
     13 N          -3.2806  -18.1428   21.4357 N.3     1  UNL1       -0.2703
     14 C          -3.2383  -18.7878   20.0821 C.3     1  UNL1        0.0894
     15 C          -2.2186  -18.3485   19.0735 C.3     1  UNL1        0.0862
     16 N          -1.2413  -17.2642   19.4184 N.3     1  UNL1       -0.2951
     17 C          -1.2835  -16.6191   20.7719 C.3     1  UNL1        0.0862
     18 C          -2.3032  -17.0584   21.7806 C.3     1  UNL1        0.0894
     19 H          -1.3732  -16.5201   18.7333 H       1  UNL1        0.1233
@<TRIPOS>BOND
     1     3     4    1
     2     4     5   ar
     3     5     6   ar
     4     6     7   ar
     5     7     8    1
     6     7     9   ar
     7     9     2    1
     8     2     1    1
     9     1    11    1
    10    11    12    1
    11    12    13    1
    12    13    14    1
    13    14    15    1
    14    15    16    1
    15    16    17    1
    16    17    18    1
    17     9    10   ar
    18    10     4   ar
    19    18    13    1
    20    16    19    1
@<TRIPOS>MOLECULE
*****
 19 20 0 0 0
SMALL
GASTEIGER

@<TRIPOS>ATOM
      1 C          -8.4655  -19.6151   22.4345 C.3     1  UNL1        0.0636
      2 S          -9.8761  -19.7568   21.9448 S.3     1  UNL1       -0.1127
      3 CL        -11.7589  -15.7108   19.2829 Cl      1  UNL1       -0.0822
      4 C         -11.7096  -16.5303   20.5383 C.ar    1  UNL1        0.0582
      5 C         -12.5524  -16.1462   21.7182 C.ar    1  UNL1        0.0123
      6 C         -12.5031  -16.9656   22.9736 C.ar    1  UNL1        0.0128
      7 C         -11.6110  -18.1691   23.0492 C.ar    1  UNL1        0.0634
      8 CL        -11.5618  -18.9886   24.3046 Cl      1  UNL1       -0.0817
      9 C         -10.7683  -18.5532   21.8693 C.ar    1  UNL1        0.0366
     10 C         -10.8176  -17.7338   20.6139 C.ar    1  UNL1        0.0184
     11 C          -7.4384  -18.9367   21.5771 C.3     1  UNL1        0.0293
     12 C          -6.2135  -18.3401   22.2043 C.3     1  UNL1        0.0731
     13 N          -6.3225  -17.0822   23.0141 N.3     1  UNL1       -0.2703
     14 C          -5.1461  -16.5974   23.8086 C.3     1  UNL1        0.0894
     15 C          -5.2551  -15.3395   24.6184 C.3     1  UNL1        0.0862
     16 N          -6.5404  -14.5665   24.6338 N.3     1  UNL1       -0.2951
     17 C          -7.7168  -15.0512   23.8394 C.3     1  UNL1        0.0862
     18 C          -7.6078  -16.3092   23.0295 C.3     1  UNL1        0.0894
     19 H          -6.3239  -13.6284   24.2967 H       1  UNL1        0.1233
@<TRIPOS>BOND
     1     3     4    1
     2     4     5   ar
     3     5     6   ar
     4     6     7   ar
     5     7     8    1
     6     7     9   ar
     7     9     2    1
     8     2     1    1
     9     1    11    1
    10    11    12    1
    11    12    13    1
    12    13    14    1
    13    14    15    1
    14    15    16    1
    15    16    17    1
    16    17    18    1
    17     9    10   ar
    18    10     4   ar
    19    18    13    1
    20    16    19    1
@<TRIPOS>MOLECULE
*****
 19 20 0 0 0
SMALL
GASTEIGER

@<TRIPOS>ATOM
      1 C          -6.4659  -19.6386   20.5306 C.3     1  UNL1        0.0636
      2 S          -5.0832  -20.0111   20.9770 S.3     1  UNL1       -0.1127
      3 CL         -1.5540  -17.6983   17.9446 Cl      1  UNL1       -0.0822
      4 C          -2.1885  -17.8831   19.2912 C.ar    1  UNL1        0.0582
      5 C          -1.6928  -17.0963   20.4681 C.ar    1  UNL1        0.0123
      6 C          -2.3272  -17.2811   21.8147 C.ar    1  UNL1        0.0128
      7 C          -3.4574  -18.2527   21.9844 C.ar    1  UNL1        0.0634
      8 CL         -4.0918  -18.4375   23.3310 Cl      1  UNL1       -0.0817
      9 C          -3.9530  -19.0395   20.8074 C.ar    1  UNL1        0.0366
     10 C          -3.3186  -18.8547   19.4608 C.ar    1  UNL1        0.0184
     11 C          -7.2551  -18.6230   21.3025 C.3     1  UNL1        0.0293
     12 C          -8.7543  -18.6718   21.2913 C.3     1  UNL1        0.0731
     13 N          -9.5035  -18.9938   22.5502 N.3     1  UNL1       -0.2703
     14 C         -10.6876  -18.1647   22.9511 C.3     1  UNL1        0.0894
     15 C         -11.4369  -18.4867   24.2100 C.3     1  UNL1        0.0862
     16 N         -11.0021  -19.6376   25.0681 N.3     1  UNL1       -0.2951
     17 C          -9.8181  -20.4667   24.6672 C.3     1  UNL1        0.0862
     18 C          -9.0688  -20.1447   23.4082 C.3     1  UNL1        0.0894
     19 H         -11.7976  -20.2728   25.1339 H       1  UNL1        0.1233
@<TRIPOS>BOND
     1     3     4    1
     2     4     5   ar
     3     5     6   ar
     4     6     7   ar
     5     7     8    1
     6     7     9   ar
     7     9     2    1
     8     2     1    1
     9     1    11    1
    10    11    12    1
    11    12    13    1
    12    13    14    1
    13    14    15    1
    14    15    16    1
    15    16    17    1
    16    17    18    1
    17     9    10   ar
    18    10     4   ar
    19    18    13    1
    20    16    19    1
@<TRIPOS>MOLECULE
*****
 19 20 0 0 0
SMALL
GASTEIGER

@<TRIPOS>ATOM
      1 C          -7.9838  -18.6374   20.9110 C.3     1  UNL1        0.0636
      2 S          -7.1194  -19.4138   21.8597 S.3     1  UNL1       -0.1127
      3 CL         -2.3480  -17.7517   23.0729 Cl      1  UNL1       -0.0822
      4 C          -3.2490  -18.6322   22.2587 C.ar    1  UNL1        0.0582
      5 C          -2.6652  -19.5623   21.2369 C.ar    1  UNL1        0.0123
      6 C          -3.5661  -20.4429   20.4227 C.ar    1  UNL1        0.0128
      7 C          -5.0508  -20.3934   20.6303 C.ar    1  UNL1        0.0634
      8 CL         -5.9517  -21.2739   19.8161 Cl      1  UNL1       -0.0817
      9 C          -5.6346  -19.4633   21.6521 C.ar    1  UNL1        0.0366
     10 C          -4.7337  -18.5827   22.4663 C.ar    1  UNL1        0.0184
     11 C          -8.9225  -19.3590   19.9900 C.3     1  UNL1        0.0293
     12 C         -10.3118  -19.6932   20.4463 C.3     1  UNL1        0.0731
     13 N         -11.1014  -18.6942   21.2391 N.3     1  UNL1       -0.2703
     14 C         -11.4500  -18.9792   22.6700 C.3     1  UNL1        0.0894
     15 C         -12.2396  -17.9802   23.4627 C.3     1  UNL1        0.0862
     16 N         -12.6807  -16.6963   22.8247 N.3     1  UNL1       -0.2951
     17 C         -12.3322  -16.4114   21.3939 C.3     1  UNL1        0.0862
     18 C         -11.5425  -17.4104   20.6010 C.3     1  UNL1        0.0894
     19 H         -12.2833  -15.9393   23.3810 H       1  UNL1        0.1233
@<TRIPOS>BOND
     1     3     4    1
     2     4     5   ar
     3     5     6   ar
     4     6     7   ar
     5     7     8    1
     6     7     9   ar
     7     9     2    1
     8     2     1    1
     9     1    11    1
    10    11    12    1
    11    12    13    1
    12    13    14    1
    13    14    15    1
    14    15    16    1
    15    16    17    1
    16    17    18    1
    17     9    10   ar
    18    10     4   ar
    19    18    13    1
    20    16    19    1
@<TRIPOS>MOLECULE
*****
 19 20 0 0 0
SMALL
GASTEIGER

@<TRIPOS>ATOM
      1 C          -6.2925  -19.6763   21.3478 C.3     1  UNL1        0.0636
      2 S          -4.9362  -19.7142   21.9872 S.3     1  UNL1       -0.1127
      3 CL         -1.7358  -17.8151   18.3608 Cl      1  UNL1       -0.0822
      4 C          -2.2826  -17.7815   19.7571 C.ar    1  UNL1        0.0582
      5 C          -1.7760  -16.7647   20.7367 C.ar    1  UNL1        0.0123
      6 C          -2.3228  -16.7311   22.1331 C.ar    1  UNL1        0.0128
      7 C          -3.3762  -17.7142   22.5499 C.ar    1  UNL1        0.0634
      8 CL         -3.9230  -17.6806   23.9463 Cl      1  UNL1       -0.0817
      9 C          -3.8828  -18.7310   21.5704 C.ar    1  UNL1        0.0366
     10 C          -3.3360  -18.7646   20.1740 C.ar    1  UNL1        0.0184
     11 C          -7.2444  -18.5635   21.6732 C.3     1  UNL1        0.0293
     12 C          -8.3723  -18.7981   22.6337 C.3     1  UNL1        0.0731
     13 N          -9.7779  -18.4551   22.2380 N.3     1  UNL1       -0.2703
     14 C         -10.8733  -18.4822   23.2625 C.3     1  UNL1        0.0894
     15 C         -12.2789  -18.1393   22.8668 C.3     1  UNL1        0.0862
     16 N         -12.5892  -17.7692   21.4467 N.3     1  UNL1       -0.2951
     17 C         -11.4939  -17.7422   20.4222 C.3     1  UNL1        0.0862
     18 C         -10.0882  -18.0851   20.8179 C.3     1  UNL1        0.0894
     19 H         -12.9955  -16.8339   21.4682 H       1  UNL1        0.1233
@<TRIPOS>BOND
     1     3     4    1
     2     4     5   ar
     3     5     6   ar
     4     6     7   ar
     5     7     8    1
     6     7     9   ar
     7     9     2    1
     8     2     1    1
     9     1    11    1
    10    11    12    1
    11    12    13    1
    12    13    14    1
    13    14    15    1
    14    15    16    1
    15    16    17    1
    16    17    18    1
    17     9    10   ar
    18    10     4   ar
    19    18    13    1
    20    16    19    1
@<TRIPOS>MOLECULE
*****
 19 20 0 0 0
SMALL
GASTEIGER

@<TRIPOS>ATOM
      1 C          -6.8984  -16.9322   23.1827 C.3     1  UNL1        0.0636
      2 S          -7.0042  -18.2141   22.4111 S.3     1  UNL1       -0.1127
      3 CL         -1.8374  -18.7527   22.2911 Cl      1  UNL1       -0.0822
      4 C          -3.1926  -19.1009   21.7507 C.ar    1  UNL1        0.0582
      5 C          -3.3198  -20.0664   20.6099 C.ar    1  UNL1        0.0123
      6 C          -4.6750  -20.4146   20.0695 C.ar    1  UNL1        0.0128
      7 C          -5.9032  -19.7971   20.6698 C.ar    1  UNL1        0.0634
      8 CL         -7.2584  -20.1453   20.1294 Cl      1  UNL1       -0.0817
      9 C          -5.7760  -18.8316   21.8106 C.ar    1  UNL1        0.0366
     10 C          -4.4207  -18.4834   22.3511 C.ar    1  UNL1        0.0184
     11 C          -8.0503  -15.9715   23.2024 C.3     1  UNL1        0.0293
     12 C          -9.3997  -16.4280   23.6721 C.3     1  UNL1        0.0731
     13 N         -10.5014  -16.6561   22.6801 N.3     1  UNL1       -0.2703
     14 C         -11.6650  -17.5320   23.0397 C.3     1  UNL1        0.0894
     15 C         -12.7667  -17.7601   22.0477 C.3     1  UNL1        0.0862
     16 N         -12.7050  -17.1125   20.6961 N.3     1  UNL1       -0.2951
     17 C         -11.5416  -16.2367   20.3365 C.3     1  UNL1        0.0862
     18 C         -10.4397  -16.0085   21.3285 C.3     1  UNL1        0.0894
     19 H         -13.5440  -16.5395   20.6056 H       1  UNL1        0.1233
@<TRIPOS>BOND
     1     3     4    1
     2     4     5   ar
     3     5     6   ar
     4     6     7   ar
     5     7     8    1
     6     7     9   ar
     7     9     2    1
     8     2     1    1
     9     1    11    1
    10    11    12    1
    11    12    13    1
    12    13    14    1
    13    14    15    1
    14    15    16    1
    15    16    17    1
    16    17    18    1
    17     9    10   ar
    18    10     4   ar
    19    18    13    1
    20    16    19    1
@<TRIPOS>MOLECULE
*****
 19 20 0 0 0
SMALL
GASTEIGER

@<TRIPOS>ATOM
      1 C          -7.3550  -15.9810   23.2860 C.3     1  UNL1        0.0636
      2 S          -8.7947  -16.2658   23.5957 S.3     1  UNL1       -0.1127
      3 CL        -10.4528  -19.0752   19.5512 Cl      1  UNL1       -0.0822
      4 C         -10.2772  -18.9071   21.0313 C.ar    1  UNL1        0.0582
      5 C         -10.7550  -19.9755   21.9694 C.ar    1  UNL1        0.0123
      6 C         -10.5794  -19.8074   23.4496 C.ar    1  UNL1        0.0128
      7 C          -9.9260  -18.5709   23.9917 C.ar    1  UNL1        0.0634
      8 CL         -9.7504  -18.4028   25.4719 Cl      1  UNL1       -0.0817
      9 C          -9.4482  -17.5024   23.0536 C.ar    1  UNL1        0.0366
     10 C          -9.6238  -17.6705   21.5734 C.ar    1  UNL1        0.0184
     11 C          -6.3402  -17.0834   23.3572 C.3     1  UNL1        0.0293
     12 C          -4.8880  -16.7554   23.5400 C.3     1  UNL1        0.0731
     13 N          -3.8487  -17.4796   22.7367 N.3     1  UNL1       -0.2703
     14 C          -2.6957  -16.7233   22.1461 C.3     1  UNL1        0.0894
     15 C          -1.6564  -17.4475   21.3428 C.3     1  UNL1        0.0862
     16 N          -1.7700  -18.9280   21.1301 N.3     1  UNL1       -0.2951
     17 C          -2.9229  -19.6843   21.7206 C.3     1  UNL1        0.0862
     18 C          -3.9623  -18.9601   22.5240 C.3     1  UNL1        0.0894
     19 H          -0.9195  -19.3458   21.5075 H       1  UNL1        0.1233
@<TRIPOS>BOND
     1     3     4    1
     2     4     5   ar
     3     5     6   ar
     4     6     7   ar
     5     7     8    1
     6     7     9   ar
     7     9     2    1
     8     2     1    1
     9     1    11    1
    10    11    12    1
    11    12    13    1
    12    13    14    1
    13    14    15    1
    14    15    16    1
    15    16    17    1
    16    17    18    1
    17     9    10   ar
    18    10     4   ar
    19    18    13    1
    20    16    19    1
@<TRIPOS>MOLECULE
*****
 19 20 0 0 0
SMALL
GASTEIGER

@<TRIPOS>ATOM
      1 C          -6.6798  -17.5642   22.6018 C.3     1  UNL1        0.0636
      2 S          -8.1154  -17.8997   22.8784 S.3     1  UNL1       -0.1127
      3 CL         -9.0991  -20.4869   18.4808 Cl      1  UNL1       -0.0822
      4 C          -9.5322  -19.5234   19.5457 C.ar    1  UNL1        0.0582
      5 C         -10.8901  -18.8900   19.4769 C.ar    1  UNL1        0.0123
      6 C         -11.3232  -17.9265   20.5418 C.ar    1  UNL1        0.0128
      7 C         -10.3983  -17.5964   21.6756 C.ar    1  UNL1        0.0634
      8 CL        -10.8314  -16.6329   22.7406 Cl      1  UNL1       -0.0817
      9 C          -9.0404  -18.2298   21.7445 C.ar    1  UNL1        0.0366
     10 C          -8.6073  -19.1933   20.6795 C.ar    1  UNL1        0.0184
     11 C          -5.6978  -18.6584   22.3042 C.3     1  UNL1        0.0293
     12 C          -4.2438  -18.4674   22.6195 C.3     1  UNL1        0.0731
     13 N          -3.2837  -18.0897   21.5308 N.3     1  UNL1       -0.2703
     14 C          -3.3787  -18.7467   20.1857 C.3     1  UNL1        0.0894
     15 C          -2.4186  -18.3689   19.0970 C.3     1  UNL1        0.0862
     16 N          -1.3633  -17.3342   19.3533 N.3     1  UNL1       -0.2951
     17 C          -1.2682  -16.6772   20.6984 C.3     1  UNL1        0.0862
     18 C          -2.2284  -17.0549   21.7872 C.3     1  UNL1        0.0894
     19 H          -1.5092  -16.5896   18.6716 H       1  UNL1        0.1233
@<TRIPOS>BOND
     1     3     4    1
     2     4     5   ar
     3     5     6   ar
     4     6     7   ar
     5     7     8    1
     6     7     9   ar
     7     9     2    1
     8     2     1    1
     9     1    11    1
    10    11    12    1
    11    12    13    1
    12    13    14    1
    13    14    15    1
    14    15    16    1
    15    16    17    1
    16    17    18    1
    17     9    10   ar
    18    10     4   ar
    19    18    13    1
    20    16    19    1
