@<TRIPOS>MOLECULE
*****
 28 30 0 0 0
SMALL
GASTEIGER

@<TRIPOS>ATOM
      1 C          -7.0389  -15.6129   24.9948 C.ar    1  UNL1        0.1889
      2 C          -8.5334  -15.7190   25.0672 C.ar    1  UNL1        0.1403
      3 N          -9.2937  -16.3732   23.9519 N.ar    1  UNL1       -0.2204
      4 C          -8.5596  -16.9212   22.7642 C.ar    1  UNL1        0.1816
      5 N          -7.0651  -16.8151   22.6918 N.ar    1  UNL1       -0.2074
      6 C          -6.3048  -16.1609   23.8071 C.ar    1  UNL1        0.1663
      7 C          -9.3199  -17.5754   21.6488 C.ar    1  UNL1        0.1170
      8 C          -8.9593  -18.9631   21.2083 C.ar    1  UNL1        0.0223
      9 C          -9.7197  -19.6173   20.0929 C.ar    1  UNL1        0.0032
     10 C         -10.8406  -18.8837   19.4182 C.ar    1  UNL1        0.0207
     11 C         -11.2012  -17.4960   19.8587 C.ar    1  UNL1        0.0989
     12 N         -10.4408  -16.8418   20.9741 N.ar    1  UNL1       -0.2407
     13 C          -6.6784  -15.2036   27.5350 C.3     1  UNL1        0.2527
     14 O          -6.2786  -14.9587   26.1102 O.3     1  UNL1       -0.4670
     15 N          -4.8102  -16.0548   23.7347 N.pl3   1  UNL1       -0.3119
     16 H          -4.3740  -15.1772   23.8280 H       1  UNL1        0.1486
     17 C          -3.9805  -17.2858   23.5202 C.3     1  UNL1        0.1154
     18 C          -3.2381  -17.4746   22.2306 C.ar    1  UNL1        0.0014
     19 C          -2.0882  -16.5742   21.8884 C.ar    1  UNL1       -0.0004
     20 C          -1.3458  -16.7630   20.5987 C.ar    1  UNL1        0.0294
     21 C          -1.7533  -17.8521   19.6512 C.ar    1  UNL1        0.1401
     22 F          -1.0109  -18.0408   18.3616 F       1  UNL1       -0.2042
     23 C          -2.9032  -18.7525   19.9934 C.ar    1  UNL1        0.0332
     24 C          -3.6456  -18.5637   21.2830 C.ar    1  UNL1        0.0713
     25 C          -4.7955  -19.4641   21.6252 C.3     1  UNL1        0.4184
     26 F          -5.9454  -20.3645   21.9674 F       1  UNL1       -0.1659
     27 F          -3.9773  -20.0959   22.7122 F       1  UNL1       -0.1659
     28 F          -5.6136  -18.8324   20.5382 F       1  UNL1       -0.1659
@<TRIPOS>BOND
     1    13    14    1
     2    14     1    1
     3     1     2   ar
     4     2     3   ar
     5     3     4   ar
     6     4     7    1
     7     7     8   ar
     8     8     9   ar
     9     9    10   ar
    10    10    11   ar
    11    11    12   ar
    12     4     5   ar
    13     5     6   ar
    14     6    15    1
    15    15    17    1
    16    17    18    1
    17    18    19   ar
    18    19    20   ar
    19    20    21   ar
    20    21    22    1
    21    21    23   ar
    22    23    24   ar
    23    24    25    1
    24    25    26    1
    25    25    27    1
    26    25    28    1
    27     6     1   ar
    28    24    18   ar
    29    12     7   ar
    30    15    16    1
@<TRIPOS>MOLECULE
*****
 28 30 0 0 0
SMALL
GASTEIGER

@<TRIPOS>ATOM
      1 C          -6.9498  -15.5531   25.6131 C.ar    1  UNL1        0.1889
      2 C          -5.5470  -15.7173   26.1180 C.ar    1  UNL1        0.1403
      3 N          -4.4726  -16.2175   25.1985 N.ar    1  UNL1       -0.2204
      4 C          -4.8011  -16.5536   23.7741 C.ar    1  UNL1        0.1816
      5 N          -6.2039  -16.3894   23.2691 N.ar    1  UNL1       -0.2074
      6 C          -7.2783  -15.8891   24.1886 C.ar    1  UNL1        0.1663
      7 C          -3.7267  -17.0538   22.8545 C.ar    1  UNL1        0.1170
      8 C          -3.5142  -18.5285   22.6816 C.ar    1  UNL1        0.0223
      9 C          -2.4399  -19.0288   21.7621 C.ar    1  UNL1        0.0032
     10 C          -1.5780  -18.0542   21.0155 C.ar    1  UNL1        0.0207
     11 C          -1.7905  -16.5795   21.1884 C.ar    1  UNL1        0.0989
     12 N          -2.8648  -16.0793   22.1079 N.ar    1  UNL1       -0.2407
     13 C          -8.5071  -15.9152   27.6609 C.3     1  UNL1        0.2527
     14 O          -8.0242  -15.0529   26.5326 O.3     1  UNL1       -0.4670
     15 N          -8.6812  -15.7249   23.6836 N.pl3   1  UNL1       -0.3119
     16 H          -8.9842  -14.8506   23.3476 H       1  UNL1        0.1486
     17 C          -9.6223  -16.8929   23.6906 C.3     1  UNL1        0.1154
     18 C          -9.8155  -17.7079   22.4463 C.ar    1  UNL1        0.0014
     19 C          -8.6240  -18.1917   21.6740 C.ar    1  UNL1       -0.0004
     20 C          -8.8173  -19.0067   20.4296 C.ar    1  UNL1        0.0294
     21 C         -10.2020  -19.3379   19.9575 C.ar    1  UNL1        0.1401
     22 F         -10.3952  -20.1529   18.7132 F       1  UNL1       -0.2042
     23 C         -11.3935  -18.8541   20.7298 C.ar    1  UNL1        0.0332
     24 C         -11.2003  -18.0392   21.9741 C.ar    1  UNL1        0.0713
     25 C         -12.3917  -17.5554   22.7463 C.3     1  UNL1        0.4184
     26 F         -13.5832  -17.0716   23.5186 F       1  UNL1       -0.1659
     27 F         -12.3467  -18.7938   23.5916 F       1  UNL1       -0.1659
     28 F         -12.4367  -16.3170   21.9011 F       1  UNL1       -0.1659
@<TRIPOS>BOND
     1    13    14    1
     2    14     1    1
     3     1     2   ar
     4     2     3   ar
     5     3     4   ar
     6     4     7    1
     7     7     8   ar
     8     8     9   ar
     9     9    10   ar
    10    10    11   ar
    11    11    12   ar
    12     4     5   ar
    13     5     6   ar
    14     6    15    1
    15    15    17    1
    16    17    18    1
    17    18    19   ar
    18    19    20   ar
    19    20    21   ar
    20    21    22    1
    21    21    23   ar
    22    23    24   ar
    23    24    25    1
    24    25    26    1
    25    25    27    1
    26    25    28    1
    27     6     1   ar
    28    24    18   ar
    29    12     7   ar
    30    15    16    1
@<TRIPOS>MOLECULE
*****
 28 30 0 0 0
SMALL
GASTEIGER

@<TRIPOS>ATOM
      1 C          -7.0283  -15.5822   25.1994 C.ar    1  UNL1        0.1889
      2 C          -5.6502  -15.7267   25.7738 C.ar    1  UNL1        0.1403
      3 N          -4.5445  -16.2973   24.9360 N.ar    1  UNL1       -0.2204
      4 C          -4.8169  -16.7235   23.5239 C.ar    1  UNL1        0.1816
      5 N          -6.1950  -16.5790   22.9495 N.ar    1  UNL1       -0.2074
      6 C          -7.3007  -16.0084   23.7873 C.ar    1  UNL1        0.1663
      7 C          -3.7112  -17.2941   22.6861 C.ar    1  UNL1        0.1170
      8 C          -3.5702  -18.7804   22.5418 C.ar    1  UNL1        0.0223
      9 C          -2.4645  -19.3511   21.7041 C.ar    1  UNL1        0.0032
     10 C          -1.4999  -18.4354   21.0106 C.ar    1  UNL1        0.0207
     11 C          -1.6409  -16.9490   21.1549 C.ar    1  UNL1        0.0989
     12 N          -2.7466  -16.3784   21.9927 N.ar    1  UNL1       -0.2407
     13 C          -8.3646  -15.5271   27.4268 C.3     1  UNL1        0.2527
     14 O          -8.1340  -15.0116   26.0372 O.3     1  UNL1       -0.4670
     15 N          -8.6788  -15.8639   23.2128 N.pl3   1  UNL1       -0.3119
     16 H          -9.1296  -14.9888   23.2289 H       1  UNL1        0.1486
     17 C          -9.3701  -17.0528   22.6139 C.3     1  UNL1        0.1154
     18 C         -10.7782  -17.3813   23.0130 C.ar    1  UNL1        0.0014
     19 C         -11.8880  -16.4193   22.7084 C.ar    1  UNL1       -0.0004
     20 C         -13.2961  -16.7479   23.1075 C.ar    1  UNL1        0.0294
     21 C         -13.5945  -18.0385   23.8111 C.ar    1  UNL1        0.1401
     22 F         -15.0025  -18.3671   24.2102 F       1  UNL1       -0.2042
     23 C         -12.4847  -19.0006   24.1158 C.ar    1  UNL1        0.0332
     24 C         -11.0766  -18.6720   23.7167 C.ar    1  UNL1        0.0713
     25 C          -9.9668  -19.6341   24.0213 C.3     1  UNL1        0.4184
     26 F          -8.8570  -20.5962   24.3259 F       1  UNL1       -0.1659
     27 F          -9.7191  -18.9355   25.3254 F       1  UNL1       -0.1659
     28 F         -10.2145  -20.3328   22.7173 F       1  UNL1       -0.1659
@<TRIPOS>BOND
     1    13    14    1
     2    14     1    1
     3     1     2   ar
     4     2     3   ar
     5     3     4   ar
     6     4     7    1
     7     7     8   ar
     8     8     9   ar
     9     9    10   ar
    10    10    11   ar
    11    11    12   ar
    12     4     5   ar
    13     5     6   ar
    14     6    15    1
    15    15    17    1
    16    17    18    1
    17    18    19   ar
    18    19    20   ar
    19    20    21   ar
    20    21    22    1
    21    21    23   ar
    22    23    24   ar
    23    24    25    1
    24    25    26    1
    25    25    27    1
    26    25    28    1
    27     6     1   ar
    28    24    18   ar
    29    12     7   ar
    30    15    16    1
@<TRIPOS>MOLECULE
*****
 28 30 0 0 0
SMALL
GASTEIGER

@<TRIPOS>ATOM
      1 C          -6.9321  -15.4993   25.4276 C.ar    1  UNL1        0.1889
      2 C          -5.5761  -15.7649   26.0112 C.ar    1  UNL1        0.1403
      3 N          -4.4615  -16.2459   25.1301 N.ar    1  UNL1       -0.2204
      4 C          -4.7029  -16.4613   23.6654 C.ar    1  UNL1        0.1816
      5 N          -6.0590  -16.1956   23.0819 N.ar    1  UNL1       -0.2074
      6 C          -7.1735  -15.7146   23.9630 C.ar    1  UNL1        0.1663
      7 C          -3.5884  -16.9423   22.7843 C.ar    1  UNL1        0.1170
      8 C          -3.2861  -18.4085   22.6902 C.ar    1  UNL1        0.0223
      9 C          -2.1715  -18.8895   21.8091 C.ar    1  UNL1        0.0032
     10 C          -1.3592  -17.9043   21.0221 C.ar    1  UNL1        0.0207
     11 C          -1.6615  -16.4381   21.1161 C.ar    1  UNL1        0.0989
     12 N          -2.7760  -15.9571   21.9972 N.ar    1  UNL1       -0.2407
     13 C          -8.3969  -15.7750   27.5556 C.3     1  UNL1        0.2527
     14 O          -8.0467  -15.0183   26.3088 O.3     1  UNL1       -0.4670
     15 N          -8.5296  -15.4489   23.3794 N.pl3   1  UNL1       -0.3119
     16 H          -8.9363  -14.5565   23.4654 H       1  UNL1        0.1486
     17 C          -9.2660  -16.5430   22.6647 C.3     1  UNL1        0.1154
     18 C          -9.3736  -17.9043   23.2854 C.ar    1  UNL1        0.0014
     19 C         -10.1071  -18.0817   24.5817 C.ar    1  UNL1       -0.0004
     20 C         -10.2146  -19.4431   25.2024 C.ar    1  UNL1        0.0294
     21 C          -9.5887  -20.6269   24.5267 C.ar    1  UNL1        0.1401
     22 F          -9.6963  -21.9882   25.1474 F       1  UNL1       -0.2042
     23 C          -8.8552  -20.4495   23.2304 C.ar    1  UNL1        0.0332
     24 C          -8.7476  -19.0883   22.6097 C.ar    1  UNL1        0.0713
     25 C          -8.0140  -18.9109   21.3134 C.3     1  UNL1        0.4184
     26 F          -7.2805  -18.7335   20.0171 F       1  UNL1       -0.1659
     27 F          -9.3085  -19.0293   20.5648 F       1  UNL1       -0.1659
     28 F          -6.7196  -18.7925   22.0621 F       1  UNL1       -0.1659
@<TRIPOS>BOND
     1    13    14    1
     2    14     1    1
     3     1     2   ar
     4     2     3   ar
     5     3     4   ar
     6     4     7    1
     7     7     8   ar
     8     8     9   ar
     9     9    10   ar
    10    10    11   ar
    11    11    12   ar
    12     4     5   ar
    13     5     6   ar
    14     6    15    1
    15    15    17    1
    16    17    18    1
    17    18    19   ar
    18    19    20   ar
    19    20    21   ar
    20    21    22    1
    21    21    23   ar
    22    23    24   ar
    23    24    25    1
    24    25    26    1
    25    25    27    1
    26    25    28    1
    27     6     1   ar
    28    24    18   ar
    29    12     7   ar
    30    15    16    1
@<TRIPOS>MOLECULE
*****
 28 30 0 0 0
SMALL
GASTEIGER

@<TRIPOS>ATOM
      1 C          -6.8969  -15.7109   24.9552 C.ar    1  UNL1        0.1889
      2 C          -5.4823  -15.7221   25.4541 C.ar    1  UNL1        0.1403
      3 N          -4.4055  -16.3776   24.6412 N.ar    1  UNL1       -0.2204
      4 C          -4.7432  -17.0219   23.3294 C.ar    1  UNL1        0.1816
      5 N          -6.1578  -17.0107   22.8306 N.ar    1  UNL1       -0.2074
      6 C          -7.2346  -16.3552   23.6434 C.ar    1  UNL1        0.1663
      7 C          -3.6664  -17.6774   22.5166 C.ar    1  UNL1        0.1170
      8 C          -2.5551  -16.8520   21.9391 C.ar    1  UNL1        0.0223
      9 C          -1.4783  -17.5075   21.1262 C.ar    1  UNL1        0.0032
     10 C          -1.5128  -18.9884   20.8908 C.ar    1  UNL1        0.0207
     11 C          -2.6241  -19.8139   21.4683 C.ar    1  UNL1        0.0989
     12 N          -3.7009  -19.1584   22.2812 N.ar    1  UNL1       -0.2407
     13 C          -8.2668  -15.5422   27.1563 C.3     1  UNL1        0.2527
     14 O          -7.9737  -15.0554   25.7681 O.3     1  UNL1       -0.4670
     15 N          -8.6492  -16.3441   23.1445 N.pl3   1  UNL1       -0.3119
     16 H          -9.1319  -15.4910   23.0524 H       1  UNL1        0.1486
     17 C          -9.3282  -17.6326   22.7859 C.3     1  UNL1        0.1154
     18 C         -10.7643  -17.8527   23.1587 C.ar    1  UNL1        0.0014
     19 C         -11.1098  -18.4682   24.4822 C.ar    1  UNL1       -0.0004
     20 C         -12.5460  -18.6883   24.8550 C.ar    1  UNL1        0.0294
     21 C         -13.6367  -18.2928   23.9042 C.ar    1  UNL1        0.1401
     22 F         -15.0728  -18.5129   24.2770 F       1  UNL1       -0.2042
     23 C         -13.2912  -17.6773   22.5807 C.ar    1  UNL1        0.0332
     24 C         -11.8551  -17.4572   22.2079 C.ar    1  UNL1        0.0713
     25 C         -11.5096  -16.8417   20.8843 C.3     1  UNL1        0.4184
     26 F         -11.1641  -16.2262   19.5608 F       1  UNL1       -0.1659
     27 F         -11.4225  -15.4927   21.5344 F       1  UNL1       -0.1659
     28 F         -11.5967  -18.1907   20.2342 F       1  UNL1       -0.1659
@<TRIPOS>BOND
     1    13    14    1
     2    14     1    1
     3     1     2   ar
     4     2     3   ar
     5     3     4   ar
     6     4     7    1
     7     7     8   ar
     8     8     9   ar
     9     9    10   ar
    10    10    11   ar
    11    11    12   ar
    12     4     5   ar
    13     5     6   ar
    14     6    15    1
    15    15    17    1
    16    17    18    1
    17    18    19   ar
    18    19    20   ar
    19    20    21   ar
    20    21    22    1
    21    21    23   ar
    22    23    24   ar
    23    24    25    1
    24    25    26    1
    25    25    27    1
    26    25    28    1
    27     6     1   ar
    28    24    18   ar
    29    12     7   ar
    30    15    16    1
@<TRIPOS>MOLECULE
*****
 28 30 0 0 0
SMALL
GASTEIGER

@<TRIPOS>ATOM
      1 C          -6.7669  -15.5996   25.2273 C.ar    1  UNL1        0.1889
      2 C          -5.3070  -15.8825   25.4233 C.ar    1  UNL1        0.1403
      3 N          -4.5699  -16.7391   24.4369 N.ar    1  UNL1       -0.2204
      4 C          -5.2928  -17.3127   23.2544 C.ar    1  UNL1        0.1816
      5 N          -6.7528  -17.0298   23.0584 N.ar    1  UNL1       -0.2074
      6 C          -7.4898  -16.1733   24.0448 C.ar    1  UNL1        0.1663
      7 C          -4.5558  -18.1693   22.2680 C.ar    1  UNL1        0.1170
      8 C          -3.1020  -18.4733   22.4777 C.ar    1  UNL1        0.0223
      9 C          -2.3650  -19.3299   21.4913 C.ar    1  UNL1        0.0032
     10 C          -3.0817  -19.8824   20.2951 C.ar    1  UNL1        0.0207
     11 C          -4.5355  -19.5785   20.0854 C.ar    1  UNL1        0.0989
     12 N          -5.2725  -18.7219   21.0718 N.ar    1  UNL1       -0.2407
     13 C          -8.2973  -15.3809   27.3153 C.3     1  UNL1        0.2527
     14 O          -7.5040  -14.7430   26.2137 O.3     1  UNL1       -0.4670
     15 N          -8.9498  -15.8904   23.8487 N.pl3   1  UNL1       -0.3119
     16 H          -9.2675  -14.9604   23.7894 H       1  UNL1        0.1486
     17 C          -9.9259  -17.0245   23.7430 C.3     1  UNL1        0.1154
     18 C         -10.2029  -17.6538   22.4100 C.ar    1  UNL1        0.0014
     19 C         -10.6413  -16.8026   21.2553 C.ar    1  UNL1       -0.0004
     20 C         -10.9183  -17.4321   19.9221 C.ar    1  UNL1        0.0294
     21 C         -10.7568  -18.9126   19.7438 C.ar    1  UNL1        0.1401
     22 F         -11.0338  -19.5420   18.4107 F       1  UNL1       -0.2042
     23 C         -10.3184  -19.7638   20.8984 C.ar    1  UNL1        0.0332
     24 C         -10.0415  -19.1344   22.2315 C.ar    1  UNL1        0.0713
     25 C          -9.6030  -19.9856   23.3862 C.3     1  UNL1        0.4184
     26 F          -9.1646  -20.8368   24.5409 F       1  UNL1       -0.1659
     27 F          -8.1775  -19.8617   22.9363 F       1  UNL1       -0.1659
     28 F         -11.0286  -20.1095   23.8361 F       1  UNL1       -0.1659
@<TRIPOS>BOND
     1    13    14    1
     2    14     1    1
     3     1     2   ar
     4     2     3   ar
     5     3     4   ar
     6     4     7    1
     7     7     8   ar
     8     8     9   ar
     9     9    10   ar
    10    10    11   ar
    11    11    12   ar
    12     4     5   ar
    13     5     6   ar
    14     6    15    1
    15    15    17    1
    16    17    18    1
    17    18    19   ar
    18    19    20   ar
    19    20    21   ar
    20    21    22    1
    21    21    23   ar
    22    23    24   ar
    23    24    25    1
    24    25    26    1
    25    25    27    1
    26    25    28    1
    27     6     1   ar
    28    24    18   ar
    29    12     7   ar
    30    15    16    1
@<TRIPOS>MOLECULE
*****
 28 30 0 0 0
SMALL
GASTEIGER

@<TRIPOS>ATOM
      1 C          -8.2545  -16.2134   24.7099 C.ar    1  UNL1        0.1889
      2 C          -7.0505  -15.6839   23.9887 C.ar    1  UNL1        0.1403
      3 N          -6.3171  -16.5559   23.0130 N.ar    1  UNL1       -0.2204
      4 C          -6.7877  -17.9572   22.7586 C.ar    1  UNL1        0.1816
      5 N          -7.9916  -18.4867   23.4799 N.ar    1  UNL1       -0.2074
      6 C          -8.7250  -17.6147   24.4555 C.ar    1  UNL1        0.1663
      7 C          -6.0543  -18.8291   21.7830 C.ar    1  UNL1        0.1170
      8 C          -6.6696  -20.1151   21.3166 C.ar    1  UNL1        0.0223
      9 C          -5.9362  -20.9870   20.3410 C.ar    1  UNL1        0.0032
     10 C          -4.5875  -20.5729   19.8317 C.ar    1  UNL1        0.0207
     11 C          -3.9721  -19.2870   20.2981 C.ar    1  UNL1        0.0989
     12 N          -4.7055  -18.4150   21.2737 N.ar    1  UNL1       -0.2407
     13 C          -8.4878  -15.2056   27.0932 C.3     1  UNL1        0.2527
     14 O          -8.9879  -15.3415   25.6856 O.3     1  UNL1       -0.4670
     15 N          -9.9289  -18.1443   25.1768 N.pl3   1  UNL1       -0.3119
     16 H          -9.9064  -18.2583   26.1544 H       1  UNL1        0.1486
     17 C         -11.1671  -18.5000   24.4085 C.3     1  UNL1        0.1154
     18 C         -11.0866  -18.7550   22.9326 C.ar    1  UNL1        0.0014
     19 C         -10.6335  -20.0921   22.4260 C.ar    1  UNL1       -0.0004
     20 C         -10.5530  -20.3470   20.9499 C.ar    1  UNL1        0.0294
     21 C         -10.9257  -19.2647   19.9805 C.ar    1  UNL1        0.1401
     22 F         -10.8452  -19.5196   18.5046 F       1  UNL1       -0.2042
     23 C         -11.3788  -17.9276   20.4871 C.ar    1  UNL1        0.0332
     24 C         -11.4593  -17.6726   21.9631 C.ar    1  UNL1        0.0713
     25 C         -11.9125  -16.3355   22.4696 C.3     1  UNL1        0.4184
     26 F         -12.3656  -14.9983   22.9762 F       1  UNL1       -0.1659
     27 F         -10.5500  -15.7704   22.1970 F       1  UNL1       -0.1659
     28 F         -13.2750  -16.9005   22.7423 F       1  UNL1       -0.1659
@<TRIPOS>BOND
     1    13    14    1
     2    14     1    1
     3     1     2   ar
     4     2     3   ar
     5     3     4   ar
     6     4     7    1
     7     7     8   ar
     8     8     9   ar
     9     9    10   ar
    10    10    11   ar
    11    11    12   ar
    12     4     5   ar
    13     5     6   ar
    14     6    15    1
    15    15    17    1
    16    17    18    1
    17    18    19   ar
    18    19    20   ar
    19    20    21   ar
    20    21    22    1
    21    21    23   ar
    22    23    24   ar
    23    24    25    1
    24    25    26    1
    25    25    27    1
    26    25    28    1
    27     6     1   ar
    28    24    18   ar
    29    12     7   ar
    30    15    16    1
@<TRIPOS>MOLECULE
*****
 28 30 0 0 0
SMALL
GASTEIGER

@<TRIPOS>ATOM
      1 C          -8.6569  -17.8304   23.6370 C.ar    1  UNL1        0.1889
      2 C          -7.5665  -16.8048   23.5418 C.ar    1  UNL1        0.1403
      3 N          -6.2829  -17.1376   22.8406 N.ar    1  UNL1       -0.2204
      4 C          -6.0897  -18.4960   22.2346 C.ar    1  UNL1        0.1816
      5 N          -7.1801  -19.5216   22.3297 N.ar    1  UNL1       -0.2074
      6 C          -8.4637  -19.1888   23.0309 C.ar    1  UNL1        0.1663
      7 C          -4.8061  -18.8288   21.5334 C.ar    1  UNL1        0.1170
      8 C          -3.6220  -19.3039   22.3221 C.ar    1  UNL1        0.0223
      9 C          -2.3384  -19.6367   21.6209 C.ar    1  UNL1        0.0032
     10 C          -2.2390  -19.4944   20.1310 C.ar    1  UNL1        0.0207
     11 C          -3.4231  -19.0192   19.3423 C.ar    1  UNL1        0.0989
     12 N          -4.7066  -18.6864   20.0435 N.ar    1  UNL1       -0.2407
     13 C         -10.3445  -18.2603   25.5649 C.3     1  UNL1        0.2527
     14 O          -9.9404  -17.4976   24.3381 O.3     1  UNL1       -0.4670
     15 N          -9.5541  -20.2145   23.1260 N.pl3   1  UNL1       -0.3119
     16 H          -9.5847  -20.8308   23.8932 H       1  UNL1        0.1486
     17 C         -10.5980  -20.3011   22.0523 C.3     1  UNL1        0.1154
     18 C         -11.1339  -19.0487   21.4245 C.ar    1  UNL1        0.0014
     19 C         -12.1869  -18.2471   22.1306 C.ar    1  UNL1       -0.0004
     20 C         -12.7229  -16.9946   21.5027 C.ar    1  UNL1        0.0294
     21 C         -12.2058  -16.5438   20.1688 C.ar    1  UNL1        0.1401
     22 F         -12.7417  -15.2914   19.5410 F       1  UNL1       -0.2042
     23 C         -11.1527  -17.3454   19.4627 C.ar    1  UNL1        0.0332
     24 C         -10.6168  -18.5979   20.0905 C.ar    1  UNL1        0.0713
     25 C          -9.5638  -19.3995   19.3845 C.3     1  UNL1        0.4184
     26 F          -8.5107  -20.2011   18.6784 F       1  UNL1       -0.1659
     27 F         -10.6304  -20.2428   18.7512 F       1  UNL1       -0.1659
     28 F          -8.4971  -18.5561   20.0177 F       1  UNL1       -0.1659
@<TRIPOS>BOND
     1    13    14    1
     2    14     1    1
     3     1     2   ar
     4     2     3   ar
     5     3     4   ar
     6     4     7    1
     7     7     8   ar
     8     8     9   ar
     9     9    10   ar
    10    10    11   ar
    11    11    12   ar
    12     4     5   ar
    13     5     6   ar
    14     6    15    1
    15    15    17    1
    16    17    18    1
    17    18    19   ar
    18    19    20   ar
    19    20    21   ar
    20    21    22    1
    21    21    23   ar
    22    23    24   ar
    23    24    25    1
    24    25    26    1
    25    25    27    1
    26    25    28    1
    27     6     1   ar
    28    24    18   ar
    29    12     7   ar
    30    15    16    1
@<TRIPOS>MOLECULE
*****
 28 30 0 0 0
SMALL
GASTEIGER

@<TRIPOS>ATOM
      1 C          -8.3684  -16.5323   24.3672 C.ar    1  UNL1        0.1889
      2 C          -7.0968  -15.9721   23.8022 C.ar    1  UNL1        0.1403
      3 N          -6.2589  -16.8012   22.8746 N.ar    1  UNL1       -0.2204
      4 C          -6.6926  -18.1906   22.5119 C.ar    1  UNL1        0.1816
      5 N          -7.9642  -18.7508   23.0769 N.ar    1  UNL1       -0.2074
      6 C          -8.8021  -17.9216   24.0045 C.ar    1  UNL1        0.1663
      7 C          -5.8548  -19.0197   21.5843 C.ar    1  UNL1        0.1170
      8 C          -6.3728  -20.3330   21.0774 C.ar    1  UNL1        0.0223
      9 C          -5.5349  -21.1621   20.1498 C.ar    1  UNL1        0.0032
     10 C          -4.1790  -20.6780   19.7290 C.ar    1  UNL1        0.0207
     11 C          -3.6610  -19.3647   20.2359 C.ar    1  UNL1        0.0989
     12 N          -4.4989  -18.5356   21.1635 N.ar    1  UNL1       -0.2407
     13 C          -8.6622  -15.2909   26.6304 C.3     1  UNL1        0.2527
     14 O          -9.2063  -15.7031   25.2948 O.3     1  UNL1       -0.4670
     15 N         -10.0737  -18.4819   24.5695 N.pl3   1  UNL1       -0.3119
     16 H         -10.0682  -18.9267   25.4477 H       1  UNL1        0.1486
     17 C         -11.3537  -18.3643   23.7963 C.3     1  UNL1        0.1154
     18 C         -11.3836  -17.5977   22.5074 C.ar    1  UNL1        0.0014
     19 C         -11.6547  -16.1224   22.5183 C.ar    1  UNL1       -0.0004
     20 C         -11.6847  -15.3558   21.2293 C.ar    1  UNL1        0.0294
     21 C         -11.4435  -16.0644   19.9295 C.ar    1  UNL1        0.1401
     22 F         -11.4734  -15.2978   18.6406 F       1  UNL1       -0.2042
     23 C         -11.1724  -17.5397   19.9185 C.ar    1  UNL1        0.0332
     24 C         -11.1425  -18.3063   21.2074 C.ar    1  UNL1        0.0713
     25 C         -10.8714  -19.7816   21.1965 C.3     1  UNL1        0.4184
     26 F         -10.6003  -21.2568   21.1855 F       1  UNL1       -0.1659
     27 F         -12.1744  -20.0262   21.8981 F       1  UNL1       -0.1659
     28 F          -9.5684  -19.5369   20.4948 F       1  UNL1       -0.1659
@<TRIPOS>BOND
     1    13    14    1
     2    14     1    1
     3     1     2   ar
     4     2     3   ar
     5     3     4   ar
     6     4     7    1
     7     7     8   ar
     8     8     9   ar
     9     9    10   ar
    10    10    11   ar
    11    11    12   ar
    12     4     5   ar
    13     5     6   ar
    14     6    15    1
    15    15    17    1
    16    17    18    1
    17    18    19   ar
    18    19    20   ar
    19    20    21   ar
    20    21    22    1
    21    21    23   ar
    22    23    24   ar
    23    24    25    1
    24    25    26    1
    25    25    27    1
    26    25    28    1
    27     6     1   ar
    28    24    18   ar
    29    12     7   ar
    30    15    16    1
