@<TRIPOS>MOLECULE
*****
 40 45 0 0 0
SMALL
GASTEIGER

@<TRIPOS>ATOM
      1 C           0.3967    1.7027   26.4668 C.ar    1  UNL1        0.0830
      2 C          -0.6550    2.6598   26.9442 C.ar    1  UNL1        0.0208
      3 C          -1.4668    3.4381   25.9516 C.ar    1  UNL1        0.0238
      4 C          -1.2268    3.2594   24.4818 C.ar    1  UNL1        0.1173
      5 N          -1.8659    3.8845   23.2772 N.ar    1  UNL1       -0.2248
      6 C          -1.2091    3.3137   22.0554 C.ar    1  UNL1        0.1515
      7 N          -0.1642    2.3359   22.5049 N.ar    1  UNL1       -0.2754
      8 C          -0.1751    2.3023   24.0044 C.ar    1  UNL1        0.1665
      9 N           0.6366    1.5240   24.9970 N.ar    1  UNL1       -0.2264
     10 N           4.3825   -1.4571   27.5295 N.pl3   1  UNL1       -0.3570
     11 C           3.2014   -0.6556   27.9906 C.ar    1  UNL1        0.0416
     12 C           2.8322   -0.6325   29.4444 C.ar    1  UNL1        0.0141
     13 C           1.6511    0.1689   29.9055 C.ar    1  UNL1        0.0013
     14 C           0.8393    0.9474   28.9130 C.ar    1  UNL1        0.0016
     15 C           1.2085    0.9243   27.4594 C.ar    1  UNL1        0.0189
     16 C           2.3896    0.1228   26.9982 C.ar    1  UNL1        0.0156
     17 H           4.9153   -1.9680   28.1809 H       1  UNL1        0.1424
     18 H           4.6248   -1.4722   26.5754 H       1  UNL1        0.1424
     19 C          -1.5393    3.6599   20.6337 C.ar    1  UNL1        0.0657
     20 C          -0.4977    4.2830   19.7522 C.ar    1  UNL1        0.0074
     21 C          -0.8279    4.6291   18.3306 C.ar    1  UNL1        0.0209
     22 C          -2.1996    4.3523   17.7904 C.ar    1  UNL1        0.1003
     23 N          -3.2411    3.7292   18.6718 N.ar    1  UNL1       -0.2295
     24 C          -2.9109    3.3830   20.0935 C.ar    1  UNL1        0.1282
     25 N          -3.9525    2.7599   20.9750 N.pl3   1  UNL1       -0.3425
     26 H          -4.8528    2.5782   20.6205 H       1  UNL1        0.1437
     27 H          -3.7358    2.5327   21.9081 H       1  UNL1        0.1437
     28 C           0.7341    1.5326   21.6116 C.ar    1  UNL1        0.0667
     29 C           0.1802    0.3731   20.8379 C.ar    1  UNL1        0.0173
     30 C           1.0784   -0.4302   19.9446 C.ar    1  UNL1       -0.0015
     31 C           2.5305   -0.0740   19.8250 C.ar    1  UNL1       -0.0097
     32 C           3.0844    1.0856   20.5987 C.ar    1  UNL1       -0.0015
     33 C           2.1862    1.8888   21.4920 C.ar    1  UNL1        0.0173
     34 C           3.4288   -0.8772   18.9317 C.3     1  UNL1        0.0581
     35 N           3.7539   -1.7884   20.0780 N.3     1  UNL1       -0.3200
     36 C           3.1036    0.0339   17.7854 C.3     1  UNL1        0.0185
     37 C           4.0018   -0.7693   16.8921 C.3     1  UNL1        0.0033
     38 C           4.3270   -1.6805   18.0385 C.3     1  UNL1        0.0185
     39 H           3.2518   -1.4799   20.9106 H       1  UNL1        0.1191
     40 H           4.7577   -1.7637   20.2578 H       1  UNL1        0.1191
@<TRIPOS>BOND
     1    10    11    1
     2    11    12   ar
     3    12    13   ar
     4    13    14   ar
     5    14    15   ar
     6    15     1    1
     7     1     2   ar
     8     2     3   ar
     9     3     4   ar
    10     4     5   ar
    11     5     6   ar
    12     6    19    1
    13    19    20   ar
    14    20    21   ar
    15    21    22   ar
    16    22    23   ar
    17    23    24   ar
    18    24    25    1
    19     6     7   ar
    20     7    28    1
    21    28    29   ar
    22    29    30   ar
    23    30    31   ar
    24    31    34    1
    25    34    35    1
    26    34    36    1
    27    36    37    1
    28    37    38    1
    29    31    32   ar
    30    32    33   ar
    31     7     8   ar
    32     8     9   ar
    33    15    16   ar
    34    16    11   ar
    35     9     1   ar
    36     8     4   ar
    37    24    19   ar
    38    33    28   ar
    39    38    34    1
    40    10    17    1
    41    10    18    1
    42    25    26    1
    43    25    27    1
    44    35    39    1
    45    35    40    1
@<TRIPOS>MOLECULE
*****
 40 45 0 0 0
SMALL
GASTEIGER

@<TRIPOS>ATOM
      1 C           7.9910   -5.6505   23.7283 C.ar    1  UNL1        0.0830
      2 C           8.9532   -6.1226   22.6790 C.ar    1  UNL1        0.0208
      3 C           8.9949   -5.4460   21.3409 C.ar    1  UNL1        0.0238
      4 C           8.0745   -4.2973   21.0522 C.ar    1  UNL1        0.1173
      5 N           7.8894   -3.4409   19.8347 N.ar    1  UNL1       -0.2248
      6 C           6.8127   -2.4396   20.1316 C.ar    1  UNL1        0.1515
      7 N           6.3325   -2.6772   21.5327 N.ar    1  UNL1       -0.2754
      8 C           7.1123   -3.8253   22.1016 C.ar    1  UNL1        0.1665
      9 N           7.0705   -4.5019   23.4397 N.ar    1  UNL1       -0.2264
     10 N           6.4873   -5.6978   28.7020 N.pl3   1  UNL1       -0.3570
     11 C           7.1973   -6.3507   27.5533 C.ar    1  UNL1        0.0416
     12 C           7.8655   -7.6803   27.7427 C.ar    1  UNL1        0.0141
     13 C           8.5755   -8.3333   26.5940 C.ar    1  UNL1        0.0013
     14 C           8.6173   -7.6567   25.2558 C.ar    1  UNL1        0.0016
     15 C           7.9492   -6.3271   25.0665 C.ar    1  UNL1        0.0189
     16 C           7.2392   -5.6742   26.2152 C.ar    1  UNL1        0.0156
     17 H           6.4599   -6.1418   29.5802 H       1  UNL1        0.1424
     18 H           6.0488   -4.8251   28.5777 H       1  UNL1        0.1424
     19 C           6.3054   -1.3858   19.1924 C.ar    1  UNL1        0.0657
     20 C           6.7347    0.0412   19.3638 C.ar    1  UNL1        0.0074
     21 C           6.2274    1.0950   18.4246 C.ar    1  UNL1        0.0209
     22 C           5.2907    0.7218   17.3140 C.ar    1  UNL1        0.1003
     23 N           4.8614   -0.7052   17.1426 N.ar    1  UNL1       -0.2295
     24 C           5.3687   -1.7589   18.0818 C.ar    1  UNL1        0.1282
     25 N           4.9394   -3.1860   17.9105 N.pl3   1  UNL1       -0.3425
     26 H           4.3246   -3.4309   17.1816 H       1  UNL1        0.1437
     27 H           5.2724   -3.8776   18.5269 H       1  UNL1        0.1437
     28 C           5.2606   -1.9026   22.2405 C.ar    1  UNL1        0.0667
     29 C           5.5467   -1.2688   23.5696 C.ar    1  UNL1        0.0173
     30 C           4.4748   -0.4942   24.2774 C.ar    1  UNL1       -0.0015
     31 C           3.1168   -0.3534   23.6562 C.ar    1  UNL1       -0.0097
     32 C           2.8307   -0.9871   22.3271 C.ar    1  UNL1       -0.0015
     33 C           3.9026   -1.7617   21.6193 C.ar    1  UNL1        0.0173
     34 C           2.0449    0.4212   24.3641 C.3     1  UNL1        0.0581
     35 N           2.5367   -0.1016   25.6811 N.3     1  UNL1       -0.3200
     36 C           1.5530    0.9441   23.0470 C.3     1  UNL1        0.0185
     37 C           0.4811    1.7187   23.7548 C.3     1  UNL1        0.0033
     38 C           0.9730    1.1958   25.0719 C.3     1  UNL1        0.0185
     39 H           3.3355   -0.7167   25.5258 H       1  UNL1        0.1191
     40 H           1.7900   -0.6233   26.1401 H       1  UNL1        0.1191
@<TRIPOS>BOND
     1    10    11    1
     2    11    12   ar
     3    12    13   ar
     4    13    14   ar
     5    14    15   ar
     6    15     1    1
     7     1     2   ar
     8     2     3   ar
     9     3     4   ar
    10     4     5   ar
    11     5     6   ar
    12     6    19    1
    13    19    20   ar
    14    20    21   ar
    15    21    22   ar
    16    22    23   ar
    17    23    24   ar
    18    24    25    1
    19     6     7   ar
    20     7    28    1
    21    28    29   ar
    22    29    30   ar
    23    30    31   ar
    24    31    34    1
    25    34    35    1
    26    34    36    1
    27    36    37    1
    28    37    38    1
    29    31    32   ar
    30    32    33   ar
    31     7     8   ar
    32     8     9   ar
    33    15    16   ar
    34    16    11   ar
    35     9     1   ar
    36     8     4   ar
    37    24    19   ar
    38    33    28   ar
    39    38    34    1
    40    10    17    1
    41    10    18    1
    42    25    26    1
    43    25    27    1
    44    35    39    1
    45    35    40    1
@<TRIPOS>MOLECULE
*****
 40 45 0 0 0
SMALL
GASTEIGER

@<TRIPOS>ATOM
      1 C          -2.7585    3.4782   21.3157 C.ar    1  UNL1        0.0830
      2 C          -3.0706    4.0397   19.9602 C.ar    1  UNL1        0.0208
      3 C          -2.0936    3.8698   18.8349 C.ar    1  UNL1        0.0238
      4 C          -0.8043    3.1384   19.0650 C.ar    1  UNL1        0.1173
      5 N           0.3436    2.8170   18.1545 N.ar    1  UNL1       -0.2248
      6 C           1.3653    2.0569   18.9473 C.ar    1  UNL1        0.1515
      7 N           0.8487    1.9085   20.3477 N.ar    1  UNL1       -0.2754
      8 C          -0.4922    2.5769   20.4204 C.ar    1  UNL1        0.1665
      9 N          -1.4692    2.7468   21.5458 N.ar    1  UNL1       -0.2264
     10 N          -7.6505    4.0020   22.9873 N.pl3   1  UNL1       -0.3570
     11 C          -6.1815    3.9100   23.2768 C.ar    1  UNL1        0.0416
     12 C          -5.6897    3.9879   24.6918 C.ar    1  UNL1        0.0141
     13 C          -4.2208    3.8959   24.9814 C.ar    1  UNL1        0.0013
     14 C          -3.2437    3.7260   23.8560 C.ar    1  UNL1        0.0016
     15 C          -3.7356    3.6481   22.4411 C.ar    1  UNL1        0.0189
     16 C          -5.2045    3.7401   22.1515 C.ar    1  UNL1        0.0156
     17 H          -8.2917    4.1135   23.7259 H       1  UNL1        0.1424
     18 H          -7.9732    3.9509   22.0586 H       1  UNL1        0.1424
     19 C           2.6738    1.5365   18.4304 C.ar    1  UNL1        0.0657
     20 C           2.7574    0.1519   17.8595 C.ar    1  UNL1        0.0074
     21 C           4.0658   -0.3684   17.3427 C.ar    1  UNL1        0.0209
     22 C           5.2907    0.4958   17.3967 C.ar    1  UNL1        0.1003
     23 N           5.2070    1.8804   17.9676 N.ar    1  UNL1       -0.2295
     24 C           3.8986    2.4007   18.4844 C.ar    1  UNL1        0.1282
     25 N           3.8149    3.7854   19.0553 N.pl3   1  UNL1       -0.3425
     26 H           4.6188    4.3526   19.0908 H       1  UNL1        0.1437
     27 H           2.9561    4.1269   19.3946 H       1  UNL1        0.1437
     28 C           1.5499    1.2137   21.4771 C.ar    1  UNL1        0.0667
     29 C           2.1159   -0.1608   21.2762 C.ar    1  UNL1        0.0173
     30 C           2.8171   -0.8556   22.4056 C.ar    1  UNL1       -0.0015
     31 C           2.9523   -0.1760   23.7359 C.ar    1  UNL1       -0.0097
     32 C           2.3863    1.1985   23.9368 C.ar    1  UNL1       -0.0015
     33 C           1.6851    1.8933   22.8074 C.ar    1  UNL1        0.0173
     34 C           3.6535   -0.8708   24.8653 C.3     1  UNL1        0.0581
     35 N           2.7124   -0.2315   25.8429 N.3     1  UNL1       -0.3200
     36 C           4.5946   -1.5101   23.8877 C.3     1  UNL1        0.0185
     37 C           5.2957   -2.2049   25.0171 C.3     1  UNL1        0.0033
     38 C           4.3547   -1.5656   25.9947 C.3     1  UNL1        0.0185
     39 H           2.0496    0.3589   25.3404 H       1  UNL1        0.1191
     40 H           3.2426    0.3378   26.5026 H       1  UNL1        0.1191
@<TRIPOS>BOND
     1    10    11    1
     2    11    12   ar
     3    12    13   ar
     4    13    14   ar
     5    14    15   ar
     6    15     1    1
     7     1     2   ar
     8     2     3   ar
     9     3     4   ar
    10     4     5   ar
    11     5     6   ar
    12     6    19    1
    13    19    20   ar
    14    20    21   ar
    15    21    22   ar
    16    22    23   ar
    17    23    24   ar
    18    24    25    1
    19     6     7   ar
    20     7    28    1
    21    28    29   ar
    22    29    30   ar
    23    30    31   ar
    24    31    34    1
    25    34    35    1
    26    34    36    1
    27    36    37    1
    28    37    38    1
    29    31    32   ar
    30    32    33   ar
    31     7     8   ar
    32     8     9   ar
    33    15    16   ar
    34    16    11   ar
    35     9     1   ar
    36     8     4   ar
    37    24    19   ar
    38    33    28   ar
    39    38    34    1
    40    10    17    1
    41    10    18    1
    42    25    26    1
    43    25    27    1
    44    35    39    1
    45    35    40    1
@<TRIPOS>MOLECULE
*****
 40 45 0 0 0
SMALL
GASTEIGER

@<TRIPOS>ATOM
      1 C           4.2912   -2.0017   21.7916 C.ar    1  UNL1        0.0830
      2 C           5.1619   -3.1526   21.3825 C.ar    1  UNL1        0.0208
      3 C           5.9903   -3.8678   22.4081 C.ar    1  UNL1        0.0238
      4 C           5.9481   -3.4322   23.8429 C.ar    1  UNL1        0.1173
      5 N           6.6490   -3.9415   25.0674 N.ar    1  UNL1       -0.2248
      6 C           6.2114   -3.1054   26.2333 C.ar    1  UNL1        0.1515
      7 N           5.2401   -2.0794   25.7293 N.ar    1  UNL1       -0.2754
      8 C           5.0774   -2.2814   24.2520 C.ar    1  UNL1        0.1665
      9 N           4.2489   -1.5661   23.2263 N.ar    1  UNL1       -0.2264
     10 N          -0.1769    0.2509   20.3906 N.pl3   1  UNL1       -0.3570
     11 C           1.2286   -0.1601   20.0655 C.ar    1  UNL1        0.0416
     12 C           1.8055    0.1442   18.7147 C.ar    1  UNL1        0.0141
     13 C           3.2110   -0.2668   18.3895 C.ar    1  UNL1        0.0013
     14 C           4.0395   -0.9821   19.4152 C.ar    1  UNL1        0.0016
     15 C           3.4626   -1.2864   20.7659 C.ar    1  UNL1        0.0189
     16 C           2.0571   -0.8754   21.0911 C.ar    1  UNL1        0.0156
     17 H          -0.7207    0.7204   19.7175 H       1  UNL1        0.1424
     18 H          -0.5555    0.0512   21.2772 H       1  UNL1        0.1424
     19 C           6.6653   -3.2668   27.6539 C.ar    1  UNL1        0.0657
     20 C           7.3794   -2.1435   28.3454 C.ar    1  UNL1        0.0074
     21 C           7.8333   -2.3050   29.7659 C.ar    1  UNL1        0.0209
     22 C           7.5732   -3.5899   30.4949 C.ar    1  UNL1        0.1003
     23 N           6.8591   -4.7132   29.8034 N.ar    1  UNL1       -0.2295
     24 C           6.4052   -4.5517   28.3829 C.ar    1  UNL1        0.1282
     25 N           5.6911   -5.6751   27.6914 N.pl3   1  UNL1       -0.3425
     26 H           5.5204   -6.5184   28.1698 H       1  UNL1        0.1437
     27 H           5.3932   -5.5691   26.7590 H       1  UNL1        0.1437
     28 C           4.5523   -1.0347   26.5574 C.ar    1  UNL1        0.0667
     29 C           3.4763   -1.4324   27.5239 C.ar    1  UNL1        0.0173
     30 C           2.7885   -0.3878   28.3520 C.ar    1  UNL1       -0.0015
     31 C           3.1765    1.0545   28.2135 C.ar    1  UNL1       -0.0097
     32 C           4.2525    1.4521   27.2469 C.ar    1  UNL1       -0.0015
     33 C           4.9403    0.4075   26.4189 C.ar    1  UNL1        0.0173
     34 C           2.4887    2.0991   29.0415 C.3     1  UNL1        0.0581
     35 N           3.5171    3.1078   28.6233 N.3     1  UNL1       -0.3200
     36 C           1.4603    1.0905   29.4597 C.3     1  UNL1        0.0185
     37 C           0.7724    2.1351   30.2877 C.3     1  UNL1        0.0033
     38 C           1.8009    3.1438   29.8695 C.3     1  UNL1        0.0185
     39 H           4.1912    2.6667   27.9976 H       1  UNL1        0.1191
     40 H           4.0006    3.4626   29.4484 H       1  UNL1        0.1191
@<TRIPOS>BOND
     1    10    11    1
     2    11    12   ar
     3    12    13   ar
     4    13    14   ar
     5    14    15   ar
     6    15     1    1
     7     1     2   ar
     8     2     3   ar
     9     3     4   ar
    10     4     5   ar
    11     5     6   ar
    12     6    19    1
    13    19    20   ar
    14    20    21   ar
    15    21    22   ar
    16    22    23   ar
    17    23    24   ar
    18    24    25    1
    19     6     7   ar
    20     7    28    1
    21    28    29   ar
    22    29    30   ar
    23    30    31   ar
    24    31    34    1
    25    34    35    1
    26    34    36    1
    27    36    37    1
    28    37    38    1
    29    31    32   ar
    30    32    33   ar
    31     7     8   ar
    32     8     9   ar
    33    15    16   ar
    34    16    11   ar
    35     9     1   ar
    36     8     4   ar
    37    24    19   ar
    38    33    28   ar
    39    38    34    1
    40    10    17    1
    41    10    18    1
    42    25    26    1
    43    25    27    1
    44    35    39    1
    45    35    40    1
@<TRIPOS>MOLECULE
*****
 40 45 0 0 0
SMALL
GASTEIGER

@<TRIPOS>ATOM
      1 C           1.3135    0.8401   20.8127 C.ar    1  UNL1        0.0830
      2 C           0.5339    1.6946   19.8578 C.ar    1  UNL1        0.0208
      3 C          -0.4189    2.7276   20.3822 C.ar    1  UNL1        0.0238
      4 C          -0.5921    2.9061   21.8614 C.ar    1  UNL1        0.1173
      5 N          -1.4514    3.8354   22.6665 N.ar    1  UNL1       -0.2248
      6 C          -1.2028    3.5551   24.1189 C.ar    1  UNL1        0.1515
      7 N          -0.1899    2.4526   24.2115 N.ar    1  UNL1       -0.2754
      8 C           0.1875    2.0515   22.8163 C.ar    1  UNL1        0.1665
      9 N           1.1403    1.0185   22.2920 N.ar    1  UNL1       -0.2264
     10 N           3.9059   -1.2888   16.8443 N.pl3   1  UNL1       -0.3570
     11 C           3.5626   -1.2574   18.3042 C.ar    1  UNL1        0.0416
     12 C           4.1722   -2.2590   19.2397 C.ar    1  UNL1        0.0141
     13 C           3.8289   -2.2276   20.6996 C.ar    1  UNL1        0.0013
     14 C           2.8760   -1.1946   21.2239 C.ar    1  UNL1        0.0016
     15 C           2.2664   -0.1930   20.2884 C.ar    1  UNL1        0.0189
     16 C           2.6097   -0.2244   18.8285 C.ar    1  UNL1        0.0156
     17 H           4.5313   -1.9668   16.5002 H       1  UNL1        0.1424
     18 H           3.5058   -0.6314   16.2303 H       1  UNL1        0.1424
     19 C          -1.8530    4.2546   25.2758 C.ar    1  UNL1        0.0657
     20 C          -1.0194    5.0517   26.2348 C.ar    1  UNL1        0.0074
     21 C          -1.6696    5.7511   27.3915 C.ar    1  UNL1        0.0209
     22 C          -3.1533    5.6533   27.5893 C.ar    1  UNL1        0.1003
     23 N          -3.9868    4.8562   26.6302 N.ar    1  UNL1       -0.2295
     24 C          -3.3366    4.1568   25.4735 C.ar    1  UNL1        0.1282
     25 N          -4.1702    3.3597   24.5144 N.pl3   1  UNL1       -0.3425
     26 H          -5.1440    3.2955   24.6442 H       1  UNL1        0.1437
     27 H          -3.7435    2.9006   23.7552 H       1  UNL1        0.1437
     28 C           0.3507    1.8560   25.4771 C.ar    1  UNL1        0.0667
     29 C          -0.5906    1.3380   26.5239 C.ar    1  UNL1        0.0173
     30 C          -0.0500    0.7414   27.7895 C.ar    1  UNL1       -0.0015
     31 C           1.4319    0.6627   28.0084 C.ar    1  UNL1       -0.0097
     32 C           2.3731    1.1807   26.9616 C.ar    1  UNL1       -0.0015
     33 C           1.8325    1.7774   25.6960 C.ar    1  UNL1        0.0173
     34 C           1.9725    0.0661   29.2740 C.3     1  UNL1        0.0581
     35 N           0.6302   -0.5380   29.5626 N.3     1  UNL1       -0.3200
     36 C           3.3148    0.6702   28.9855 C.3     1  UNL1        0.0185
     37 C           3.8554    0.0736   30.2511 C.3     1  UNL1        0.0033
     38 C           2.5131   -0.5305   30.5396 C.3     1  UNL1        0.0185
     39 H          -0.0207   -0.2924   28.8166 H       1  UNL1        0.1191
     40 H           0.2799   -0.1796   30.4510 H       1  UNL1        0.1191
@<TRIPOS>BOND
     1    10    11    1
     2    11    12   ar
     3    12    13   ar
     4    13    14   ar
     5    14    15   ar
     6    15     1    1
     7     1     2   ar
     8     2     3   ar
     9     3     4   ar
    10     4     5   ar
    11     5     6   ar
    12     6    19    1
    13    19    20   ar
    14    20    21   ar
    15    21    22   ar
    16    22    23   ar
    17    23    24   ar
    18    24    25    1
    19     6     7   ar
    20     7    28    1
    21    28    29   ar
    22    29    30   ar
    23    30    31   ar
    24    31    34    1
    25    34    35    1
    26    34    36    1
    27    36    37    1
    28    37    38    1
    29    31    32   ar
    30    32    33   ar
    31     7     8   ar
    32     8     9   ar
    33    15    16   ar
    34    16    11   ar
    35     9     1   ar
    36     8     4   ar
    37    24    19   ar
    38    33    28   ar
    39    38    34    1
    40    10    17    1
    41    10    18    1
    42    25    26    1
    43    25    27    1
    44    35    39    1
    45    35    40    1
@<TRIPOS>MOLECULE
*****
 40 45 0 0 0
SMALL
GASTEIGER

@<TRIPOS>ATOM
      1 C           2.1715   -0.5446   20.7386 C.ar    1  UNL1        0.0830
      2 C           1.5890   -0.0608   19.4439 C.ar    1  UNL1        0.0208
      3 C           0.5947    1.0622   19.4421 C.ar    1  UNL1        0.0238
      4 C           0.1829    1.7015   20.7351 C.ar    1  UNL1        0.1173
      5 N          -0.7692    2.8187   21.0439 N.ar    1  UNL1       -0.2248
      6 C          -0.7750    3.0253   22.5296 C.ar    1  UNL1        0.1515
      7 N           0.1735    2.0358   23.1389 N.ar    1  UNL1       -0.2754
      8 C           0.7655    1.2176   22.0299 C.ar    1  UNL1        0.1665
      9 N           1.7598    0.0946   22.0316 N.ar    1  UNL1       -0.2264
     10 N           4.6599   -4.3558   18.2320 N.pl3   1  UNL1       -0.3570
     11 C           4.4101   -3.5733   19.4871 C.ar    1  UNL1        0.0416
     12 C           5.1546   -3.9139   20.7440 C.ar    1  UNL1        0.0141
     13 C           4.9047   -3.1315   21.9991 C.ar    1  UNL1        0.0013
     14 C           3.9103   -2.0083   21.9973 C.ar    1  UNL1        0.0016
     15 C           3.1659   -1.6678   20.7404 C.ar    1  UNL1        0.0189
     16 C           3.4158   -2.4503   19.4853 C.ar    1  UNL1        0.0156
     17 H           5.3125   -5.0929   18.2332 H       1  UNL1        0.1424
     18 H           4.1713   -4.1323   17.4071 H       1  UNL1        0.1424
     19 C          -1.5869    4.0428   23.2752 C.ar    1  UNL1        0.0657
     20 C          -0.9191    4.9674   24.2494 C.ar    1  UNL1        0.0074
     21 C          -1.7309    5.9848   24.9949 C.ar    1  UNL1        0.0209
     22 C          -3.2105    6.0777   24.7661 C.ar    1  UNL1        0.1003
     23 N          -3.8782    5.1531   23.7919 N.ar    1  UNL1       -0.2295
     24 C          -3.0664    4.1356   23.0464 C.ar    1  UNL1        0.1282
     25 N          -3.7341    3.2110   22.0721 N.pl3   1  UNL1       -0.3425
     26 H          -4.7052    3.2719   21.9219 H       1  UNL1        0.1437
     27 H          -3.2013    2.5432   21.5828 H       1  UNL1        0.1437
     28 C           0.4767    1.8900   24.6007 C.ar    1  UNL1        0.0667
     29 C          -0.5890    1.4165   25.5442 C.ar    1  UNL1        0.0173
     30 C          -0.2858    1.2708   27.0060 C.ar    1  UNL1       -0.0015
     31 C           1.0831    1.5985   27.5243 C.ar    1  UNL1       -0.0097
     32 C           2.1488    2.0720   26.5809 C.ar    1  UNL1       -0.0015
     33 C           1.8455    2.2177   25.1191 C.ar    1  UNL1        0.0173
     34 C           1.3863    1.4527   28.9861 C.3     1  UNL1        0.0581
     35 N           1.0396    2.8960   29.2020 N.3     1  UNL1       -0.3200
     36 C           1.7330    0.0094   28.7703 C.3     1  UNL1        0.0185
     37 C           2.0362   -0.1364   30.2320 C.3     1  UNL1        0.0033
     38 C           1.6895    1.3070   30.4479 C.3     1  UNL1        0.0185
     39 H           0.7666    3.3166   28.3137 H       1  UNL1        0.1191
     40 H           1.8508    3.3883   29.5762 H       1  UNL1        0.1191
@<TRIPOS>BOND
     1    10    11    1
     2    11    12   ar
     3    12    13   ar
     4    13    14   ar
     5    14    15   ar
     6    15     1    1
     7     1     2   ar
     8     2     3   ar
     9     3     4   ar
    10     4     5   ar
    11     5     6   ar
    12     6    19    1
    13    19    20   ar
    14    20    21   ar
    15    21    22   ar
    16    22    23   ar
    17    23    24   ar
    18    24    25    1
    19     6     7   ar
    20     7    28    1
    21    28    29   ar
    22    29    30   ar
    23    30    31   ar
    24    31    34    1
    25    34    35    1
    26    34    36    1
    27    36    37    1
    28    37    38    1
    29    31    32   ar
    30    32    33   ar
    31     7     8   ar
    32     8     9   ar
    33    15    16   ar
    34    16    11   ar
    35     9     1   ar
    36     8     4   ar
    37    24    19   ar
    38    33    28   ar
    39    38    34    1
    40    10    17    1
    41    10    18    1
    42    25    26    1
    43    25    27    1
    44    35    39    1
    45    35    40    1
@<TRIPOS>MOLECULE
*****
 40 45 0 0 0
SMALL
GASTEIGER

@<TRIPOS>ATOM
      1 C           4.0624    0.9612   36.1858 C.ar    1  UNL1        0.0830
      2 C           5.3225    0.4047   36.7794 C.ar    1  UNL1        0.0208
      3 C           6.3110   -0.3099   35.9063 C.ar    1  UNL1        0.0238
      4 C           6.0393   -0.4679   34.4396 C.ar    1  UNL1        0.1173
      5 N           6.8224   -1.1191   33.3383 N.ar    1  UNL1       -0.2248
      6 C           6.0462   -0.9650   32.0640 C.ar    1  UNL1        0.1515
      7 N           4.7834   -0.2187   32.3778 N.ar    1  UNL1       -0.2754
      8 C           4.7792    0.0886   33.8460 C.ar    1  UNL1        0.1665
      9 N           3.7908    0.8031   34.7191 N.ar    1  UNL1       -0.2264
     10 N           0.9118    1.0007   40.3177 N.pl3   1  UNL1       -0.3570
     11 C           1.4986    1.6955   39.1248 C.ar    1  UNL1        0.0416
     12 C           1.0969    3.1050   38.8051 C.ar    1  UNL1        0.0141
     13 C           1.6837    3.7998   37.6123 C.ar    1  UNL1        0.0013
     14 C           2.6723    3.0852   36.7392 C.ar    1  UNL1        0.0016
     15 C           3.0739    1.6758   37.0589 C.ar    1  UNL1        0.0189
     16 C           2.4871    0.9810   38.2518 C.ar    1  UNL1        0.0156
     17 H           0.2631    1.4697   40.8907 H       1  UNL1        0.1424
     18 H           1.1755    0.0756   40.5275 H       1  UNL1        0.1424
     19 C           6.4600   -1.4689   30.7131 C.ar    1  UNL1        0.0657
     20 C           6.7893   -0.4973   29.6188 C.ar    1  UNL1        0.0074
     21 C           7.2031   -1.0011   28.2680 C.ar    1  UNL1        0.0209
     22 C           7.2876   -2.4766   28.0114 C.ar    1  UNL1        0.1003
     23 N           6.9583   -3.4482   29.1057 N.ar    1  UNL1       -0.2295
     24 C           6.5445   -2.9444   30.4565 C.ar    1  UNL1        0.1282
     25 N           6.2152   -3.9160   31.5509 N.pl3   1  UNL1       -0.3425
     26 H           6.2707   -4.8844   31.3825 H       1  UNL1        0.1437
     27 H           5.9436   -3.5853   32.4375 H       1  UNL1        0.1437
     28 C           3.7129    0.1549   31.3959 C.ar    1  UNL1        0.0667
     29 C           3.4717    1.5972   31.0618 C.ar    1  UNL1        0.0173
     30 C           2.4011    1.9708   30.0798 C.ar    1  UNL1       -0.0015
     31 C           1.5717    0.9021   29.4319 C.ar    1  UNL1       -0.0097
     32 C           1.8128   -0.5402   29.7659 C.ar    1  UNL1       -0.0015
     33 C           2.8834   -0.9137   30.7479 C.ar    1  UNL1        0.0173
     34 C           0.5011    1.2757   28.4499 C.3     1  UNL1        0.0581
     35 N           0.1436   -0.1721   28.2888 N.3     1  UNL1       -0.3200
     36 C           0.8586    2.7236   28.6109 C.3     1  UNL1        0.0185
     37 C          -0.2120    3.0971   27.6290 C.3     1  UNL1        0.0033
     38 C          -0.5695    1.6493   27.4679 C.3     1  UNL1        0.0185
     39 H           0.7489   -0.7398   28.8819 H       1  UNL1        0.1191
     40 H           0.2679   -0.4467   27.3144 H       1  UNL1        0.1191
@<TRIPOS>BOND
     1    10    11    1
     2    11    12   ar
     3    12    13   ar
     4    13    14   ar
     5    14    15   ar
     6    15     1    1
     7     1     2   ar
     8     2     3   ar
     9     3     4   ar
    10     4     5   ar
    11     5     6   ar
    12     6    19    1
    13    19    20   ar
    14    20    21   ar
    15    21    22   ar
    16    22    23   ar
    17    23    24   ar
    18    24    25    1
    19     6     7   ar
    20     7    28    1
    21    28    29   ar
    22    29    30   ar
    23    30    31   ar
    24    31    34    1
    25    34    35    1
    26    34    36    1
    27    36    37    1
    28    37    38    1
    29    31    32   ar
    30    32    33   ar
    31     7     8   ar
    32     8     9   ar
    33    15    16   ar
    34    16    11   ar
    35     9     1   ar
    36     8     4   ar
    37    24    19   ar
    38    33    28   ar
    39    38    34    1
    40    10    17    1
    41    10    18    1
    42    25    26    1
    43    25    27    1
    44    35    39    1
    45    35    40    1
@<TRIPOS>MOLECULE
*****
 40 45 0 0 0
SMALL
GASTEIGER

@<TRIPOS>ATOM
      1 C           0.9958    1.5917   25.4257 C.ar    1  UNL1        0.0830
      2 C           0.2502    2.6484   24.6659 C.ar    1  UNL1        0.0208
      3 C           0.4884    2.8237   23.1954 C.ar    1  UNL1        0.0238
      4 C           1.4723    1.9423   22.4847 C.ar    1  UNL1        0.1173
      5 N           1.9128    1.8812   21.0521 N.ar    1  UNL1       -0.2248
      6 C           2.9308    0.7867   20.9265 C.ar    1  UNL1        0.1515
      7 N           3.1193    0.1714   22.2815 N.ar    1  UNL1       -0.2754
      8 C           2.2179    0.8856   23.2445 C.ar    1  UNL1        0.1665
      9 N           1.9797    0.7103   24.7150 N.ar    1  UNL1       -0.2264
     10 N          -2.0964    0.1428   29.3422 N.pl3   1  UNL1       -0.3570
     11 C          -0.7885    0.6919   28.8545 C.ar    1  UNL1        0.0416
     12 C           0.2812    1.0657   29.8374 C.ar    1  UNL1        0.0141
     13 C           1.5891    1.6148   29.3498 C.ar    1  UNL1        0.0013
     14 C           1.8273    1.7901   27.8791 C.ar    1  UNL1        0.0016
     15 C           0.7576    1.4164   26.8963 C.ar    1  UNL1        0.0189
     16 C          -0.5503    0.8673   27.3840 C.ar    1  UNL1        0.0156
     17 H          -2.2528    0.0277   30.3073 H       1  UNL1        0.1424
     18 H          -2.7985   -0.1025   28.6971 H       1  UNL1        0.1424
     19 C           3.6364    0.3790   19.6672 C.ar    1  UNL1        0.0657
     20 C           5.1263    0.2055   19.6647 C.ar    1  UNL1        0.0074
     21 C           5.8318   -0.2022   18.4054 C.ar    1  UNL1        0.0209
     22 C           5.0474   -0.4364   17.1485 C.ar    1  UNL1        0.1003
     23 N           3.5575   -0.2629   17.1509 N.ar    1  UNL1       -0.2295
     24 C           2.8520    0.1448   18.4102 C.ar    1  UNL1        0.1282
     25 N           1.3620    0.3183   18.4127 N.pl3   1  UNL1       -0.3425
     26 H           0.8472    0.1646   17.5877 H       1  UNL1        0.1437
     27 H           0.8990    0.5859   19.2392 H       1  UNL1        0.1437
     28 C           4.0465   -0.9596   22.6150 C.ar    1  UNL1        0.0667
     29 C           5.2464   -0.7152   23.4812 C.ar    1  UNL1        0.0173
     30 C           6.1736   -1.8462   23.8147 C.ar    1  UNL1       -0.0015
     31 C           5.9009   -3.2216   23.2820 C.ar    1  UNL1       -0.0097
     32 C           4.7010   -3.4660   22.4157 C.ar    1  UNL1       -0.0015
     33 C           3.7738   -2.3350   22.0822 C.ar    1  UNL1        0.0173
     34 C           6.8281   -4.3525   23.6155 C.3     1  UNL1        0.0581
     35 N           7.0690   -4.5862   22.1535 N.3     1  UNL1       -0.3200
     36 C           6.5872   -4.1189   25.0774 C.3     1  UNL1        0.0185
     37 C           7.5144   -5.2499   25.4109 C.3     1  UNL1        0.0033
     38 C           7.7553   -5.4835   23.9489 C.3     1  UNL1        0.0185
     39 H           6.5291   -3.9140   21.6083 H       1  UNL1        0.1191
     40 H           6.7799   -5.5331   21.9083 H       1  UNL1        0.1191
@<TRIPOS>BOND
     1    10    11    1
     2    11    12   ar
     3    12    13   ar
     4    13    14   ar
     5    14    15   ar
     6    15     1    1
     7     1     2   ar
     8     2     3   ar
     9     3     4   ar
    10     4     5   ar
    11     5     6   ar
    12     6    19    1
    13    19    20   ar
    14    20    21   ar
    15    21    22   ar
    16    22    23   ar
    17    23    24   ar
    18    24    25    1
    19     6     7   ar
    20     7    28    1
    21    28    29   ar
    22    29    30   ar
    23    30    31   ar
    24    31    34    1
    25    34    35    1
    26    34    36    1
    27    36    37    1
    28    37    38    1
    29    31    32   ar
    30    32    33   ar
    31     7     8   ar
    32     8     9   ar
    33    15    16   ar
    34    16    11   ar
    35     9     1   ar
    36     8     4   ar
    37    24    19   ar
    38    33    28   ar
    39    38    34    1
    40    10    17    1
    41    10    18    1
    42    25    26    1
    43    25    27    1
    44    35    39    1
    45    35    40    1
@<TRIPOS>MOLECULE
*****
 40 45 0 0 0
SMALL
GASTEIGER

@<TRIPOS>ATOM
      1 C          -2.7629    3.5956   21.0657 C.ar    1  UNL1        0.0830
      2 C          -3.2409    4.2695   22.3176 C.ar    1  UNL1        0.0208
      3 C          -2.4467    4.1490   23.5844 C.ar    1  UNL1        0.0238
      4 C          -1.1745    3.3545   23.5992 C.ar    1  UNL1        0.1173
      5 N          -0.1875    3.0604   24.6899 N.ar    1  UNL1       -0.2248
      6 C           0.9005    2.2047   24.1120 C.ar    1  UNL1        0.1515
      7 N           0.5860    1.9700   22.6642 N.ar    1  UNL1       -0.2754
      8 C          -0.6964    2.6806   22.3473 C.ar    1  UNL1        0.1665
      9 N          -1.4906    2.8012   21.0806 N.ar    1  UNL1       -0.2264
     10 N          -7.3402    3.5904   18.6065 N.pl3   1  UNL1       -0.3570
     11 C          -5.8457    3.7135   18.5693 C.ar    1  UNL1        0.0416
     12 C          -5.1455    3.9572   17.2653 C.ar    1  UNL1        0.0141
     13 C          -3.6510    4.0803   17.2282 C.ar    1  UNL1        0.0013
     14 C          -2.8568    3.9598   18.4950 C.ar    1  UNL1        0.0016
     15 C          -3.5571    3.7161   19.7989 C.ar    1  UNL1        0.0189
     16 C          -5.0515    3.5930   19.8361 C.ar    1  UNL1        0.0156
     17 H          -7.8615    3.6695   17.7750 H       1  UNL1        0.1424
     18 H          -7.7998    3.4304   19.4623 H       1  UNL1        0.1424
     19 C           2.0936    1.6764   24.8520 C.ar    1  UNL1        0.0657
     20 C           2.4096    0.2105   24.8162 C.ar    1  UNL1        0.0074
     21 C           3.6027   -0.3177   25.5561 C.ar    1  UNL1        0.0209
     22 C           4.4797    0.6199   26.3318 C.ar    1  UNL1        0.1003
     23 N           4.1637    2.0858   26.3676 N.ar    1  UNL1       -0.2295
     24 C           2.9706    2.6140   25.6277 C.ar    1  UNL1        0.1282
     25 N           2.6545    4.0799   25.6634 N.pl3   1  UNL1       -0.3425
     26 H           3.2301    4.6953   26.1725 H       1  UNL1        0.1437
     27 H           1.8714    4.4266   25.1777 H       1  UNL1        0.1437
     28 C           1.4093    1.1658   21.7022 C.ar    1  UNL1        0.0667
     29 C           0.8630   -0.1090   21.1309 C.ar    1  UNL1        0.0173
     30 C           1.6863   -0.9132   20.1689 C.ar    1  UNL1       -0.0015
     31 C           3.0559   -0.4426   19.7782 C.ar    1  UNL1       -0.0097
     32 C           3.6022    0.8322   20.3496 C.ar    1  UNL1       -0.0015
     33 C           2.7789    1.6363   21.3115 C.ar    1  UNL1        0.0173
     34 C           3.8792   -1.2468   18.8162 C.3     1  UNL1        0.0581
     35 N           4.2213    0.0044   18.0630 N.3     1  UNL1       -0.3200
     36 C           3.5372   -2.4981   19.5694 C.3     1  UNL1        0.0185
     37 C           4.3605   -3.3022   18.6075 C.3     1  UNL1        0.0033
     38 C           4.7025   -2.0510   17.8542 C.3     1  UNL1        0.0185
     39 H           3.7710    0.8036   18.5090 H       1  UNL1        0.1191
     40 H           3.8930   -0.0775   17.1008 H       1  UNL1        0.1191
@<TRIPOS>BOND
     1    10    11    1
     2    11    12   ar
     3    12    13   ar
     4    13    14   ar
     5    14    15   ar
     6    15     1    1
     7     1     2   ar
     8     2     3   ar
     9     3     4   ar
    10     4     5   ar
    11     5     6   ar
    12     6    19    1
    13    19    20   ar
    14    20    21   ar
    15    21    22   ar
    16    22    23   ar
    17    23    24   ar
    18    24    25    1
    19     6     7   ar
    20     7    28    1
    21    28    29   ar
    22    29    30   ar
    23    30    31   ar
    24    31    34    1
    25    34    35    1
    26    34    36    1
    27    36    37    1
    28    37    38    1
    29    31    32   ar
    30    32    33   ar
    31     7     8   ar
    32     8     9   ar
    33    15    16   ar
    34    16    11   ar
    35     9     1   ar
    36     8     4   ar
    37    24    19   ar
    38    33    28   ar
    39    38    34    1
    40    10    17    1
    41    10    18    1
    42    25    26    1
    43    25    27    1
    44    35    39    1
    45    35    40    1
