@<TRIPOS>MOLECULE
*****
 29 32 0 0 0
SMALL
GASTEIGER

@<TRIPOS>ATOM
      1 C          -6.8561  -20.2115   20.8816 C.ar    1  UNL1        0.0284
      2 C          -7.2958  -20.3625   22.3077 C.ar    1  UNL1        0.0027
      3 C          -8.5909  -19.7570   22.7614 C.ar    1  UNL1        0.0339
      4 C          -9.4465  -19.0004   21.7890 C.ar    1  UNL1        0.1311
      5 N          -9.0068  -18.8494   20.3628 N.ar    1  UNL1       -0.2035
      6 C          -7.7117  -19.4549   19.9091 C.ar    1  UNL1        0.2196
      7 F          -7.2721  -19.3038   18.4829 F       1  UNL1       -0.1835
      8 N         -10.7417  -18.3949   22.2427 N.pl3   1  UNL1       -0.3144
      9 H         -11.3956  -18.0769   21.5791 H       1  UNL1        0.1485
     10 C         -11.0405  -18.2738   23.7077 C.3     1  UNL1        0.1154
     11 C         -10.1110  -17.5080   24.6019 C.ar    1  UNL1       -0.0025
     12 C          -9.6026  -16.1618   24.1787 C.ar    1  UNL1       -0.0018
     13 C          -8.6731  -15.3960   25.0729 C.ar    1  UNL1        0.0111
     14 C          -8.2521  -15.9764   26.3904 C.ar    1  UNL1        0.0577
     15 CL         -7.3227  -15.2105   27.2846 Cl      1  UNL1       -0.0822
     16 C          -8.7606  -17.3227   26.8136 C.ar    1  UNL1        0.0111
     17 C          -9.6900  -18.0884   25.9194 C.ar    1  UNL1       -0.0018
     18 C          -5.5610  -20.8170   20.4278 C.3     1  UNL1        0.0603
     19 C          -3.8249  -17.1731   23.1526 C.2     1  UNL1        0.1673
     20 C          -2.5676  -16.5760   22.5935 C.2     1  UNL1        0.2683
     21 N          -1.9828  -17.1144   21.3214 N.2     1  UNL1       -0.0278
     22 C          -2.6554  -18.2498   20.6084 C.2     1  UNL1        0.3719
     23 N          -2.3151  -18.9844   19.3457 N.2     1  UNL1       -0.0311
     24 C          -3.3621  -20.0355   19.1243 C.2     1  UNL1        0.2319
     25 C          -4.3495  -19.9505   20.2502 C.2     1  UNL1        0.0329
     26 C          -3.9127  -18.8469   21.1675 C.2     1  UNL1        0.0739
     27 C          -4.4974  -18.3085   22.4396 C.3     1  UNL1        0.1019
     28 C          -5.1884  -15.3529   24.4086 C.3     1  UNL1        0.2522
     29 O          -4.4097  -16.6347   24.4247 O.2     1  UNL1       -0.4715
@<TRIPOS>BOND
     1    28    29    1
     2    29    19    1
     3    19    20    2
     4    20    21    1
     5    21    22    2
     6    22    23    1
     7    23    24    2
     8    24    25    1
     9    25    18    1
    10    18     1    1
    11     1     2   ar
    12     2     3   ar
    13     3     4   ar
    14     4     8    1
    15     8    10    1
    16    10    11    1
    17    11    12   ar
    18    12    13   ar
    19    13    14   ar
    20    14    15    1
    21    14    16   ar
    22    16    17   ar
    23     4     5   ar
    24     5     6   ar
    25     6     7    1
    26    25    26    2
    27    26    27    1
    28    27    19    1
    29    26    22    1
    30     6     1   ar
    31    17    11   ar
    32     8     9    1
@<TRIPOS>MOLECULE
*****
 29 32 0 0 0
SMALL
GASTEIGER

@<TRIPOS>ATOM
      1 C         -10.1336  -17.8110   24.4343 C.ar    1  UNL1        0.0284
      2 C          -9.6362  -18.2494   25.7798 C.ar    1  UNL1        0.0027
      3 C          -8.8460  -17.3016   26.6326 C.ar    1  UNL1        0.0339
      4 C          -8.5532  -15.9154   26.1400 C.ar    1  UNL1        0.1311
      5 N          -9.0507  -15.4770   24.7944 N.ar    1  UNL1       -0.2035
      6 C          -9.8409  -16.4248   23.9416 C.ar    1  UNL1        0.2196
      7 F         -10.3382  -15.9863   22.5961 F       1  UNL1       -0.1835
      8 N          -7.7630  -14.9677   26.9928 N.pl3   1  UNL1       -0.3144
      9 H          -8.2227  -14.2539   27.4914 H       1  UNL1        0.1485
     10 C          -6.2724  -15.1074   27.0861 C.3     1  UNL1        0.1154
     11 C          -5.4988  -15.6751   25.9332 C.ar    1  UNL1       -0.0025
     12 C          -4.6644  -16.9069   26.1239 C.ar    1  UNL1       -0.0018
     13 C          -3.8908  -17.4747   24.9710 C.ar    1  UNL1        0.0111
     14 C          -3.9515  -16.8106   23.6274 C.ar    1  UNL1        0.0577
     15 CL         -3.1778  -17.3783   22.4745 Cl      1  UNL1       -0.0822
     16 C          -4.7859  -15.5787   23.4367 C.ar    1  UNL1        0.0111
     17 C          -5.5595  -15.0110   24.5896 C.ar    1  UNL1       -0.0018
     18 C         -10.9238  -18.7587   23.5815 C.3     1  UNL1        0.0603
     19 C          -6.8271  -19.6382   21.0996 C.2     1  UNL1        0.1673
     20 C          -7.0304  -19.6155   19.6136 C.2     1  UNL1        0.2683
     21 N          -8.3920  -19.3413   19.0470 N.2     1  UNL1       -0.0278
     22 C          -9.5502  -19.0899   19.9664 C.2     1  UNL1        0.3719
     23 N         -10.9966  -18.7942   19.7009 N.2     1  UNL1       -0.0311
     24 C         -11.6872  -18.6342   21.0228 C.2     1  UNL1        0.2319
     25 C         -10.6677  -18.8309   22.1053 C.2     1  UNL1        0.0329
     26 C          -9.3469  -19.1126   21.4523 C.2     1  UNL1        0.0739
     27 C          -7.9853  -19.3867   22.0189 C.3     1  UNL1        0.1019
     28 C          -4.3123  -20.1873   20.7473 C.3     1  UNL1        0.2522
     29 O          -5.4656  -19.9124   21.6662 O.2     1  UNL1       -0.4715
@<TRIPOS>BOND
     1    28    29    1
     2    29    19    1
     3    19    20    2
     4    20    21    1
     5    21    22    2
     6    22    23    1
     7    23    24    2
     8    24    25    1
     9    25    18    1
    10    18     1    1
    11     1     2   ar
    12     2     3   ar
    13     3     4   ar
    14     4     8    1
    15     8    10    1
    16    10    11    1
    17    11    12   ar
    18    12    13   ar
    19    13    14   ar
    20    14    15    1
    21    14    16   ar
    22    16    17   ar
    23     4     5   ar
    24     5     6   ar
    25     6     7    1
    26    25    26    2
    27    26    27    1
    28    27    19    1
    29    26    22    1
    30     6     1   ar
    31    17    11   ar
    32     8     9    1
@<TRIPOS>MOLECULE
*****
 29 32 0 0 0
SMALL
GASTEIGER

@<TRIPOS>ATOM
      1 C         -11.4763   -4.1314   18.8565 C.ar    1  UNL1        0.0284
      2 C         -12.7200   -4.4190   19.6441 C.ar    1  UNL1        0.0027
      3 C         -13.3072   -5.7993   19.6413 C.ar    1  UNL1        0.0339
      4 C         -12.6507   -6.8920   18.8508 C.ar    1  UNL1        0.1311
      5 N         -11.4069   -6.6044   18.0631 N.ar    1  UNL1       -0.2035
      6 C         -10.8197   -5.2241   18.0659 C.ar    1  UNL1        0.2196
      7 F          -9.5760   -4.9366   17.2783 F       1  UNL1       -0.1835
      8 N         -13.2380   -8.2723   18.8479 N.pl3   1  UNL1       -0.3144
      9 H         -12.8587   -8.9698   19.4300 H       1  UNL1        0.1485
     10 C         -14.4031   -8.5898   17.9582 C.3     1  UNL1        0.1154
     11 C         -15.7748   -8.7440   18.5452 C.ar    1  UNL1       -0.0025
     12 C         -16.3362   -7.6722   19.4318 C.ar    1  UNL1       -0.0018
     13 C         -17.7079   -7.8265   20.0188 C.ar    1  UNL1        0.0111
     14 C         -18.5183   -9.0526   19.7192 C.ar    1  UNL1        0.0577
     15 CL        -19.8901   -9.2069   20.3062 Cl      1  UNL1       -0.0822
     16 C         -17.9570  -10.1245   18.8325 C.ar    1  UNL1        0.0111
     17 C         -16.5853   -9.9702   18.2456 C.ar    1  UNL1       -0.0018
     18 C         -10.8891   -2.7512   18.8593 C.3     1  UNL1        0.0603
     19 C         -15.1512   -0.3974   18.9622 C.2     1  UNL1        0.1673
     20 C         -15.2971    0.5918   17.8440 C.2     1  UNL1        0.2683
     21 N         -14.1896    0.7659   16.8474 N.2     1  UNL1       -0.0278
     22 C         -12.9363   -0.0492   16.9689 C.2     1  UNL1        0.3719
     23 N         -11.6851   -0.0955   16.1429 N.2     1  UNL1       -0.0311
     24 C         -10.7659   -1.1133   16.7505 C.2     1  UNL1        0.2319
     25 C         -11.4490   -1.6960   17.9521 C.2     1  UNL1        0.0329
     26 C         -12.7904   -1.0383   18.0870 C.2     1  UNL1        0.0739
     27 C         -13.8978   -1.2125   19.0836 C.3     1  UNL1        0.1019
     28 C         -16.9449    0.6313   20.5352 C.3     1  UNL1        0.2522
     29 O         -16.2586   -0.5715   19.9588 O.2     1  UNL1       -0.4715
@<TRIPOS>BOND
     1    28    29    1
     2    29    19    1
     3    19    20    2
     4    20    21    1
     5    21    22    2
     6    22    23    1
     7    23    24    2
     8    24    25    1
     9    25    18    1
    10    18     1    1
    11     1     2   ar
    12     2     3   ar
    13     3     4   ar
    14     4     8    1
    15     8    10    1
    16    10    11    1
    17    11    12   ar
    18    12    13   ar
    19    13    14   ar
    20    14    15    1
    21    14    16   ar
    22    16    17   ar
    23     4     5   ar
    24     5     6   ar
    25     6     7    1
    26    25    26    2
    27    26    27    1
    28    27    19    1
    29    26    22    1
    30     6     1   ar
    31    17    11   ar
    32     8     9    1
@<TRIPOS>MOLECULE
*****
 29 32 0 0 0
SMALL
GASTEIGER

@<TRIPOS>ATOM
      1 C           1.5788    0.9261   18.7498 C.ar    1  UNL1        0.0284
      2 C           1.1816    2.3435   18.4617 C.ar    1  UNL1        0.0027
      3 C           0.0698    2.9837   19.2388 C.ar    1  UNL1        0.0339
      4 C          -0.6449    2.2064   20.3042 C.ar    1  UNL1        0.1311
      5 N          -0.2477    0.7888   20.5923 N.ar    1  UNL1       -0.2035
      6 C           0.8642    0.1487   19.8151 C.ar    1  UNL1        0.2196
      7 F           1.2613   -1.2688   20.1033 F       1  UNL1       -0.1835
      8 N          -1.7568    2.8465   21.0814 N.pl3   1  UNL1       -0.3144
      9 H          -1.6472    3.0216   22.0439 H       1  UNL1        0.1485
     10 C          -3.0355    3.2198   20.3919 C.3     1  UNL1        0.1154
     11 C          -4.2573    3.5416   21.2005 C.ar    1  UNL1       -0.0025
     12 C          -5.4673    4.1236   20.5320 C.ar    1  UNL1       -0.0018
     13 C          -6.6891    4.4453   21.3406 C.ar    1  UNL1        0.0111
     14 C          -6.7007    4.1852   22.8178 C.ar    1  UNL1        0.0577
     15 CL         -7.9225    4.5069   23.6264 Cl      1  UNL1       -0.0822
     16 C          -5.4906    3.6032   23.4864 C.ar    1  UNL1        0.0111
     17 C          -4.2689    3.2814   22.6777 C.ar    1  UNL1       -0.0018
     18 C           2.6907    0.2860   17.9726 C.3     1  UNL1        0.0603
     19 C           5.3305   -3.4872   19.5570 C.2     1  UNL1        0.1673
     20 C           6.6835   -3.0804   20.0610 C.2     1  UNL1        0.2683
     21 N           7.0893   -1.6366   20.0382 N.2     1  UNL1       -0.0278
     22 C           6.1422   -0.5995   19.5115 C.2     1  UNL1        0.3719
     23 N           6.2631    0.8885   19.3654 N.2     1  UNL1       -0.0311
     24 C           4.9848    1.4013   18.7712 C.2     1  UNL1        0.2319
     25 C           4.0740    0.2303   18.5500 C.2     1  UNL1        0.0329
     26 C           4.7893   -1.0063   19.0075 C.2     1  UNL1        0.0739
     27 C           4.3835   -2.4502   19.0303 C.3     1  UNL1        0.1019
     28 C           3.4757   -5.3012   19.6957 C.3     1  UNL1        0.2522
     29 O           4.9247   -4.9311   19.5798 O.2     1  UNL1       -0.4715
@<TRIPOS>BOND
     1    28    29    1
     2    29    19    1
     3    19    20    2
     4    20    21    1
     5    21    22    2
     6    22    23    1
     7    23    24    2
     8    24    25    1
     9    25    18    1
    10    18     1    1
    11     1     2   ar
    12     2     3   ar
    13     3     4   ar
    14     4     8    1
    15     8    10    1
    16    10    11    1
    17    11    12   ar
    18    12    13   ar
    19    13    14   ar
    20    14    15    1
    21    14    16   ar
    22    16    17   ar
    23     4     5   ar
    24     5     6   ar
    25     6     7    1
    26    25    26    2
    27    26    27    1
    28    27    19    1
    29    26    22    1
    30     6     1   ar
    31    17    11   ar
    32     8     9    1
@<TRIPOS>MOLECULE
*****
 29 32 0 0 0
SMALL
GASTEIGER

@<TRIPOS>ATOM
      1 C           5.2277   -3.6507   21.7586 C.ar    1  UNL1        0.0284
      2 C           4.6209   -3.1302   23.0278 C.ar    1  UNL1        0.0027
      3 C           5.4862   -2.8888   24.2290 C.ar    1  UNL1        0.0339
      4 C           6.9585   -3.1679   24.1610 C.ar    1  UNL1        0.1311
      5 N           7.5653   -3.6884   22.8918 N.ar    1  UNL1       -0.2035
      6 C           6.6999   -3.9298   21.6906 C.ar    1  UNL1        0.2196
      7 F           7.3068   -4.4503   20.4215 F       1  UNL1       -0.1835
      8 N           7.8238   -2.9264   25.3622 N.pl3   1  UNL1       -0.3144
      9 H           7.6264   -2.1761   25.9683 H       1  UNL1        0.1485
     10 C           8.9898   -3.8282   25.6400 C.3     1  UNL1        0.1154
     11 C           8.7562   -5.2294   26.1216 C.ar    1  UNL1       -0.0025
     12 C           8.8016   -5.5354   27.5893 C.ar    1  UNL1       -0.0018
     13 C           8.5680   -6.9366   28.0710 C.ar    1  UNL1        0.0111
     14 C           8.2890   -8.0320   27.0849 C.ar    1  UNL1        0.0577
     15 CL          8.0554   -9.4332   27.5665 Cl      1  UNL1       -0.0822
     16 C           8.2437   -7.7259   25.6170 C.ar    1  UNL1        0.0111
     17 C           8.4773   -6.3248   25.1355 C.ar    1  UNL1       -0.0018
     18 C           4.3623   -3.8921   20.5574 C.3     1  UNL1        0.0603
     19 C           1.3486   -0.1452   19.7862 C.2     1  UNL1        0.1673
     20 C           1.6731    0.6147   18.5343 C.2     1  UNL1        0.2683
     21 N           2.8259    0.1873   17.6750 N.2     1  UNL1       -0.0278
     22 C           3.6542   -1.0000   18.0676 C.2     1  UNL1        0.3719
     23 N           4.8424   -1.6517   17.4245 N.2     1  UNL1       -0.0311
     24 C           5.2522   -2.8145   18.2789 C.2     1  UNL1        0.2319
     25 C           4.3174   -2.8813   19.4501 C.2     1  UNL1        0.0329
     26 C           3.3298   -1.7599   19.3194 C.2     1  UNL1        0.0739
     27 C           2.1770   -1.3325   20.1787 C.3     1  UNL1        0.1019
     28 C           0.4414    1.1070   21.8739 C.3     1  UNL1        0.2522
     29 O           0.1958    0.2821   20.6455 O.2     1  UNL1       -0.4715
@<TRIPOS>BOND
     1    28    29    1
     2    29    19    1
     3    19    20    2
     4    20    21    1
     5    21    22    2
     6    22    23    1
     7    23    24    2
     8    24    25    1
     9    25    18    1
    10    18     1    1
    11     1     2   ar
    12     2     3   ar
    13     3     4   ar
    14     4     8    1
    15     8    10    1
    16    10    11    1
    17    11    12   ar
    18    12    13   ar
    19    13    14   ar
    20    14    15    1
    21    14    16   ar
    22    16    17   ar
    23     4     5   ar
    24     5     6   ar
    25     6     7    1
    26    25    26    2
    27    26    27    1
    28    27    19    1
    29    26    22    1
    30     6     1   ar
    31    17    11   ar
    32     8     9    1
@<TRIPOS>MOLECULE
*****
 29 32 0 0 0
SMALL
GASTEIGER

@<TRIPOS>ATOM
      1 C           6.7325   -3.2234   21.3825 C.ar    1  UNL1        0.0284
      2 C           7.3229   -2.7842   20.0754 C.ar    1  UNL1        0.0027
      3 C           6.4281   -2.5058   18.9041 C.ar    1  UNL1        0.0339
      4 C           4.9429   -2.6666   19.0399 C.ar    1  UNL1        0.1311
      5 N           4.3526   -3.1058   20.3471 N.ar    1  UNL1       -0.2035
      6 C           5.2473   -3.3842   21.5184 C.ar    1  UNL1        0.2196
      7 F           4.6569   -3.8234   22.8255 F       1  UNL1       -0.1835
      8 N           4.0482   -2.3882   17.8686 N.pl3   1  UNL1       -0.3144
      9 H           3.3995   -3.0669   17.5725 H       1  UNL1        0.1485
     10 C           4.1418   -1.0756   17.1487 C.3     1  UNL1        0.1154
     11 C           3.6871    0.1843   17.8239 C.ar    1  UNL1       -0.0025
     12 C           2.2500    0.3451   18.2222 C.ar    1  UNL1       -0.0018
     13 C           1.7953    1.6050   18.8974 C.ar    1  UNL1        0.0111
     14 C           2.7778    2.7042   19.1743 C.ar    1  UNL1        0.0577
     15 CL          2.3231    3.9640   19.8495 Cl      1  UNL1       -0.0822
     16 C           4.2150    2.5433   18.7759 C.ar    1  UNL1        0.0111
     17 C           4.6696    1.2834   18.1007 C.ar    1  UNL1       -0.0018
     18 C           7.6273   -3.5018   22.5538 C.3     1  UNL1        0.0603
     19 C           6.7277   -5.9970   26.6380 C.2     1  UNL1        0.1673
     20 C           7.2359   -7.4072   26.5825 C.2     1  UNL1        0.2683
     21 N           7.9358   -7.9044   25.3525 N.2     1  UNL1       -0.0278
     22 C           8.1274   -6.9914   24.1779 C.2     1  UNL1        0.3719
     23 N           8.7739   -7.1989   22.8404 N.2     1  UNL1       -0.0311
     24 C           8.6653   -5.9169   22.0692 C.2     1  UNL1        0.2319
     25 C           7.9516   -4.9171   22.9300 C.2     1  UNL1        0.0329
     26 C           7.6192   -5.5813   24.2333 C.2     1  UNL1        0.0739
     27 C           6.9193   -5.0841   25.4634 C.3     1  UNL1        0.1019
     28 C           6.7651   -5.4261   29.1723 C.3     1  UNL1        0.2522
     29 O           6.0279   -5.4998   27.8680 O.2     1  UNL1       -0.4715
@<TRIPOS>BOND
     1    28    29    1
     2    29    19    1
     3    19    20    2
     4    20    21    1
     5    21    22    2
     6    22    23    1
     7    23    24    2
     8    24    25    1
     9    25    18    1
    10    18     1    1
    11     1     2   ar
    12     2     3   ar
    13     3     4   ar
    14     4     8    1
    15     8    10    1
    16    10    11    1
    17    11    12   ar
    18    12    13   ar
    19    13    14   ar
    20    14    15    1
    21    14    16   ar
    22    16    17   ar
    23     4     5   ar
    24     5     6   ar
    25     6     7    1
    26    25    26    2
    27    26    27    1
    28    27    19    1
    29    26    22    1
    30     6     1   ar
    31    17    11   ar
    32     8     9    1
@<TRIPOS>MOLECULE
*****
 29 32 0 0 0
SMALL
GASTEIGER

@<TRIPOS>ATOM
      1 C           5.2391   -3.6512   21.7841 C.ar    1  UNL1        0.0284
      2 C           4.6210   -3.1408   23.0520 C.ar    1  UNL1        0.0027
      3 C           5.4738   -2.9192   24.2659 C.ar    1  UNL1        0.0339
      4 C           6.9448   -3.2080   24.2120 C.ar    1  UNL1        0.1311
      5 N           7.5629   -3.7184   22.9441 N.ar    1  UNL1       -0.2035
      6 C           6.7101   -3.9400   21.7302 C.ar    1  UNL1        0.2196
      7 F           7.3282   -4.4504   20.4623 F       1  UNL1       -0.1835
      8 N           7.7975   -2.9865   25.4259 N.pl3   1  UNL1       -0.3144
      9 H           8.1474   -2.0879   25.6244 H       1  UNL1        0.1485
     10 C           8.1172   -4.1340   26.3375 C.3     1  UNL1        0.1154
     11 C           7.7151   -4.0792   27.7816 C.ar    1  UNL1       -0.0025
     12 C           7.4076   -5.3462   28.5231 C.ar    1  UNL1       -0.0018
     13 C           7.0055   -5.2914   29.9672 C.ar    1  UNL1        0.0111
     14 C           6.9108   -3.9695   30.6697 C.ar    1  UNL1        0.0577
     15 CL          6.5087   -3.9147   32.1138 Cl      1  UNL1       -0.0822
     16 C           7.2184   -2.7024   29.9281 C.ar    1  UNL1        0.0111
     17 C           7.6205   -2.7572   28.4841 C.ar    1  UNL1       -0.0018
     18 C           4.3863   -3.8728   20.5702 C.3     1  UNL1        0.0603
     19 C           1.3254   -0.1790   19.7316 C.2     1  UNL1        0.1673
     20 C           1.6802    0.6033   18.5019 C.2     1  UNL1        0.2683
     21 N           2.8729    0.2107   17.6813 N.2     1  UNL1       -0.0278
     22 C           3.7108   -0.9642   18.0904 C.2     1  UNL1        0.3719
     23 N           4.9354   -1.5832   17.4845 N.2     1  UNL1       -0.0311
     24 C           5.3375   -2.7481   18.3396 C.2     1  UNL1        0.2319
     25 C           4.3614   -2.8491   19.4741 C.2     1  UNL1        0.0329
     26 C           3.3560   -1.7465   19.3200 C.2     1  UNL1        0.0739
     27 C           2.1634   -1.3539   20.1406 C.3     1  UNL1        0.1019
     28 C           0.1673    1.4688   21.3728 C.3     1  UNL1        0.2522
     29 O           0.1328    0.2137   20.5522 O.2     1  UNL1       -0.4715
@<TRIPOS>BOND
     1    28    29    1
     2    29    19    1
     3    19    20    2
     4    20    21    1
     5    21    22    2
     6    22    23    1
     7    23    24    2
     8    24    25    1
     9    25    18    1
    10    18     1    1
    11     1     2   ar
    12     2     3   ar
    13     3     4   ar
    14     4     8    1
    15     8    10    1
    16    10    11    1
    17    11    12   ar
    18    12    13   ar
    19    13    14   ar
    20    14    15    1
    21    14    16   ar
    22    16    17   ar
    23     4     5   ar
    24     5     6   ar
    25     6     7    1
    26    25    26    2
    27    26    27    1
    28    27    19    1
    29    26    22    1
    30     6     1   ar
    31    17    11   ar
    32     8     9    1
@<TRIPOS>MOLECULE
*****
 29 32 0 0 0
SMALL
GASTEIGER

@<TRIPOS>ATOM
      1 C           3.1920   -1.1365   21.8349 C.ar    1  UNL1        0.0284
      2 C           2.8458    0.2593   22.2612 C.ar    1  UNL1        0.0027
      3 C           3.2006    0.7323   23.6398 C.ar    1  UNL1        0.0339
      4 C           3.9016   -0.1906   24.5921 C.ar    1  UNL1        0.1311
      5 N           4.2478   -1.5865   24.1657 N.ar    1  UNL1       -0.2035
      6 C           3.8930   -2.0595   22.7871 C.ar    1  UNL1        0.2196
      7 F           4.2393   -3.4553   22.3608 F       1  UNL1       -0.1835
      8 N           4.2563    0.2823   25.9707 N.pl3   1  UNL1       -0.3144
      9 H           5.0361   -0.0980   26.4360 H       1  UNL1        0.1485
     10 C           3.4230    1.3345   26.6402 C.3     1  UNL1        0.1154
     11 C           2.1099    0.9663   27.2648 C.ar    1  UNL1       -0.0025
     12 C           0.8264    1.4213   26.6360 C.ar    1  UNL1       -0.0018
     13 C          -0.4867    1.0530   27.2606 C.ar    1  UNL1        0.0111
     14 C          -0.5163    0.2297   28.5141 C.ar    1  UNL1        0.0577
     15 CL         -1.8294   -0.1386   29.1388 Cl      1  UNL1       -0.0822
     16 C           0.7673   -0.2254   29.1430 C.ar    1  UNL1        0.0111
     17 C           2.0803    0.1429   28.5183 C.ar    1  UNL1       -0.0018
     18 C           2.8372   -1.6094   20.4563 C.3     1  UNL1        0.0603
     19 C           5.6866    1.5728   18.1173 C.2     1  UNL1        0.1673
     20 C           6.6421    0.9112   17.1690 C.2     1  UNL1        0.2683
     21 N           6.6436   -0.5820   17.0260 N.2     1  UNL1       -0.0278
     22 C           5.6897   -1.4135   17.8313 C.2     1  UNL1        0.3719
     23 N           5.4620   -2.8944   17.9019 N.2     1  UNL1       -0.0311
     24 C           4.3657   -3.1481   18.8939 C.2     1  UNL1        0.2319
     25 C           3.9159   -1.8239   19.4363 C.2     1  UNL1        0.0329
     26 C           4.7342   -0.7519   18.7795 C.2     1  UNL1        0.0739
     27 C           4.7327    0.7413   18.9225 C.3     1  UNL1        0.1019
     28 C           5.4749    3.9346   17.0556 C.3     1  UNL1        0.2522
     29 O           5.6850    3.0660   18.2603 O.2     1  UNL1       -0.4715
@<TRIPOS>BOND
     1    28    29    1
     2    29    19    1
     3    19    20    2
     4    20    21    1
     5    21    22    2
     6    22    23    1
     7    23    24    2
     8    24    25    1
     9    25    18    1
    10    18     1    1
    11     1     2   ar
    12     2     3   ar
    13     3     4   ar
    14     4     8    1
    15     8    10    1
    16    10    11    1
    17    11    12   ar
    18    12    13   ar
    19    13    14   ar
    20    14    15    1
    21    14    16   ar
    22    16    17   ar
    23     4     5   ar
    24     5     6   ar
    25     6     7    1
    26    25    26    2
    27    26    27    1
    28    27    19    1
    29    26    22    1
    30     6     1   ar
    31    17    11   ar
    32     8     9    1
@<TRIPOS>MOLECULE
*****
 29 32 0 0 0
SMALL
GASTEIGER

@<TRIPOS>ATOM
      1 C           2.5962   -0.1885   21.6730 C.ar    1  UNL1        0.0284
      2 C           3.0401   -0.9772   22.8692 C.ar    1  UNL1        0.0027
      3 C           3.3744   -0.2725   24.1504 C.ar    1  UNL1        0.0339
      4 C           3.2648    1.2211   24.2355 C.ar    1  UNL1        0.1311
      5 N           2.8209    2.0099   23.0393 N.ar    1  UNL1       -0.2035
      6 C           2.4866    1.3051   21.7580 C.ar    1  UNL1        0.2196
      7 F           2.0427    2.0939   20.5619 F       1  UNL1       -0.1835
      8 N           3.5991    1.9259   25.5167 N.pl3   1  UNL1       -0.3144
      9 H           4.5163    1.8912   25.8728 H       1  UNL1        0.1485
     10 C           2.5359    2.6834   26.2555 C.3     1  UNL1        0.1154
     11 C           1.4560    1.9410   26.9853 C.ar    1  UNL1       -0.0025
     12 C           0.0220    2.3482   26.8191 C.ar    1  UNL1       -0.0018
     13 C          -1.0579    1.6059   27.5490 C.ar    1  UNL1        0.0111
     14 C          -0.7038    0.4562   28.4450 C.ar    1  UNL1        0.0577
     15 CL         -1.7837   -0.2862   29.1748 Cl      1  UNL1       -0.0822
     16 C           0.7303    0.0490   28.6112 C.ar    1  UNL1        0.0111
     17 C           1.8101    0.7914   27.8813 C.ar    1  UNL1       -0.0018
     18 C           2.2619   -0.8932   20.3918 C.3     1  UNL1        0.0603
     19 C           6.7365   -2.7014   19.7398 C.2     1  UNL1        0.1673
     20 C           7.3103   -2.3645   18.3955 C.2     1  UNL1        0.2683
     21 N           6.5115   -1.5499   17.4217 N.2     1  UNL1       -0.0278
     22 C           5.1388   -1.0721   17.7923 C.2     1  UNL1        0.3719
     23 N           4.1237   -0.2584   17.0457 N.2     1  UNL1       -0.0311
     24 C           2.9224   -0.0923   17.9286 C.2     1  UNL1        0.2319
     25 C           3.1951   -0.8034   19.2209 C.2     1  UNL1        0.0329
     26 C           4.5649   -1.4090   19.1366 C.2     1  UNL1        0.0739
     27 C           5.3638   -2.2236   20.1103 C.3     1  UNL1        0.1019
     28 C           6.9554   -3.8661   22.0518 C.3     1  UNL1        0.2522
     29 O           7.5354   -3.5160   20.7135 O.2     1  UNL1       -0.4715
@<TRIPOS>BOND
     1    28    29    1
     2    29    19    1
     3    19    20    2
     4    20    21    1
     5    21    22    2
     6    22    23    1
     7    23    24    2
     8    24    25    1
     9    25    18    1
    10    18     1    1
    11     1     2   ar
    12     2     3   ar
    13     3     4   ar
    14     4     8    1
    15     8    10    1
    16    10    11    1
    17    11    12   ar
    18    12    13   ar
    19    13    14   ar
    20    14    15    1
    21    14    16   ar
    22    16    17   ar
    23     4     5   ar
    24     5     6   ar
    25     6     7    1
    26    25    26    2
    27    26    27    1
    28    27    19    1
    29    26    22    1
    30     6     1   ar
    31    17    11   ar
    32     8     9    1
