@<TRIPOS>MOLECULE
*****
 39 42 0 0 0
SMALL
GASTEIGER

@<TRIPOS>ATOM
      1 C           6.4886   -2.8032   25.8936 C.2     1  UNL1        0.2486
      2 O           6.8862   -1.4301   25.4393 O.2     1  UNL1       -0.2726
      3 N           5.7803   -3.7296   24.9500 N.am    1  UNL1       -0.2823
      4 H           5.5193   -4.6308   25.2482 H       1  UNL1        0.1549
      5 O           9.5132   -6.2088   27.2682 O.2     1  UNL1       -0.2649
      6 C           8.5871   -5.1572   26.7331 C.2     1  UNL1        0.3037
      7 N           7.7638   -4.3320   27.6773 N.am    1  UNL1       -0.2582
      8 C           7.7606   -4.4439   29.1731 C.3     1  UNL1        0.1211
      9 C           6.7941   -3.4311   29.7117 C.ar    1  UNL1       -0.0030
     10 C           6.3782   -3.0855   31.1108 C.ar    1  UNL1        0.0155
     11 C           5.3682   -2.0020   31.3469 C.ar    1  UNL1        0.1054
     12 C           4.7741   -1.2641   30.1839 C.ar    1  UNL1        0.0181
     13 C           5.1899   -1.6097   28.7848 C.ar    1  UNL1       -0.0011
     14 C           6.1999   -2.6932   28.5487 C.ar    1  UNL1        0.0023
     15 C           6.7993   -3.2500   27.2914 C.3     1  UNL1        0.1754
     16 S           4.9523   -1.6563   32.7461 S.O2    1  UNL1        0.0086
     17 O           6.3479   -1.9229   33.2268 O.2     1  UNL1       -0.1686
     18 O           3.5567   -1.3896   32.2653 O.2     1  UNL1       -0.1686
     19 C           4.5364   -1.3106   34.1451 C.3     1  UNL1        0.1559
     20 C           5.3940   -0.4074   34.9811 C.3     1  UNL1        0.0240
     21 C           6.0706    0.9151   35.1890 C.3     1  UNL1        0.0018
     22 C           6.2029   -0.1655   36.2209 C.3     1  UNL1        0.0018
     23 C           5.4696   -3.2828   23.5522 C.ar    1  UNL1        0.0503
     24 C           6.2881   -3.7915   22.4028 C.ar    1  UNL1        0.0144
     25 C           5.9774   -3.3447   21.0050 C.ar    1  UNL1       -0.0002
     26 C           4.8482   -2.3891   20.7567 C.ar    1  UNL1        0.0182
     27 C           4.0297   -1.8803   21.9061 C.ar    1  UNL1       -0.0002
     28 C           4.3404   -2.3272   23.3039 C.ar    1  UNL1        0.0144
     29 C           4.5375   -1.9422   19.3589 C.3     1  UNL1        0.2827
     30 O           5.2447   -0.6447   19.6164 O.3     1  UNL1       -0.3692
     31 H           5.2077   -0.0927   18.8197 H       1  UNL1        0.2112
     32 C           4.2267   -1.4954   17.9611 C.3     1  UNL1        0.4311
     33 F           3.9159   -1.0487   16.5634 F       1  UNL1       -0.1669
     34 F           3.3547   -1.3878   18.0735 F       1  UNL1       -0.1669
     35 F           5.6763   -1.6242   17.5977 F       1  UNL1       -0.1669
     36 C           3.8302   -3.2397   19.1014 C.3     1  UNL1        0.4311
     37 F           3.1229   -4.5372   18.8440 F       1  UNL1       -0.1669
     38 F           3.1023   -3.0614   19.5736 F       1  UNL1       -0.1669
     39 F           4.7798   -4.0035   18.2269 F       1  UNL1       -0.1669
@<TRIPOS>BOND
     1     5     6    2
     2     6     7   am
     3     7     8    1
     4     8     9    1
     5     9    10   ar
     6    10    11   ar
     7    11    16    1
     8    16    17    2
     9    16    18    2
    10    16    19    1
    11    19    20    1
    12    20    21    1
    13    21    22    1
    14    11    12   ar
    15    12    13   ar
    16    13    14   ar
    17    14    15    1
    18    15     1    1
    19     1     2    2
    20     1     3   am
    21     3    23    1
    22    23    24   ar
    23    24    25   ar
    24    25    26   ar
    25    26    29    1
    26    29    30    1
    27    29    32    1
    28    32    33    1
    29    32    34    1
    30    32    35    1
    31    29    36    1
    32    36    37    1
    33    36    38    1
    34    36    39    1
    35    26    27   ar
    36    27    28   ar
    37    15     7    1
    38    28    23   ar
    39    14     9   ar
    40    22    20    1
    41     3     4    1
    42    30    31    1
@<TRIPOS>MOLECULE
*****
 39 42 0 0 0
SMALL
GASTEIGER

@<TRIPOS>ATOM
      1 C          -0.9228    3.6544   20.6174 C.2     1  UNL1        0.2486
      2 O          -0.8302    3.5406   22.1101 O.2     1  UNL1       -0.2726
      3 N          -2.2302    4.0064   19.9717 N.am    1  UNL1       -0.2823
      4 H          -2.2910    4.0811   18.9919 H       1  UNL1        0.1549
      5 O           1.3521    6.7683   17.8309 O.2     1  UNL1       -0.2649
      6 C           0.5664    5.8655   18.7351 C.2     1  UNL1        0.3037
      7 N           0.9765    4.4327   18.9051 N.am    1  UNL1       -0.2582
      8 C           2.1431    3.7647   18.2397 C.3     1  UNL1        0.1211
      9 C           2.1796    2.3355   18.6937 C.ar    1  UNL1       -0.0030
     10 C           3.1068    1.2023   18.3679 C.ar    1  UNL1        0.0155
     11 C           2.8899   -0.1461   18.9881 C.ar    1  UNL1        0.1054
     12 C           1.7459   -0.3614   19.9340 C.ar    1  UNL1        0.0181
     13 C           0.8187    0.7718   20.2598 C.ar    1  UNL1       -0.0011
     14 C           1.0356    2.1202   19.6396 C.ar    1  UNL1        0.0023
     15 C           0.2920    3.4164   19.7702 C.3     1  UNL1        0.1754
     16 S           3.8171   -1.2794   18.6623 S.O2    1  UNL1        0.0086
     17 O           4.0362   -1.5211   20.1264 O.2     1  UNL1       -0.1686
     18 O           3.5981   -1.0377   17.1982 O.2     1  UNL1       -0.1686
     19 C           4.7443   -2.4126   18.3365 C.3     1  UNL1        0.1559
     20 C           4.3776   -3.8157   18.7201 C.3     1  UNL1        0.0240
     21 C           3.4451   -4.7756   19.3975 C.3     1  UNL1        0.0018
     22 C           4.6751   -5.2858   18.7071 C.3     1  UNL1        0.0018
     23 C          -3.4450    4.2444   20.8188 C.ar    1  UNL1        0.0503
     24 C          -3.9146    5.6449   21.0799 C.ar    1  UNL1        0.0144
     25 C          -5.1294    5.8829   21.9270 C.ar    1  UNL1       -0.0002
     26 C          -5.8745    4.7204   22.5130 C.ar    1  UNL1        0.0182
     27 C          -5.4049    3.3200   22.2520 C.ar    1  UNL1       -0.0002
     28 C          -4.1901    3.0819   21.4048 C.ar    1  UNL1        0.0144
     29 C          -7.0893    4.9584   23.3602 C.3     1  UNL1        0.2827
     30 O          -7.9177    5.1365   22.1225 O.3     1  UNL1       -0.3692
     31 H          -8.8369    5.3200   22.3722 H       1  UNL1        0.2112
     32 C          -8.3041    5.1963   24.2074 C.3     1  UNL1        0.4311
     33 F          -9.5188    5.4342   25.0547 F       1  UNL1       -0.1669
     34 F          -8.0683    5.9936   24.5129 F       1  UNL1       -0.1669
     35 F          -8.8557    3.8652   23.7904 F       1  UNL1       -0.1669
     36 C          -6.2610    4.7802   24.5980 C.3     1  UNL1        0.4311
     37 F          -5.4326    4.6020   25.8358 F       1  UNL1       -0.1669
     38 F          -6.4754    3.9344   24.7506 F       1  UNL1       -0.1669
     39 F          -5.6068    6.1160   24.7924 F       1  UNL1       -0.1669
@<TRIPOS>BOND
     1     5     6    2
     2     6     7   am
     3     7     8    1
     4     8     9    1
     5     9    10   ar
     6    10    11   ar
     7    11    16    1
     8    16    17    2
     9    16    18    2
    10    16    19    1
    11    19    20    1
    12    20    21    1
    13    21    22    1
    14    11    12   ar
    15    12    13   ar
    16    13    14   ar
    17    14    15    1
    18    15     1    1
    19     1     2    2
    20     1     3   am
    21     3    23    1
    22    23    24   ar
    23    24    25   ar
    24    25    26   ar
    25    26    29    1
    26    29    30    1
    27    29    32    1
    28    32    33    1
    29    32    34    1
    30    32    35    1
    31    29    36    1
    32    36    37    1
    33    36    38    1
    34    36    39    1
    35    26    27   ar
    36    27    28   ar
    37    15     7    1
    38    28    23   ar
    39    14     9   ar
    40    22    20    1
    41     3     4    1
    42    30    31    1
@<TRIPOS>MOLECULE
*****
 39 42 0 0 0
SMALL
GASTEIGER

@<TRIPOS>ATOM
      1 C          -1.9855    3.3198   21.1520 C.2     1  UNL1        0.2486
      2 O          -3.4130    2.8619   21.1045 O.2     1  UNL1       -0.2726
      3 N          -1.5072    4.1667   22.2940 N.am    1  UNL1       -0.2823
      4 H          -0.5702    4.4673   22.3252 H       1  UNL1        0.1549
      5 O          -1.6468    5.1725   16.7829 O.2     1  UNL1       -0.2649
      6 C          -1.8336    4.6578   18.1794 C.2     1  UNL1        0.3037
      7 N          -0.9664    3.5460   18.6912 N.am    1  UNL1       -0.2582
      8 C           0.1229    2.8541   17.9266 C.3     1  UNL1        0.1211
      9 C           0.7263    1.8114   18.8204 C.ar    1  UNL1       -0.0030
     10 C           1.8354    0.8248   18.6052 C.ar    1  UNL1        0.0155
     11 C           2.2282   -0.1141   19.7070 C.ar    1  UNL1        0.1054
     12 C           1.5119   -0.0665   21.0240 C.ar    1  UNL1        0.0181
     13 C           0.4027    0.9200   21.2392 C.ar    1  UNL1       -0.0011
     14 C           0.0099    1.8590   20.1374 C.ar    1  UNL1        0.0023
     15 C          -1.0362    2.9311   20.0576 C.3     1  UNL1        0.1754
     16 S           3.3375   -1.1008   19.4918 S.O2    1  UNL1        0.0086
     17 O           3.4622   -0.6498   18.0666 O.2     1  UNL1       -0.1686
     18 O           3.2127   -1.5518   20.9169 O.2     1  UNL1       -0.1686
     19 C           4.4466   -2.0874   19.2766 C.3     1  UNL1        0.1559
     20 C           4.1336   -3.5466   19.1251 C.3     1  UNL1        0.0240
     21 C           3.1435   -4.6728   19.1569 C.3     1  UNL1        0.0018
     22 C           4.5816   -4.9475   18.8308 C.3     1  UNL1        0.0018
     23 C          -2.4565    4.5555   23.3884 C.ar    1  UNL1        0.0503
     24 C          -3.0450    5.9349   23.4158 C.ar    1  UNL1        0.0144
     25 C          -3.9943    6.3237   24.5103 C.ar    1  UNL1       -0.0002
     26 C          -4.3550    5.3330   25.5772 C.ar    1  UNL1        0.0182
     27 C          -3.7664    3.9536   25.5497 C.ar    1  UNL1       -0.0002
     28 C          -2.8171    3.5648   24.4553 C.ar    1  UNL1        0.0144
     29 C          -5.3043    5.7217   26.6716 C.3     1  UNL1        0.2827
     30 O          -4.1951    5.6060   27.6749 O.3     1  UNL1       -0.3692
     31 H          -4.5349    5.8180   28.5584 H       1  UNL1        0.2112
     32 C          -6.2536    6.1104   27.7660 C.3     1  UNL1        0.4311
     33 F          -7.2029    6.4991   28.8604 F       1  UNL1       -0.1669
     34 F          -6.8237    5.4413   27.6573 F       1  UNL1       -0.1669
     35 F          -5.3976    7.2999   28.0861 F       1  UNL1       -0.1669
     36 C          -6.4134    5.8375   25.6684 C.3     1  UNL1        0.4311
     37 F          -7.5225    5.9531   24.6651 F       1  UNL1       -0.1669
     38 F          -6.4810    4.9741   25.4822 F       1  UNL1       -0.1669
     39 F          -6.7019    7.3085   25.6143 F       1  UNL1       -0.1669
@<TRIPOS>BOND
     1     5     6    2
     2     6     7   am
     3     7     8    1
     4     8     9    1
     5     9    10   ar
     6    10    11   ar
     7    11    16    1
     8    16    17    2
     9    16    18    2
    10    16    19    1
    11    19    20    1
    12    20    21    1
    13    21    22    1
    14    11    12   ar
    15    12    13   ar
    16    13    14   ar
    17    14    15    1
    18    15     1    1
    19     1     2    2
    20     1     3   am
    21     3    23    1
    22    23    24   ar
    23    24    25   ar
    24    25    26   ar
    25    26    29    1
    26    29    30    1
    27    29    32    1
    28    32    33    1
    29    32    34    1
    30    32    35    1
    31    29    36    1
    32    36    37    1
    33    36    38    1
    34    36    39    1
    35    26    27   ar
    36    27    28   ar
    37    15     7    1
    38    28    23   ar
    39    14     9   ar
    40    22    20    1
    41     3     4    1
    42    30    31    1
@<TRIPOS>MOLECULE
*****
 39 42 0 0 0
SMALL
GASTEIGER

@<TRIPOS>ATOM
      1 C           2.5833    1.0102   27.1780 C.2     1  UNL1        0.2486
      2 O           3.1620    2.2465   27.7997 O.2     1  UNL1       -0.2726
      3 N           2.5810   -0.2818   27.9402 N.am    1  UNL1       -0.2823
      4 H           2.2013   -1.0933   27.5322 H       1  UNL1        0.1549
      5 O          -1.0841    3.6236   25.6430 O.2     1  UNL1       -0.2649
      6 C           0.0570    2.8427   26.2244 C.2     1  UNL1        0.3037
      7 N           0.8458    1.9080   25.3560 N.am    1  UNL1       -0.2582
      8 C           0.6119    1.6515   23.8967 C.3     1  UNL1        0.1211
      9 C           1.6285    0.6507   23.4331 C.ar    1  UNL1       -0.0030
     10 C           1.8804    0.0223   22.0947 C.ar    1  UNL1        0.0155
     11 C           2.9946   -0.9682   21.9290 C.ar    1  UNL1        0.1054
     12 C           3.8568   -1.3302   23.1018 C.ar    1  UNL1        0.0181
     13 C           3.6049   -0.7018   24.4402 C.ar    1  UNL1       -0.0011
     14 C           2.4907    0.2886   24.6059 C.ar    1  UNL1        0.0023
     15 C           2.0070    1.0657   25.7943 C.3     1  UNL1        0.1754
     16 S           3.2466   -1.5967   20.5904 S.O2    1  UNL1        0.0086
     17 O           4.6400   -1.9502   21.0187 O.2     1  UNL1       -0.1686
     18 O           1.8532   -1.2432   20.1622 O.2     1  UNL1       -0.1686
     19 C           3.4985   -2.2251   19.2520 C.3     1  UNL1        0.1559
     20 C           3.7690   -3.6973   19.1536 C.3     1  UNL1        0.0240
     21 C           4.6415   -4.8303   18.7010 C.3     1  UNL1        0.0018
     22 C           3.3650   -5.1140   19.4357 C.3     1  UNL1        0.0018
     23 C           3.1574   -0.3373   29.3240 C.ar    1  UNL1        0.0503
     24 C           4.5160   -0.9325   29.5472 C.ar    1  UNL1        0.0144
     25 C           5.0924   -0.9880   30.9310 C.ar    1  UNL1       -0.0002
     26 C           4.3100   -0.4483   32.0914 C.ar    1  UNL1        0.0182
     27 C           2.9514    0.1468   31.8681 C.ar    1  UNL1       -0.0002
     28 C           2.3750    0.2023   30.4844 C.ar    1  UNL1        0.0144
     29 C           4.8863   -0.5038   33.4752 C.3     1  UNL1        0.2827
     30 O           5.2943    0.9353   33.3631 O.3     1  UNL1       -0.3692
     31 H           5.7335    1.2116   34.1826 H       1  UNL1        0.2112
     32 C           5.4625   -0.5594   34.8590 C.3     1  UNL1        0.4311
     33 F           6.0387   -0.6149   36.2428 F       1  UNL1       -0.1669
     34 F           6.2381   -0.9259   34.6384 F       1  UNL1       -0.1669
     35 F           4.2100    0.0592   35.4054 F       1  UNL1       -0.1669
     36 C           4.4783   -1.9429   33.5873 C.3     1  UNL1        0.4311
     37 F           4.0702   -3.3820   33.6995 F       1  UNL1       -0.1669
     38 F           3.6587   -1.7994   33.8910 F       1  UNL1       -0.1669
     39 F           5.6878   -2.7002   33.1251 F       1  UNL1       -0.1669
@<TRIPOS>BOND
     1     5     6    2
     2     6     7   am
     3     7     8    1
     4     8     9    1
     5     9    10   ar
     6    10    11   ar
     7    11    16    1
     8    16    17    2
     9    16    18    2
    10    16    19    1
    11    19    20    1
    12    20    21    1
    13    21    22    1
    14    11    12   ar
    15    12    13   ar
    16    13    14   ar
    17    14    15    1
    18    15     1    1
    19     1     2    2
    20     1     3   am
    21     3    23    1
    22    23    24   ar
    23    24    25   ar
    24    25    26   ar
    25    26    29    1
    26    29    30    1
    27    29    32    1
    28    32    33    1
    29    32    34    1
    30    32    35    1
    31    29    36    1
    32    36    37    1
    33    36    38    1
    34    36    39    1
    35    26    27   ar
    36    27    28   ar
    37    15     7    1
    38    28    23   ar
    39    14     9   ar
    40    22    20    1
    41     3     4    1
    42    30    31    1
@<TRIPOS>MOLECULE
*****
 39 42 0 0 0
SMALL
GASTEIGER

@<TRIPOS>ATOM
      1 C          -0.5758    2.8312   20.4442 C.2     1  UNL1        0.2486
      2 O           0.6914    3.6226   20.3104 O.2     1  UNL1       -0.2726
      3 N          -0.5576    1.3456   20.2370 N.am    1  UNL1       -0.2823
      4 H          -1.3893    0.8262   20.3248 H       1  UNL1        0.1549
      5 O          -3.8667    4.5210   17.4525 O.2     1  UNL1       -0.2649
      6 C          -2.7730    3.9563   18.3097 C.2     1  UNL1        0.3037
      7 N          -2.8710    4.0425   19.8040 N.am    1  UNL1       -0.2582
      8 C          -3.9962    4.6609   20.5796 C.3     1  UNL1        0.1211
      9 C          -3.6817    4.5259   22.0400 C.ar    1  UNL1       -0.0030
     10 C          -4.4264    4.9514   23.2706 C.ar    1  UNL1        0.0155
     11 C          -3.8515    4.6751   24.6282 C.ar    1  UNL1        0.1054
     12 C          -2.5319    3.9733   24.7552 C.ar    1  UNL1        0.0181
     13 C          -1.7872    3.5478   23.5246 C.ar    1  UNL1       -0.0011
     14 C          -2.3621    3.8241   22.1670 C.ar    1  UNL1        0.0023
     15 C          -1.8611    3.5253   20.7851 C.3     1  UNL1        0.1754
     16 S          -4.5962    5.1006   25.8588 S.O2    1  UNL1        0.0086
     17 O          -4.9236    3.6674   26.1563 O.2     1  UNL1       -0.1686
     18 O          -4.2687    6.5339   25.5613 O.2     1  UNL1       -0.1686
     19 C          -5.3408    5.5261   27.0894 C.3     1  UNL1        0.1559
     20 C          -6.6628    6.2236   26.9625 C.3     1  UNL1        0.0240
     21 C          -7.9286    6.4794   26.1994 C.3     1  UNL1        0.0018
     22 C          -7.6867    7.1757   27.5057 C.3     1  UNL1        0.0018
     23 C           0.7277    0.6516   19.8960 C.ar    1  UNL1        0.0503
     24 C           1.4552   -0.1369   20.9443 C.ar    1  UNL1        0.0144
     25 C           2.7405   -0.8310   20.6034 C.ar    1  UNL1       -0.0002
     26 C           3.2982   -0.7365   19.2142 C.ar    1  UNL1        0.0182
     27 C           2.5707    0.0520   18.1659 C.ar    1  UNL1       -0.0002
     28 C           1.2854    0.7460   18.5068 C.ar    1  UNL1        0.0144
     29 C           4.5836   -1.4306   18.8731 C.3     1  UNL1        0.2827
     30 O           5.2445   -0.1013   18.6584 O.3     1  UNL1       -0.3692
     31 H           6.1706   -0.2380   18.4042 H       1  UNL1        0.2112
     32 C           5.8688   -2.1247   18.5321 C.3     1  UNL1        0.4311
     33 F           7.1541   -2.8189   18.1911 F       1  UNL1       -0.1669
     34 F           5.5855   -2.5188   17.7912 F       1  UNL1       -0.1669
     35 F           6.5102   -1.5377   19.7545 F       1  UNL1       -0.1669
     36 C           3.9226   -2.7599   19.0879 C.3     1  UNL1        0.4311
     37 F           3.2616   -4.0892   19.3026 F       1  UNL1       -0.1669
     38 F           3.4073   -2.7419   18.3677 F       1  UNL1       -0.1669
     39 F           4.5370   -3.2699   20.3577 F       1  UNL1       -0.1669
@<TRIPOS>BOND
     1     5     6    2
     2     6     7   am
     3     7     8    1
     4     8     9    1
     5     9    10   ar
     6    10    11   ar
     7    11    16    1
     8    16    17    2
     9    16    18    2
    10    16    19    1
    11    19    20    1
    12    20    21    1
    13    21    22    1
    14    11    12   ar
    15    12    13   ar
    16    13    14   ar
    17    14    15    1
    18    15     1    1
    19     1     2    2
    20     1     3   am
    21     3    23    1
    22    23    24   ar
    23    24    25   ar
    24    25    26   ar
    25    26    29    1
    26    29    30    1
    27    29    32    1
    28    32    33    1
    29    32    34    1
    30    32    35    1
    31    29    36    1
    32    36    37    1
    33    36    38    1
    34    36    39    1
    35    26    27   ar
    36    27    28   ar
    37    15     7    1
    38    28    23   ar
    39    14     9   ar
    40    22    20    1
    41     3     4    1
    42    30    31    1
@<TRIPOS>MOLECULE
*****
 39 42 0 0 0
SMALL
GASTEIGER

@<TRIPOS>ATOM
      1 C           2.7489    1.1611   25.9447 C.2     1  UNL1        0.2486
      2 O           3.8472    1.9983   25.3594 O.2     1  UNL1       -0.2726
      3 N           2.0118    0.1807   25.0811 N.am    1  UNL1       -0.2823
      4 H           1.2909   -0.3688   25.4652 H       1  UNL1        0.1549
      5 O          -0.5097    4.0419   27.8729 O.2     1  UNL1       -0.2649
      6 C           0.4905    3.1737   27.1688 C.2     1  UNL1        0.3037
      7 N           1.3496    2.2292   27.9562 N.am    1  UNL1       -0.2582
      8 C           1.3214    2.0439   29.4444 C.3     1  UNL1        0.1211
      9 C           2.3421    1.0043   29.8015 C.ar    1  UNL1       -0.0030
     10 C           2.7566    0.4150   31.1171 C.ar    1  UNL1        0.0155
     11 C           3.8300   -0.6316   31.1651 C.ar    1  UNL1        0.1054
     12 C           4.4890   -1.0888   29.8976 C.ar    1  UNL1        0.0181
     13 C           4.0745   -0.4995   28.5820 C.ar    1  UNL1       -0.0011
     14 C           3.0011    0.5471   28.5340 C.ar    1  UNL1        0.0023
     15 C           2.3877    1.3041   27.3935 C.3     1  UNL1        0.1754
     16 S           4.2445   -1.2210   32.4808 S.O2    1  UNL1        0.0086
     17 O           5.1698   -2.1620   31.7678 O.2     1  UNL1       -0.1686
     18 O           3.3193   -0.2801   33.1938 O.2     1  UNL1       -0.1686
     19 C           4.6590   -1.8104   33.7964 C.3     1  UNL1        0.1559
     20 C           5.0707   -0.9115   34.9245 C.3     1  UNL1        0.0240
     21 C           4.7490   -0.2119   36.2117 C.3     1  UNL1        0.0018
     22 C           6.1055   -0.0542   35.5912 C.3     1  UNL1        0.0018
     23 C           2.3731    0.0377   23.6323 C.ar    1  UNL1        0.0503
     24 C           1.6101    0.8006   22.5902 C.ar    1  UNL1        0.0144
     25 C           1.9714    0.6576   21.1414 C.ar    1  UNL1       -0.0002
     26 C           3.0956   -0.2483   20.7348 C.ar    1  UNL1        0.0182
     27 C           3.8586   -1.0111   21.7768 C.ar    1  UNL1       -0.0002
     28 C           3.4974   -0.8681   23.2256 C.ar    1  UNL1        0.0144
     29 C           3.4570   -0.3913   19.2859 C.3     1  UNL1        0.2827
     30 O           3.7036    1.0859   19.2015 O.3     1  UNL1       -0.3692
     31 H           3.9771    1.3170   18.3000 H       1  UNL1        0.2112
     32 C           3.8183   -0.5345   17.8372 C.3     1  UNL1        0.4311
     33 F           4.1796   -0.6776   16.3884 F       1  UNL1       -0.1669
     34 F           3.0133   -0.7633   17.5471 F       1  UNL1       -0.1669
     35 F           5.2363   -0.1616   18.1540 F       1  UNL1       -0.1669
     36 C           3.2104   -1.8685   19.3704 C.3     1  UNL1        0.4311
     37 F           2.9637   -3.3457   19.4549 F       1  UNL1       -0.1669
     38 F           2.3448   -1.8232   19.5529 F       1  UNL1       -0.1669
     39 F           4.5542   -2.4770   19.0988 F       1  UNL1       -0.1669
@<TRIPOS>BOND
     1     5     6    2
     2     6     7   am
     3     7     8    1
     4     8     9    1
     5     9    10   ar
     6    10    11   ar
     7    11    16    1
     8    16    17    2
     9    16    18    2
    10    16    19    1
    11    19    20    1
    12    20    21    1
    13    21    22    1
    14    11    12   ar
    15    12    13   ar
    16    13    14   ar
    17    14    15    1
    18    15     1    1
    19     1     2    2
    20     1     3   am
    21     3    23    1
    22    23    24   ar
    23    24    25   ar
    24    25    26   ar
    25    26    29    1
    26    29    30    1
    27    29    32    1
    28    32    33    1
    29    32    34    1
    30    32    35    1
    31    29    36    1
    32    36    37    1
    33    36    38    1
    34    36    39    1
    35    26    27   ar
    36    27    28   ar
    37    15     7    1
    38    28    23   ar
    39    14     9   ar
    40    22    20    1
    41     3     4    1
    42    30    31    1
@<TRIPOS>MOLECULE
*****
 39 42 0 0 0
SMALL
GASTEIGER

@<TRIPOS>ATOM
      1 C           5.1151   -1.0715   26.1903 C.2     1  UNL1        0.2486
      2 O           5.8383    0.0628   25.5270 O.2     1  UNL1       -0.2726
      3 N           4.3281   -2.0449   25.3637 N.am    1  UNL1       -0.2823
      4 H           3.8534   -2.7895   25.7990 H       1  UNL1        0.1549
      5 O           7.6650   -4.2216   28.6825 O.2     1  UNL1       -0.2649
      6 C           6.9022   -3.2718   27.8073 C.2     1  UNL1        0.3037
      7 N           6.0002   -2.2439   28.4235 N.am    1  UNL1       -0.2582
      8 C           5.7612   -2.0469   29.8912 C.3     1  UNL1        0.1211
      9 C           4.7921   -0.9138   30.0551 C.ar    1  UNL1       -0.0030
     10 C           4.1909   -0.2753   31.2719 C.ar    1  UNL1        0.0155
     11 C           3.2298    0.8665   31.1224 C.ar    1  UNL1        0.1054
     12 C           2.8698    1.3698   29.7560 C.ar    1  UNL1        0.0181
     13 C           3.4709    0.7313   28.5391 C.ar    1  UNL1       -0.0011
     14 C           4.4321   -0.4105   28.6886 C.ar    1  UNL1        0.0023
     15 C           5.1787   -1.2326   27.6803 C.3     1  UNL1        0.1754
     16 S           2.6285    1.5051   32.3393 S.O2    1  UNL1        0.0086
     17 O           1.2674    1.4116   31.7160 O.2     1  UNL1       -0.1686
     18 O           3.9897    1.5987   32.9627 O.2     1  UNL1       -0.1686
     19 C           2.0274    2.1437   33.5562 C.3     1  UNL1        0.1559
     20 C           1.6079    3.5834   33.5180 C.3     1  UNL1        0.0240
     21 C           1.6032    4.9173   32.8320 C.3     1  UNL1        0.0018
     22 C           0.8862    4.7430   34.1379 C.3     1  UNL1        0.0018
     23 C           4.2644   -1.8839   23.8737 C.ar    1  UNL1        0.0503
     24 C           5.1992   -2.6608   22.9947 C.ar    1  UNL1        0.0144
     25 C           5.1355   -2.4998   21.5048 C.ar    1  UNL1       -0.0002
     26 C           4.1371   -1.5618   20.8938 C.ar    1  UNL1        0.0182
     27 C           3.2024   -0.7848   21.7728 C.ar    1  UNL1       -0.0002
     28 C           3.2660   -0.9459   23.2628 C.ar    1  UNL1        0.0144
     29 C           4.0734   -1.4007   19.4038 C.3     1  UNL1        0.2827
     30 O           4.6745   -0.0318   19.5261 O.3     1  UNL1       -0.3692
     31 H           4.7652    0.3614   18.6440 H       1  UNL1        0.2112
     32 C           4.0097   -1.2396   17.9139 C.3     1  UNL1        0.4311
     33 F           3.9459   -1.0786   16.4239 F       1  UNL1       -0.1669
     34 F           3.1278   -1.1898   17.8482 F       1  UNL1       -0.1669
     35 F           5.5066   -1.3048   17.8428 F       1  UNL1       -0.1669
     36 C           3.4723   -2.7695   19.2816 C.3     1  UNL1        0.4311
     37 F           2.8711   -4.1384   19.1595 F       1  UNL1       -0.1669
     38 F           2.6982   -2.5825   19.6694 F       1  UNL1       -0.1669
     39 F           4.5367   -3.5735   18.5955 F       1  UNL1       -0.1669
@<TRIPOS>BOND
     1     5     6    2
     2     6     7   am
     3     7     8    1
     4     8     9    1
     5     9    10   ar
     6    10    11   ar
     7    11    16    1
     8    16    17    2
     9    16    18    2
    10    16    19    1
    11    19    20    1
    12    20    21    1
    13    21    22    1
    14    11    12   ar
    15    12    13   ar
    16    13    14   ar
    17    14    15    1
    18    15     1    1
    19     1     2    2
    20     1     3   am
    21     3    23    1
    22    23    24   ar
    23    24    25   ar
    24    25    26   ar
    25    26    29    1
    26    29    30    1
    27    29    32    1
    28    32    33    1
    29    32    34    1
    30    32    35    1
    31    29    36    1
    32    36    37    1
    33    36    38    1
    34    36    39    1
    35    26    27   ar
    36    27    28   ar
    37    15     7    1
    38    28    23   ar
    39    14     9   ar
    40    22    20    1
    41     3     4    1
    42    30    31    1
@<TRIPOS>MOLECULE
*****
 39 42 0 0 0
SMALL
GASTEIGER

@<TRIPOS>ATOM
      1 C          -1.4049    3.4411   21.0113 C.2     1  UNL1        0.2486
      2 O          -0.8698    4.5155   21.9109 O.2     1  UNL1       -0.2726
      3 N          -2.8597    3.0787   21.0590 N.am    1  UNL1       -0.2823
      4 H          -3.2110    2.3735   20.4686 H       1  UNL1        0.1549
      5 O          -0.8772    4.1805   16.3411 O.2     1  UNL1       -0.2649
      6 C          -1.1174    4.0257   17.8136 C.2     1  UNL1        0.3037
      7 N          -0.3531    2.9978   18.5942 N.am    1  UNL1       -0.2582
      8 C           0.6775    2.0582   18.0421 C.3     1  UNL1        0.1211
      9 C           1.1823    1.2087   19.1706 C.ar    1  UNL1       -0.0030
     10 C           2.2035    0.1112   19.2218 C.ar    1  UNL1        0.0155
     11 C           2.5060   -0.5716   20.5226 C.ar    1  UNL1        0.1054
     12 C           1.7874   -0.1569   21.7723 C.ar    1  UNL1        0.0181
     13 C           0.7662    0.9406   21.7211 C.ar    1  UNL1       -0.0011
     14 C           0.4637    1.6234   20.4203 C.ar    1  UNL1        0.0023
     15 C          -0.4853    2.7291   20.0640 C.3     1  UNL1        0.1754
     16 S           3.5273   -1.6691   20.5738 S.O2    1  UNL1        0.0086
     17 O           3.4718   -1.6509   22.0727 O.2     1  UNL1       -0.1686
     18 O           3.5827   -1.6874   19.0750 O.2     1  UNL1       -0.1686
     19 C           4.5484   -2.7666   20.6250 C.3     1  UNL1        0.1559
     20 C           4.3036   -4.0536   19.8942 C.3     1  UNL1        0.0240
     21 C           4.6669   -5.0178   18.8042 C.3     1  UNL1        0.0018
     22 C           3.5165   -5.3183   19.7186 C.3     1  UNL1        0.0018
     23 C          -3.7794    3.7907   22.0063 C.ar    1  UNL1        0.0503
     24 C          -3.7850    3.4273   23.4616 C.ar    1  UNL1        0.0144
     25 C          -4.7046    4.1393   24.4089 C.ar    1  UNL1       -0.0002
     26 C          -5.6185    5.2147   23.9008 C.ar    1  UNL1        0.0182
     27 C          -5.6129    5.5781   22.4455 C.ar    1  UNL1       -0.0002
     28 C          -4.6933    4.8661   21.4982 C.ar    1  UNL1        0.0144
     29 C          -6.5382    5.9267   24.8481 C.3     1  UNL1        0.2827
     30 O          -5.3882    6.7520   25.3444 O.3     1  UNL1       -0.3692
     31 H          -5.7010    7.3640   26.0288 H       1  UNL1        0.2112
     32 C          -7.4579    6.6387   25.7953 C.3     1  UNL1        0.4311
     33 F          -8.3777    7.3507   26.7425 F       1  UNL1       -0.1669
     34 F          -7.7976    7.2085   25.2083 F       1  UNL1       -0.1669
     35 F          -6.9915    5.7541   26.9132 F       1  UNL1       -0.1669
     36 C          -7.6882    5.1014   24.3518 C.3     1  UNL1        0.4311
     37 F          -8.8383    4.2760   23.8555 F       1  UNL1       -0.1669
     38 F          -7.4703    4.3509   24.7685 F       1  UNL1       -0.1669
     39 F          -8.4645    6.0459   23.4826 F       1  UNL1       -0.1669
@<TRIPOS>BOND
     1     5     6    2
     2     6     7   am
     3     7     8    1
     4     8     9    1
     5     9    10   ar
     6    10    11   ar
     7    11    16    1
     8    16    17    2
     9    16    18    2
    10    16    19    1
    11    19    20    1
    12    20    21    1
    13    21    22    1
    14    11    12   ar
    15    12    13   ar
    16    13    14   ar
    17    14    15    1
    18    15     1    1
    19     1     2    2
    20     1     3   am
    21     3    23    1
    22    23    24   ar
    23    24    25   ar
    24    25    26   ar
    25    26    29    1
    26    29    30    1
    27    29    32    1
    28    32    33    1
    29    32    34    1
    30    32    35    1
    31    29    36    1
    32    36    37    1
    33    36    38    1
    34    36    39    1
    35    26    27   ar
    36    27    28   ar
    37    15     7    1
    38    28    23   ar
    39    14     9   ar
    40    22    20    1
    41     3     4    1
    42    30    31    1
@<TRIPOS>MOLECULE
*****
 39 42 0 0 0
SMALL
GASTEIGER

@<TRIPOS>ATOM
      1 C           1.5630    1.4074   24.5999 C.2     1  UNL1        0.2486
      2 O           2.8930    2.0807   24.4338 O.2     1  UNL1       -0.2726
      3 N           1.2033    0.2344   23.7368 N.am    1  UNL1       -0.2823
      4 H           0.3303   -0.2076   23.8458 H       1  UNL1        0.1549
      5 O           1.8974    1.0780   29.3344 O.2     1  UNL1       -0.2649
      6 C           1.8863    1.1304   27.8354 C.2     1  UNL1        0.3037
      7 N           0.7413    1.7797   27.1161 N.am    1  UNL1       -0.2582
      8 C          -0.4562    2.4156   27.7576 C.3     1  UNL1        0.1211
      9 C          -1.3449    2.9359   26.6670 C.ar    1  UNL1       -0.0030
     10 C          -2.6606    3.6554   26.7019 C.ar    1  UNL1        0.0155
     11 C          -3.3281    4.0604   25.4211 C.ar    1  UNL1        0.1054
     12 C          -2.6798    3.7461   24.1055 C.ar    1  UNL1        0.0181
     13 C          -1.3641    3.0267   24.0706 C.ar    1  UNL1       -0.0011
     14 C          -0.6966    2.6216   25.3513 C.ar    1  UNL1        0.0023
     15 C           0.5927    1.9070   25.6289 C.3     1  UNL1        0.1754
     16 S          -4.6439    4.7799   25.4560 S.O2    1  UNL1        0.0086
     17 O          -3.9290    6.0932   25.3372 O.2     1  UNL1       -0.1686
     18 O          -5.3588    3.4666   25.5747 O.2     1  UNL1       -0.1686
     19 C          -5.9596    5.4993   25.4908 C.3     1  UNL1        0.1559
     20 C          -7.0314    5.1509   24.5009 C.3     1  UNL1        0.0240
     21 C          -7.4349    4.6867   23.1328 C.3     1  UNL1        0.0018
     22 C          -8.4841    5.0115   24.1543 C.3     1  UNL1        0.0018
     23 C           2.1736   -0.2652   22.7078 C.ar    1  UNL1        0.0503
     24 C           3.3487   -1.0981   23.1269 C.ar    1  UNL1        0.0144
     25 C           4.3190   -1.5977   22.0979 C.ar    1  UNL1       -0.0002
     26 C           4.1142   -1.2644   20.6498 C.ar    1  UNL1        0.0182
     27 C           2.9392   -0.4315   20.2307 C.ar    1  UNL1       -0.0002
     28 C           1.9689    0.0681   21.2597 C.ar    1  UNL1        0.0144
     29 C           5.0846   -1.7639   19.6207 C.3     1  UNL1        0.2827
     30 O           6.0421   -0.6709   19.9929 O.3     1  UNL1       -0.3692
     31 H           6.8400   -0.7399   19.4457 H       1  UNL1        0.2112
     32 C           6.0548   -2.2635   18.5916 C.3     1  UNL1        0.4311
     33 F           7.0250   -2.7632   17.5625 F       1  UNL1       -0.1669
     34 F           6.3660   -2.9480   19.0598 F       1  UNL1       -0.1669
     35 F           5.6430   -1.1571   17.6663 F       1  UNL1       -0.1669
     36 C           4.1270   -2.8569   19.2486 C.3     1  UNL1        0.4311
     37 F           3.1694   -3.9499   18.8764 F       1  UNL1       -0.1669
     38 F           3.7612   -2.4479   18.5533 F       1  UNL1       -0.1669
     39 F           4.3868   -3.9289   20.2652 F       1  UNL1       -0.1669
@<TRIPOS>BOND
     1     5     6    2
     2     6     7   am
     3     7     8    1
     4     8     9    1
     5     9    10   ar
     6    10    11   ar
     7    11    16    1
     8    16    17    2
     9    16    18    2
    10    16    19    1
    11    19    20    1
    12    20    21    1
    13    21    22    1
    14    11    12   ar
    15    12    13   ar
    16    13    14   ar
    17    14    15    1
    18    15     1    1
    19     1     2    2
    20     1     3   am
    21     3    23    1
    22    23    24   ar
    23    24    25   ar
    24    25    26   ar
    25    26    29    1
    26    29    30    1
    27    29    32    1
    28    32    33    1
    29    32    34    1
    30    32    35    1
    31    29    36    1
    32    36    37    1
    33    36    38    1
    34    36    39    1
    35    26    27   ar
    36    27    28   ar
    37    15     7    1
    38    28    23   ar
    39    14     9   ar
    40    22    20    1
    41     3     4    1
    42    30    31    1
