@<TRIPOS>MOLECULE
*****
 38 42 0 0 0
SMALL
GASTEIGER

@<TRIPOS>ATOM
      1 C           5.1866   -1.5489   23.4998 C.3     1  UNL1        0.1065
      2 C           3.9518    0.2158   22.0469 C.2     1  UNL1        0.2475
      3 O           5.2679    0.6930   21.5079 O.2     1  UNL1       -0.2701
      4 N           3.9111   -0.9051   23.0428 N.am    1  UNL1       -0.2999
      5 H           3.0474   -1.2182   23.3965 H       1  UNL1        0.1498
      6 C           0.1257    2.1474   20.6757 C.ar    1  UNL1        0.0863
      7 C           0.5434    0.8238   20.1069 C.ar    1  UNL1        0.0308
      8 C           1.8188    0.1799   20.5640 C.ar    1  UNL1        0.0643
      9 CL          2.2365   -1.1437   19.9951 Cl      1  UNL1       -0.0820
     10 C           2.6764    0.8597   21.5898 C.ar    1  UNL1        0.0745
     11 C           2.2587    2.1833   22.1586 C.ar    1  UNL1        0.0643
     12 CL          3.1163    2.8630   23.1844 Cl      1  UNL1       -0.0820
     13 C           0.9833    2.8271   21.7015 C.ar    1  UNL1        0.0308
     14 C          -4.9390    3.6135   20.3925 C.3     1  UNL1        0.0756
     15 C          -3.4776    3.4652   20.0885 C.ar    1  UNL1        0.1613
     16 N          -2.7468    4.0992   18.9423 N.ar    1  UNL1       -0.2073
     17 C          -1.3080    3.6827   19.0227 C.ar    1  UNL1        0.2013
     18 N          -1.1497    2.7913   20.2187 N.ar    1  UNL1       -0.2083
     19 N          -2.4906    2.6569   20.8773 N.ar    1  UNL1       -0.1487
     20 C           5.6502   -2.8272   22.8666 C.3     1  UNL1        0.1537
     21 C           6.3272   -3.8746   23.7001 C.2     1  UNL1        0.3564
     22 N           7.2198   -4.9666   23.1895 N.2     1  UNL1       -0.0350
     23 C           7.6747   -5.7807   24.3644 C.2     1  UNL1        0.2278
     24 C           8.5668   -6.9822   24.4678 C.2     1  UNL1        0.0251
     25 C           9.1783   -7.5711   23.2312 C.3     1  UNL1        0.0351
     26 C           8.8473   -7.5947   25.8081 C.2     1  UNL1        0.0070
     27 C           8.2359   -7.0059   27.0447 C.2     1  UNL1        0.0436
     28 CL          8.5164   -7.6185   28.3849 Cl      1  UNL1       -0.0864
     29 C           7.3438   -5.8044   26.9412 C.3     1  UNL1        0.1155
     30 C           7.0633   -5.1918   25.6010 C.2     1  UNL1        0.2180
     31 N           6.2304   -4.0138   25.1905 N.2     1  UNL1       -0.0385
     32 C           5.4368   -3.0582   21.4000 C.ar    1  UNL1       -0.0068
     33 C           6.3760   -2.4507   20.4006 C.ar    1  UNL1       -0.0035
     34 C           6.1627   -2.6817   18.9338 C.ar    1  UNL1        0.0020
     35 C           5.0100   -3.5201   18.4666 C.ar    1  UNL1        0.0296
     36 C           4.0707   -4.1275   19.4659 C.ar    1  UNL1        0.1398
     37 F           2.9180   -4.9659   18.9987 F       1  UNL1       -0.2042
     38 C           4.2841   -3.8966   20.9326 C.ar    1  UNL1        0.0260
@<TRIPOS>BOND
     1    14    15    1
     2    15    16   ar
     3    16    17   ar
     4    17    18   ar
     5    18     6    1
     6     6     7   ar
     7     7     8   ar
     8     8     9    1
     9     8    10   ar
    10    10     2    1
    11     2     3    2
    12     2     4   am
    13     4     1    1
    14    20     1    1
    15    20    32    1
    16    32    33   ar
    17    33    34   ar
    18    34    35   ar
    19    35    36   ar
    20    36    37    1
    21    36    38   ar
    22    20    21    1
    23    21    22    2
    24    22    23    1
    25    23    24    2
    26    24    25    1
    27    24    26    1
    28    26    27    2
    29    27    28    1
    30    27    29    1
    31    29    30    1
    32    30    31    2
    33    10    11   ar
    34    11    12    1
    35    11    13   ar
    36    18    19   ar
    37    19    15   ar
    38    13     6   ar
    39    38    32   ar
    40    31    21    1
    41    30    23    1
    42     4     5    1
@<TRIPOS>MOLECULE
*****
 38 42 0 0 0
SMALL
GASTEIGER

@<TRIPOS>ATOM
      1 C           4.6632   -2.4117   33.6278 C.3     1  UNL1        0.1065
      2 C           6.3053   -2.9387   31.6847 C.2     1  UNL1        0.2475
      3 O           7.4455   -2.4133   32.5057 O.2     1  UNL1       -0.2701
      4 N           4.9141   -2.9379   32.2457 N.am    1  UNL1       -0.2999
      5 H           4.1658   -3.2828   31.7068 H       1  UNL1        0.1498
      6 C           7.0585   -4.5174   27.5386 C.ar    1  UNL1        0.0863
      7 C           7.1702   -5.4329   28.7215 C.ar    1  UNL1        0.0308
      8 C           6.9191   -4.9067   30.1035 C.ar    1  UNL1        0.0643
      9 CL          7.0309   -5.8223   31.2863 Cl      1  UNL1       -0.0820
     10 C           6.5563   -3.4650   30.3027 C.ar    1  UNL1        0.0745
     11 C           6.4446   -2.5494   29.1198 C.ar    1  UNL1        0.0643
     12 CL          6.0818   -1.1076   29.3189 Cl      1  UNL1       -0.0820
     13 C           6.6957   -3.0756   27.7377 C.ar    1  UNL1        0.0308
     14 C           8.7330   -7.5323   23.5401 C.3     1  UNL1        0.0756
     15 C           8.0791   -6.4293   24.3186 C.ar    1  UNL1        0.1613
     16 N           7.3124   -5.2769   23.7407 N.ar    1  UNL1       -0.2073
     17 C           6.8367   -4.4204   24.8765 C.ar    1  UNL1        0.2013
     18 N           7.3095   -5.0436   26.1564 N.ar    1  UNL1       -0.2083
     19 N           8.0774   -6.2850   25.8116 N.ar    1  UNL1       -0.1487
     20 C           4.4395   -0.9440   33.8423 C.3     1  UNL1        0.1537
     21 C           3.5558   -0.1752   32.9053 C.2     1  UNL1        0.3564
     22 N           2.9407    1.1661   33.1746 N.2     1  UNL1       -0.0350
     23 C           2.1368    1.5575   31.9702 C.2     1  UNL1        0.2278
     24 C           1.3124    2.7730   31.6655 C.2     1  UNL1        0.0251
     25 C           1.1941    3.8725   32.6791 C.3     1  UNL1        0.0351
     26 C           0.6062    2.8891   30.3472 C.2     1  UNL1        0.0070
     27 C           0.7245    1.7898   29.3336 C.2     1  UNL1        0.0436
     28 CL          0.0183    1.9059   28.0153 Cl      1  UNL1       -0.0864
     29 C           1.5490    0.5743   29.6383 C.3     1  UNL1        0.1155
     30 C           2.2551    0.4582   30.9566 C.2     1  UNL1        0.2180
     31 N           3.1321   -0.6127   31.5345 N.2     1  UNL1       -0.0385
     32 C           5.0996   -0.2452   34.9938 C.ar    1  UNL1       -0.0068
     33 C           6.5222    0.2153   34.8757 C.ar    1  UNL1       -0.0035
     34 C           7.1825    0.9142   36.0272 C.ar    1  UNL1        0.0020
     35 C           6.4199    1.1524   37.2968 C.ar    1  UNL1        0.0296
     36 C           4.9973    0.6919   37.4148 C.ar    1  UNL1        0.1398
     37 F           4.2347    0.9301   38.6844 F       1  UNL1       -0.2042
     38 C           4.3371   -0.0069   36.2634 C.ar    1  UNL1        0.0260
@<TRIPOS>BOND
     1    14    15    1
     2    15    16   ar
     3    16    17   ar
     4    17    18   ar
     5    18     6    1
     6     6     7   ar
     7     7     8   ar
     8     8     9    1
     9     8    10   ar
    10    10     2    1
    11     2     3    2
    12     2     4   am
    13     4     1    1
    14    20     1    1
    15    20    32    1
    16    32    33   ar
    17    33    34   ar
    18    34    35   ar
    19    35    36   ar
    20    36    37    1
    21    36    38   ar
    22    20    21    1
    23    21    22    2
    24    22    23    1
    25    23    24    2
    26    24    25    1
    27    24    26    1
    28    26    27    2
    29    27    28    1
    30    27    29    1
    31    29    30    1
    32    30    31    2
    33    10    11   ar
    34    11    12    1
    35    11    13   ar
    36    18    19   ar
    37    19    15   ar
    38    13     6   ar
    39    38    32   ar
    40    31    21    1
    41    30    23    1
    42     4     5    1
@<TRIPOS>MOLECULE
*****
 38 42 0 0 0
SMALL
GASTEIGER

@<TRIPOS>ATOM
      1 C           2.1759    2.2913   33.6396 C.3     1  UNL1        0.1065
      2 C           4.2548    0.9250   32.8906 C.2     1  UNL1        0.2475
      3 O           5.1509    2.0377   33.3478 O.2     1  UNL1       -0.2701
      4 N           2.7674    1.0517   33.0365 N.am    1  UNL1       -0.2999
      5 H           2.1793    0.3214   32.7363 H       1  UNL1        0.1498
      6 C           6.0295   -2.7934   31.0811 C.ar    1  UNL1        0.0863
      7 C           5.5274   -2.8131   32.4944 C.ar    1  UNL1        0.0308
      8 C           4.9359   -1.5737   33.0976 C.ar    1  UNL1        0.0643
      9 CL          4.4339   -1.5935   34.5109 Cl      1  UNL1       -0.0820
     10 C           4.8464   -0.3145   32.2874 C.ar    1  UNL1        0.0745
     11 C           5.3485   -0.2947   30.8741 C.ar    1  UNL1        0.0643
     12 CL          5.2590    0.9645   30.0639 Cl      1  UNL1       -0.0820
     13 C           5.9400   -1.5342   30.2709 C.ar    1  UNL1        0.0308
     14 C           7.5055   -6.4652   27.5852 C.3     1  UNL1        0.0756
     15 C           7.2995   -5.7206   28.8711 C.ar    1  UNL1        0.1613
     16 N           7.7633   -6.1597   30.2282 N.ar    1  UNL1       -0.2073
     17 C           7.3440   -5.1166   31.2213 C.ar    1  UNL1        0.2013
     18 N           6.6211   -4.0329   30.4778 N.ar    1  UNL1       -0.2083
     19 N           6.5936   -4.4061   29.0253 N.ar    1  UNL1       -0.1487
     20 C           1.2393    3.1433   32.8353 C.3     1  UNL1        0.1537
     21 C           0.9442    2.7913   31.4074 C.2     1  UNL1        0.3564
     22 N           0.1635    1.6003   30.9362 N.2     1  UNL1       -0.0350
     23 C           0.1147    1.6415   29.4376 C.2     1  UNL1        0.2278
     24 C          -0.5162    0.7284   28.4285 C.2     1  UNL1        0.0251
     25 C          -1.2668   -0.4880   28.8834 C.3     1  UNL1        0.0351
     26 C          -0.3965    1.0319   26.9643 C.2     1  UNL1        0.0070
     27 C           0.3540    2.2482   26.5094 C.2     1  UNL1        0.0436
     28 CL          0.4737    2.5517   25.0452 Cl      1  UNL1       -0.0864
     29 C           0.9849    3.1613   27.5185 C.3     1  UNL1        0.1155
     30 C           0.8652    2.8579   28.9826 C.2     1  UNL1        0.2180
     31 N           1.3779    3.5685   30.2000 N.2     1  UNL1       -0.0385
     32 C           0.5980    4.3473   33.4590 C.ar    1  UNL1       -0.0068
     33 C           1.2012    4.9686   34.6837 C.ar    1  UNL1       -0.0035
     34 C           0.5599    6.1727   35.3075 C.ar    1  UNL1        0.0020
     35 C          -0.6847    6.7555   34.7063 C.ar    1  UNL1        0.0296
     36 C          -1.2879    6.1342   33.4816 C.ar    1  UNL1        0.1398
     37 F          -2.5325    6.7169   32.8804 F       1  UNL1       -0.2042
     38 C          -0.6466    4.9302   32.8579 C.ar    1  UNL1        0.0260
@<TRIPOS>BOND
     1    14    15    1
     2    15    16   ar
     3    16    17   ar
     4    17    18   ar
     5    18     6    1
     6     6     7   ar
     7     7     8   ar
     8     8     9    1
     9     8    10   ar
    10    10     2    1
    11     2     3    2
    12     2     4   am
    13     4     1    1
    14    20     1    1
    15    20    32    1
    16    32    33   ar
    17    33    34   ar
    18    34    35   ar
    19    35    36   ar
    20    36    37    1
    21    36    38   ar
    22    20    21    1
    23    21    22    2
    24    22    23    1
    25    23    24    2
    26    24    25    1
    27    24    26    1
    28    26    27    2
    29    27    28    1
    30    27    29    1
    31    29    30    1
    32    30    31    2
    33    10    11   ar
    34    11    12    1
    35    11    13   ar
    36    18    19   ar
    37    19    15   ar
    38    13     6   ar
    39    38    32   ar
    40    31    21    1
    41    30    23    1
    42     4     5    1
@<TRIPOS>MOLECULE
*****
 38 42 0 0 0
SMALL
GASTEIGER

@<TRIPOS>ATOM
      1 C           5.9933   -2.8257   25.7451 C.3     1  UNL1        0.1065
      2 C           4.7027   -0.6091   25.3317 C.2     1  UNL1        0.2475
      3 O           5.9931    0.0806   25.0009 O.2     1  UNL1       -0.2701
      4 N           4.7027   -2.0621   25.7038 N.am    1  UNL1       -0.2999
      5 H           3.8558   -2.5147   25.9209 H       1  UNL1        0.1498
      6 C           0.8314    1.6818   25.2075 C.ar    1  UNL1        0.0863
      7 C           1.2608    0.8698   24.0216 C.ar    1  UNL1        0.0308
      8 C           2.5512    0.1062   24.0630 C.ar    1  UNL1        0.0643
      9 CL          2.9805   -0.7057   22.8771 Cl      1  UNL1       -0.0820
     10 C           3.4123    0.1546   25.2903 C.ar    1  UNL1        0.0745
     11 C           2.9829    0.9665   26.4762 C.ar    1  UNL1        0.0643
     12 CL          3.8440    1.0149   27.7034 Cl      1  UNL1       -0.0820
     13 C           1.6925    1.7301   26.4348 C.ar    1  UNL1        0.0308
     14 C          -3.7347    3.9081   26.6480 C.3     1  UNL1        0.0756
     15 C          -2.5578    3.4687   25.8283 C.ar    1  UNL1        0.1613
     16 N          -2.3316    3.7723   24.3769 N.ar    1  UNL1       -0.2073
     17 C          -1.0345    3.1399   23.9677 C.ar    1  UNL1        0.2013
     18 N          -0.4590    2.4454   25.1663 N.ar    1  UNL1       -0.2083
     19 N          -1.4004    2.6486   26.3161 N.ar    1  UNL1       -0.1487
     20 C           6.3404   -3.7723   24.6346 C.3     1  UNL1        0.1537
     21 C           6.0561   -3.3949   23.2109 C.2     1  UNL1        0.3564
     22 N           5.1855   -4.1545   22.2544 N.2     1  UNL1       -0.0350
     23 C           5.1839   -3.4206   20.9463 C.2     1  UNL1        0.2278
     24 C           4.5029   -3.7003   19.6394 C.2     1  UNL1        0.0251
     25 C           3.6332   -4.9135   19.4913 C.3     1  UNL1        0.0351
     26 C           4.6915   -2.7667   18.4805 C.2     1  UNL1        0.0070
     27 C           5.5611   -1.5536   18.6285 C.2     1  UNL1        0.0436
     28 CL          5.7498   -0.6201   17.4696 Cl      1  UNL1       -0.0864
     29 C           6.2421   -1.2739   19.9354 C.3     1  UNL1        0.1155
     30 C           6.0535   -2.2074   21.0942 C.2     1  UNL1        0.2180
     31 N           6.5926   -2.1915   22.4939 N.2     1  UNL1       -0.0385
     32 C           6.9719   -5.0964   24.9477 C.ar    1  UNL1       -0.0068
     33 C           6.7656   -5.7262   26.2933 C.ar    1  UNL1       -0.0035
     34 C           7.3971   -7.0504   26.6065 C.ar    1  UNL1        0.0020
     35 C           8.2349   -7.7446   25.5739 C.ar    1  UNL1        0.0296
     36 C           8.4412   -7.1147   24.2283 C.ar    1  UNL1        0.1398
     37 F           9.2790   -7.8090   23.1957 F       1  UNL1       -0.2042
     38 C           7.8098   -5.7907   23.9151 C.ar    1  UNL1        0.0260
@<TRIPOS>BOND
     1    14    15    1
     2    15    16   ar
     3    16    17   ar
     4    17    18   ar
     5    18     6    1
     6     6     7   ar
     7     7     8   ar
     8     8     9    1
     9     8    10   ar
    10    10     2    1
    11     2     3    2
    12     2     4   am
    13     4     1    1
    14    20     1    1
    15    20    32    1
    16    32    33   ar
    17    33    34   ar
    18    34    35   ar
    19    35    36   ar
    20    36    37    1
    21    36    38   ar
    22    20    21    1
    23    21    22    2
    24    22    23    1
    25    23    24    2
    26    24    25    1
    27    24    26    1
    28    26    27    2
    29    27    28    1
    30    27    29    1
    31    29    30    1
    32    30    31    2
    33    10    11   ar
    34    11    12    1
    35    11    13   ar
    36    18    19   ar
    37    19    15   ar
    38    13     6   ar
    39    38    32   ar
    40    31    21    1
    41    30    23    1
    42     4     5    1
@<TRIPOS>MOLECULE
*****
 38 42 0 0 0
SMALL
GASTEIGER

@<TRIPOS>ATOM
      1 C           3.8029   -0.4622   29.7101 C.3     1  UNL1        0.1065
      2 C           4.5259   -0.3944   27.2156 C.2     1  UNL1        0.2475
      3 O           5.4747    0.7266   27.5210 O.2     1  UNL1       -0.2701
      4 N           3.6900   -0.9888   28.3101 N.am    1  UNL1       -0.2999
      5 H           3.0673   -1.7245   28.1096 H       1  UNL1        0.1498
      6 C           4.1873   -1.9740   23.0156 C.ar    1  UNL1        0.0863
      7 C           5.2459   -2.5077   23.9345 C.ar    1  UNL1        0.0308
      8 C           5.3588   -1.9811   25.3345 C.ar    1  UNL1        0.0643
      9 CL          6.4174   -2.5149   26.2533 Cl      1  UNL1       -0.0820
     10 C           4.4130   -0.9210   25.8156 C.ar    1  UNL1        0.0745
     11 C           3.3543   -0.3873   24.8967 C.ar    1  UNL1        0.0643
     12 CL          2.4086    0.6729   25.3778 Cl      1  UNL1       -0.0820
     13 C           3.2415   -0.9138   23.4967 C.ar    1  UNL1        0.0308
     14 C           4.5978   -5.0932   18.7749 C.3     1  UNL1        0.0756
     15 C           4.2630   -3.9341   19.6663 C.ar    1  UNL1        0.1613
     16 N           3.5379   -2.6869   19.2559 N.ar    1  UNL1       -0.2073
     17 C           3.4213   -1.8008   20.4605 C.ar    1  UNL1        0.2013
     18 N           4.0743   -2.5005   21.6155 N.ar    1  UNL1       -0.2083
     19 N           4.5945   -3.8189   21.1247 N.ar    1  UNL1       -0.1487
     20 C           2.6873    0.3500   30.2981 C.3     1  UNL1        0.1537
     21 C           2.7849    0.8470   31.7100 C.2     1  UNL1        0.3564
     22 N           3.6378    0.2589   32.7948 N.2     1  UNL1       -0.0350
     23 C           3.4267    1.0678   34.0402 C.2     1  UNL1        0.2278
     24 C           4.0028    0.9542   35.4205 C.2     1  UNL1        0.0251
     25 C           4.9862   -0.1338   35.7356 C.3     1  UNL1        0.0351
     26 C           3.5956    1.9287   36.4857 C.2     1  UNL1        0.0070
     27 C           2.6123    3.0167   36.1706 C.2     1  UNL1        0.0436
     28 CL          2.2051    3.9912   37.2358 Cl      1  UNL1       -0.0864
     29 C           2.0362    3.1303   34.7904 C.3     1  UNL1        0.1155
     30 C           2.4433    2.1559   33.7252 C.2     1  UNL1        0.2180
     31 N           2.0467    2.0194   32.2850 N.2     1  UNL1       -0.0385
     32 C           1.4742    0.6653   29.4742 C.ar    1  UNL1       -0.0068
     33 C           1.4361    1.9129   28.6423 C.ar    1  UNL1       -0.0035
     34 C           0.2230    2.2282   27.8183 C.ar    1  UNL1        0.0020
     35 C          -0.9521    1.2959   27.8262 C.ar    1  UNL1        0.0296
     36 C          -0.9140    0.0483   28.6581 C.ar    1  UNL1        0.1398
     37 F          -2.0890   -0.8840   28.6661 F       1  UNL1       -0.2042
     38 C           0.2991   -0.2670   29.4821 C.ar    1  UNL1        0.0260
@<TRIPOS>BOND
     1    14    15    1
     2    15    16   ar
     3    16    17   ar
     4    17    18   ar
     5    18     6    1
     6     6     7   ar
     7     7     8   ar
     8     8     9    1
     9     8    10   ar
    10    10     2    1
    11     2     3    2
    12     2     4   am
    13     4     1    1
    14    20     1    1
    15    20    32    1
    16    32    33   ar
    17    33    34   ar
    18    34    35   ar
    19    35    36   ar
    20    36    37    1
    21    36    38   ar
    22    20    21    1
    23    21    22    2
    24    22    23    1
    25    23    24    2
    26    24    25    1
    27    24    26    1
    28    26    27    2
    29    27    28    1
    30    27    29    1
    31    29    30    1
    32    30    31    2
    33    10    11   ar
    34    11    12    1
    35    11    13   ar
    36    18    19   ar
    37    19    15   ar
    38    13     6   ar
    39    38    32   ar
    40    31    21    1
    41    30    23    1
    42     4     5    1
@<TRIPOS>MOLECULE
*****
 38 42 0 0 0
SMALL
GASTEIGER

@<TRIPOS>ATOM
      1 C           6.2398   -3.1512   25.5578 C.3     1  UNL1        0.1065
      2 C           4.9381   -0.9041   25.4805 C.2     1  UNL1        0.2475
      3 O           6.2187   -0.1715   25.2096 O.2     1  UNL1       -0.2701
      4 N           4.9486   -2.3939   25.6546 N.am    1  UNL1       -0.2999
      5 H           4.1080   -2.8747   25.8325 H       1  UNL1        0.1498
      6 C           1.0646    1.3680   25.7709 C.ar    1  UNL1        0.0863
      7 C           1.9585    1.2532   26.9699 C.ar    1  UNL1        0.0308
      8 C           3.2497    0.4959   26.8731 C.ar    1  UNL1        0.0643
      9 CL          4.1435    0.3811   28.0722 Cl      1  UNL1       -0.0820
     10 C           3.6469   -0.1468   25.5773 C.ar    1  UNL1        0.0745
     11 C           2.7530   -0.0320   24.3782 C.ar    1  UNL1        0.0643
     12 CL          3.1503   -0.6746   23.0824 Cl      1  UNL1       -0.0820
     13 C           1.4619    0.7254   24.4750 C.ar    1  UNL1        0.0308
     14 C          -3.3505    3.9537   24.4665 C.3     1  UNL1        0.0756
     15 C          -2.2559    3.3138   25.2681 C.ar    1  UNL1        0.1613
     16 N          -2.1709    3.2676   26.7649 N.ar    1  UNL1       -0.2073
     17 C          -0.9166    2.5331   27.1355 C.ar    1  UNL1        0.2013
     18 N          -0.2265    2.1253   25.8676 N.ar    1  UNL1       -0.2083
     19 N          -1.0542    2.6079   24.7135 N.ar    1  UNL1       -0.1487
     20 C           6.5588   -3.9344   24.3189 C.3     1  UNL1        0.1537
     21 C           6.1051   -3.4358   22.9789 C.2     1  UNL1        0.3564
     22 N           5.2507   -4.1874   22.0016 N.2     1  UNL1       -0.0350
     23 C           5.0437   -3.3142   20.7997 C.2     1  UNL1        0.2278
     24 C           4.2876   -3.5281   19.5220 C.2     1  UNL1        0.0251
     25 C           3.5610   -4.8193   19.2875 C.3     1  UNL1        0.0351
     26 C           4.2580   -2.4507   18.4787 C.2     1  UNL1        0.0070
     27 C           4.9845   -1.1595   18.7131 C.2     1  UNL1        0.0436
     28 CL          4.9549   -0.0821   17.6699 Cl      1  UNL1       -0.0864
     29 C           5.7406   -0.9457   19.9908 C.3     1  UNL1        0.1155
     30 C           5.7703   -2.0230   21.0341 C.2     1  UNL1        0.2180
     31 N           6.4262   -2.0982   22.3809 N.2     1  UNL1       -0.0385
     32 C           7.3315   -5.2160   24.4200 C.ar    1  UNL1       -0.0068
     33 C           8.2700   -5.6147   23.3199 C.ar    1  UNL1       -0.0035
     34 C           9.0428   -6.8965   23.4210 C.ar    1  UNL1        0.0020
     35 C           8.8770   -7.7794   24.6222 C.ar    1  UNL1        0.0296
     36 C           7.9385   -7.3807   25.7223 C.ar    1  UNL1        0.1398
     37 F           7.7727   -8.2637   26.9235 F       1  UNL1       -0.2042
     38 C           7.1657   -6.0991   25.6212 C.ar    1  UNL1        0.0260
@<TRIPOS>BOND
     1    14    15    1
     2    15    16   ar
     3    16    17   ar
     4    17    18   ar
     5    18     6    1
     6     6     7   ar
     7     7     8   ar
     8     8     9    1
     9     8    10   ar
    10    10     2    1
    11     2     3    2
    12     2     4   am
    13     4     1    1
    14    20     1    1
    15    20    32    1
    16    32    33   ar
    17    33    34   ar
    18    34    35   ar
    19    35    36   ar
    20    36    37    1
    21    36    38   ar
    22    20    21    1
    23    21    22    2
    24    22    23    1
    25    23    24    2
    26    24    25    1
    27    24    26    1
    28    26    27    2
    29    27    28    1
    30    27    29    1
    31    29    30    1
    32    30    31    2
    33    10    11   ar
    34    11    12    1
    35    11    13   ar
    36    18    19   ar
    37    19    15   ar
    38    13     6   ar
    39    38    32   ar
    40    31    21    1
    41    30    23    1
    42     4     5    1
@<TRIPOS>MOLECULE
*****
 38 42 0 0 0
SMALL
GASTEIGER

@<TRIPOS>ATOM
      1 C           4.5439   -2.3635   33.6210 C.3     1  UNL1        0.1065
      2 C           6.2193   -2.9724   31.7309 C.2     1  UNL1        0.2475
      3 O           7.3618   -2.5574   32.6099 O.2     1  UNL1       -0.2701
      4 N           4.8104   -2.8755   32.2364 N.am    1  UNL1       -0.2999
      5 H           4.0606   -3.1478   31.6595 H       1  UNL1        0.1498
      6 C           7.0190   -4.5081   27.5774 C.ar    1  UNL1        0.0863
      7 C           6.6151   -3.0783   27.7835 C.ar    1  UNL1        0.0308
      8 C           6.3485   -2.5664   29.1680 C.ar    1  UNL1        0.0643
      9 CL          5.9446   -1.1366   29.3741 Cl      1  UNL1       -0.0820
     10 C           6.4859   -3.4843   30.3464 C.ar    1  UNL1        0.0745
     11 C           6.8898   -4.9141   30.1403 C.ar    1  UNL1        0.0643
     12 CL          7.0272   -5.8320   31.3187 Cl      1  UNL1       -0.0820
     13 C           7.1563   -5.4260   28.7557 C.ar    1  UNL1        0.0308
     14 C           7.9215   -4.6915   22.3780 C.3     1  UNL1        0.0756
     15 C           7.7004   -5.1045   23.8031 C.ar    1  UNL1        0.1613
     16 N           7.6912   -6.5118   24.3218 N.ar    1  UNL1       -0.2073
     17 C           7.4348   -6.4597   25.7988 C.ar    1  UNL1        0.2013
     18 N           7.2856   -5.0201   26.1928 N.ar    1  UNL1       -0.2083
     19 N           7.4497   -4.1826   24.9594 N.ar    1  UNL1       -0.1487
     20 C           4.4337   -0.8879   33.8666 C.3     1  UNL1        0.1537
     21 C           3.6138   -0.0335   32.9460 C.2     1  UNL1        0.3564
     22 N           2.9847   -0.4767   31.6584 N.2     1  UNL1       -0.0350
     23 C           2.2611    0.6971   31.0680 C.2     1  UNL1        0.2278
     24 C           1.4600    0.8527   29.8094 C.2     1  UNL1        0.0251
     25 C           1.2782   -0.3158   28.8866 C.3     1  UNL1        0.0351
     26 C           0.8408    2.1771   29.4735 C.2     1  UNL1        0.0070
     27 C           1.0226    3.3456   30.3961 C.2     1  UNL1        0.0436
     28 CL          0.4034    4.6700   30.0602 Cl      1  UNL1       -0.0864
     29 C           1.8236    3.1900   31.6547 C.3     1  UNL1        0.1155
     30 C           2.4428    1.8657   31.9907 C.2     1  UNL1        0.2180
     31 N           3.2789    1.4142   33.1514 N.2     1  UNL1       -0.0385
     32 C           5.1436   -0.2667   35.0329 C.ar    1  UNL1       -0.0068
     33 C           6.6222   -0.0231   34.9678 C.ar    1  UNL1       -0.0035
     34 C           7.3321    0.5982   36.1341 C.ar    1  UNL1        0.0020
     35 C           6.5633    0.9757   37.3655 C.ar    1  UNL1        0.0296
     36 C           5.0847    0.7321   37.4306 C.ar    1  UNL1        0.1398
     37 F           4.3159    1.1096   38.6621 F       1  UNL1       -0.2042
     38 C           4.3748    0.1109   36.2644 C.ar    1  UNL1        0.0260
@<TRIPOS>BOND
     1    14    15    1
     2    15    16   ar
     3    16    17   ar
     4    17    18   ar
     5    18     6    1
     6     6     7   ar
     7     7     8   ar
     8     8     9    1
     9     8    10   ar
    10    10     2    1
    11     2     3    2
    12     2     4   am
    13     4     1    1
    14    20     1    1
    15    20    32    1
    16    32    33   ar
    17    33    34   ar
    18    34    35   ar
    19    35    36   ar
    20    36    37    1
    21    36    38   ar
    22    20    21    1
    23    21    22    2
    24    22    23    1
    25    23    24    2
    26    24    25    1
    27    24    26    1
    28    26    27    2
    29    27    28    1
    30    27    29    1
    31    29    30    1
    32    30    31    2
    33    10    11   ar
    34    11    12    1
    35    11    13   ar
    36    18    19   ar
    37    19    15   ar
    38    13     6   ar
    39    38    32   ar
    40    31    21    1
    41    30    23    1
    42     4     5    1
@<TRIPOS>MOLECULE
*****
 38 42 0 0 0
SMALL
GASTEIGER

@<TRIPOS>ATOM
      1 C           3.4023   -0.3507   29.7945 C.3     1  UNL1        0.1065
      2 C           4.0224   -0.1271   27.2815 C.2     1  UNL1        0.2475
      3 O           4.7157    1.1719   27.5681 O.2     1  UNL1       -0.2701
      4 N           3.3657   -0.8884   28.3947 N.am    1  UNL1       -0.2999
      5 H           2.9107   -1.7409   28.2065 H       1  UNL1        0.1498
      6 C           3.9128   -1.7400   23.0819 C.ar    1  UNL1        0.0863
      7 C           2.9576   -0.6600   23.4957 C.ar    1  UNL1        0.0308
      8 C           2.9942   -0.1224   24.8956 C.ar    1  UNL1        0.0643
      9 CL          2.0390    0.9576   25.3093 Cl      1  UNL1       -0.0820
     10 C           3.9859   -0.6647   25.8816 C.ar    1  UNL1        0.0745
     11 C           4.9410   -1.7447   25.4678 C.ar    1  UNL1        0.0643
     12 CL          5.9327   -2.2871   26.4539 Cl      1  UNL1       -0.0820
     13 C           4.9045   -2.2824   24.0679 C.ar    1  UNL1        0.0308
     14 C           4.5443   -4.8974   18.8970 C.3     1  UNL1        0.0756
     15 C           4.1665   -3.7289   19.7584 C.ar    1  UNL1        0.1613
     16 N           3.4737   -2.4810   19.2973 N.ar    1  UNL1       -0.2073
     17 C           3.2943   -1.5841   20.4861 C.ar    1  UNL1        0.2013
     18 N           3.8763   -2.2777   21.6820 N.ar    1  UNL1       -0.2083
     19 N           4.4153   -3.6032   21.2323 N.ar    1  UNL1       -0.1487
     20 C           2.3576    0.6241   30.2510 C.3     1  UNL1        0.1537
     21 C           2.4392    1.2227   31.6240 C.2     1  UNL1        0.3564
     22 N           1.7488    2.4727   32.0833 N.2     1  UNL1       -0.0350
     23 C           2.1084    2.6988   33.5218 C.2     1  UNL1        0.2278
     24 C           1.7228    3.7723   34.4960 C.2     1  UNL1        0.0251
     25 C           0.8102    4.8826   34.0662 C.3     1  UNL1        0.0351
     26 C           2.2497    3.7355   35.8999 C.2     1  UNL1        0.0070
     27 C           3.1622    2.6254   36.3297 C.2     1  UNL1        0.0436
     28 CL          3.6891    2.5886   37.7337 Cl      1  UNL1       -0.0864
     29 C           3.5478    1.5519   35.3556 C.3     1  UNL1        0.1155
     30 C           3.0210    1.5886   33.9517 C.2     1  UNL1        0.2180
     31 N           3.2254    0.6763   32.7787 N.2     1  UNL1       -0.0385
     32 C           1.2314    1.0003   29.3345 C.ar    1  UNL1       -0.0068
     33 C           0.0856    0.0548   29.1269 C.ar    1  UNL1       -0.0035
     34 C          -1.0408    0.4309   28.2104 C.ar    1  UNL1        0.0020
     35 C          -1.0212    1.7527   27.5014 C.ar    1  UNL1        0.0296
     36 C           0.1246    2.6982   27.7090 C.ar    1  UNL1        0.1398
     37 F           0.1442    4.0200   27.0000 F       1  UNL1       -0.2042
     38 C           1.2509    2.3221   28.6255 C.ar    1  UNL1        0.0260
@<TRIPOS>BOND
     1    14    15    1
     2    15    16   ar
     3    16    17   ar
     4    17    18   ar
     5    18     6    1
     6     6     7   ar
     7     7     8   ar
     8     8     9    1
     9     8    10   ar
    10    10     2    1
    11     2     3    2
    12     2     4   am
    13     4     1    1
    14    20     1    1
    15    20    32    1
    16    32    33   ar
    17    33    34   ar
    18    34    35   ar
    19    35    36   ar
    20    36    37    1
    21    36    38   ar
    22    20    21    1
    23    21    22    2
    24    22    23    1
    25    23    24    2
    26    24    25    1
    27    24    26    1
    28    26    27    2
    29    27    28    1
    30    27    29    1
    31    29    30    1
    32    30    31    2
    33    10    11   ar
    34    11    12    1
    35    11    13   ar
    36    18    19   ar
    37    19    15   ar
    38    13     6   ar
    39    38    32   ar
    40    31    21    1
    41    30    23    1
    42     4     5    1
@<TRIPOS>MOLECULE
*****
 38 42 0 0 0
SMALL
GASTEIGER

@<TRIPOS>ATOM
      1 C           4.9133   -2.1522   33.3259 C.3     1  UNL1        0.1065
      2 C           6.5986   -3.1784   31.6357 C.2     1  UNL1        0.2475
      3 O           7.7403   -2.6798   32.4714 O.2     1  UNL1       -0.2701
      4 N           5.1851   -2.9145   32.0630 N.am    1  UNL1       -0.2999
      5 H           4.4359   -3.2417   31.5145 H       1  UNL1        0.1498
      6 C           7.4144   -5.4654   27.8471 C.ar    1  UNL1        0.0863
      7 C           7.1162   -3.9965   27.7870 C.ar    1  UNL1        0.0308
      8 C           6.8442   -3.2342   29.0499 C.ar    1  UNL1        0.0643
      9 CL          6.5460   -1.7654   28.9898 Cl      1  UNL1       -0.0820
     10 C           6.8705   -3.9407   30.3728 C.ar    1  UNL1        0.0745
     11 C           7.1688   -5.4095   30.4329 C.ar    1  UNL1        0.0643
     12 CL          7.1951   -6.1160   31.7558 Cl      1  UNL1       -0.0820
     13 C           7.4407   -6.1718   29.1700 C.ar    1  UNL1        0.0308
     14 C           8.7872   -6.6363   22.8846 C.3     1  UNL1        0.0756
     15 C           8.3174   -6.7661   24.3033 C.ar    1  UNL1        0.1613
     16 N           7.8923   -8.0361   24.9786 N.ar    1  UNL1       -0.2073
     17 C           7.5023   -7.7035   26.3883 C.ar    1  UNL1        0.2013
     18 N           7.6864   -6.2278   26.5842 N.ar    1  UNL1       -0.2083
     19 N           8.1901   -5.6484   25.2956 N.ar    1  UNL1       -0.1487
     20 C           4.2624   -0.8023   33.2617 C.3     1  UNL1        0.1537
     21 C           3.7185   -0.2931   31.9598 C.2     1  UNL1        0.3564
     22 N           4.3869    0.6960   31.0515 N.2     1  UNL1       -0.0350
     23 C           3.4921    0.9167   29.8680 C.2     1  UNL1        0.2278
     24 C           3.6317    1.7840   28.6522 C.2     1  UNL1        0.0251
     25 C           4.8531    2.6366   28.4752 C.3     1  UNL1        0.0351
     26 C           2.5498    1.7986   27.6132 C.2     1  UNL1        0.0070
     27 C           1.3285    0.9460   27.7900 C.2     1  UNL1        0.0436
     28 CL          0.2467    0.9606   26.7510 Cl      1  UNL1       -0.0864
     29 C           1.1889    0.0787   29.0059 C.3     1  UNL1        0.1155
     30 C           2.2707    0.0641   30.0449 C.2     1  UNL1        0.2180
     31 N           2.4106   -0.6836   31.3377 N.2     1  UNL1       -0.0385
     32 C           4.1555    0.0384   34.4993 C.ar    1  UNL1       -0.0068
     33 C           4.8352   -0.3978   35.7633 C.ar    1  UNL1       -0.0035
     34 C           4.7284    0.4429   37.0011 C.ar    1  UNL1        0.0020
     35 C           3.9418    1.7198   36.9747 C.ar    1  UNL1        0.0296
     36 C           3.2622    2.1561   35.7107 C.ar    1  UNL1        0.1398
     37 F           2.4756    3.4331   35.6843 F       1  UNL1       -0.2042
     38 C           3.3690    1.3154   34.4730 C.ar    1  UNL1        0.0260
@<TRIPOS>BOND
     1    14    15    1
     2    15    16   ar
     3    16    17   ar
     4    17    18   ar
     5    18     6    1
     6     6     7   ar
     7     7     8   ar
     8     8     9    1
     9     8    10   ar
    10    10     2    1
    11     2     3    2
    12     2     4   am
    13     4     1    1
    14    20     1    1
    15    20    32    1
    16    32    33   ar
    17    33    34   ar
    18    34    35   ar
    19    35    36   ar
    20    36    37    1
    21    36    38   ar
    22    20    21    1
    23    21    22    2
    24    22    23    1
    25    23    24    2
    26    24    25    1
    27    24    26    1
    28    26    27    2
    29    27    28    1
    30    27    29    1
    31    29    30    1
    32    30    31    2
    33    10    11   ar
    34    11    12    1
    35    11    13   ar
    36    18    19   ar
    37    19    15   ar
    38    13     6   ar
    39    38    32   ar
    40    31    21    1
    41    30    23    1
    42     4     5    1
