@<TRIPOS>MOLECULE
*****
 29 32 0 0 0
SMALL
GASTEIGER

@<TRIPOS>ATOM
      1 C          -5.8210  -19.8861   21.1834 C.3     1  UNL1        0.0071
      2 C          -6.6814  -20.2978   22.3411 C.3     1  UNL1        0.0177
      3 C          -8.1485  -19.9854   22.3336 C.3     1  UNL1        0.0721
      4 N          -8.7552  -19.2614   21.1685 N.3     1  UNL1       -0.2724
      5 C          -7.8949  -18.8496   20.0108 C.3     1  UNL1        0.0721
      6 C          -6.4278  -19.1620   20.0182 C.3     1  UNL1        0.0177
      7 C          -4.3539  -20.1984   21.1908 C.3     1  UNL1        0.0270
      8 C          -1.6559  -17.9810   19.3058 C.ar    1  UNL1        0.1385
      9 C          -1.3572  -16.9480   20.3516 C.ar    1  UNL1        0.0374
     10 C          -2.0574  -16.9985   21.6771 C.ar    1  UNL1        0.0095
     11 C          -3.0563  -18.0820   21.9569 C.ar    1  UNL1        0.0308
     12 BR         -3.7566  -18.1324   23.2825 Br      1  UNL1       -0.0493
     13 C          -3.3550  -19.1149   20.9111 C.ar    1  UNL1       -0.0130
     14 C          -2.6548  -19.0644   19.5855 C.ar    1  UNL1        0.0331
     15 C          -1.7289  -17.6110   16.7352 C.3     1  UNL1        0.2525
     16 O          -0.9557  -17.9305   17.9802 O.3     1  UNL1       -0.4714
     17 C         -10.2223  -18.9490   21.1611 C.3     1  UNL1        0.0768
     18 C         -10.7680  -17.8889   22.0712 C.3     1  UNL1        0.0446
     19 C         -10.0514  -17.5528   23.3455 C.ar    1  UNL1       -0.0070
     20 C          -8.9469  -16.5380   23.3395 C.ar    1  UNL1        0.0367
     21 C          -8.2303  -16.2019   24.6137 C.ar    1  UNL1        0.1721
     22 C          -8.6183  -16.8806   25.8939 C.ar    1  UNL1        0.1732
     23 C          -9.7230  -17.8954   25.8998 C.ar    1  UNL1        0.0511
     24 C         -10.4395  -18.2315   24.6256 C.ar    1  UNL1        0.0570
     25 CL        -11.5442  -19.2463   24.6316 Cl      1  UNL1       -0.0825
     26 O          -7.9018  -16.5445   27.1681 O.3     1  UNL1       -0.4683
     27 C          -6.7972  -15.5297   27.1621 C.3     1  UNL1        0.2526
     28 C          -6.4091  -14.8511   25.8819 C.3     1  UNL1        0.2526
     29 O          -7.1257  -15.1871   24.6077 O.3     1  UNL1       -0.4684
@<TRIPOS>BOND
     1    15    16    1
     2    16     8    1
     3     8     9   ar
     4     9    10   ar
     5    10    11   ar
     6    11    12    1
     7    11    13   ar
     8    13     7    1
     9     7     1    1
    10     1     2    1
    11     2     3    1
    12     3     4    1
    13     4    17    1
    14    17    18    1
    15    18    19    1
    16    19    20   ar
    17    20    21   ar
    18    21    22   ar
    19    22    23   ar
    20    23    24   ar
    21    24    25    1
    22    22    26    1
    23    26    27    1
    24    27    28    1
    25    28    29    1
    26     4     5    1
    27     5     6    1
    28    13    14   ar
    29    14     8   ar
    30     6     1    1
    31    24    19   ar
    32    29    21    1
@<TRIPOS>MOLECULE
*****
 29 32 0 0 0
SMALL
GASTEIGER

@<TRIPOS>ATOM
      1 C          -6.6756  -19.8427   20.7040 C.3     1  UNL1        0.0071
      2 C          -7.2399  -20.1305   22.0636 C.3     1  UNL1        0.0177
      3 C          -8.7228  -20.0853   22.2852 C.3     1  UNL1        0.0721
      4 N          -9.6413  -19.7523   21.1471 N.3     1  UNL1       -0.2724
      5 C          -9.0771  -19.4644   19.7874 C.3     1  UNL1        0.0721
      6 C          -7.5942  -19.5096   19.5658 C.3     1  UNL1        0.0177
      7 C          -5.1928  -19.8879   20.4824 C.3     1  UNL1        0.0270
      8 C          -3.7791  -17.3770   23.2113 C.ar    1  UNL1        0.1385
      9 C          -2.5180  -16.9139   22.5442 C.ar    1  UNL1        0.0374
     10 C          -2.1484  -17.4422   21.1898 C.ar    1  UNL1        0.0095
     11 C          -3.0400  -18.4335   20.5026 C.ar    1  UNL1        0.0308
     12 BR         -2.6704  -18.9618   19.1481 Br      1  UNL1       -0.0493
     13 C          -4.3012  -18.8966   21.1696 C.ar    1  UNL1       -0.0130
     14 C          -4.6707  -18.3683   22.5240 C.ar    1  UNL1        0.0331
     15 C          -4.9852  -15.6093   24.6847 C.3     1  UNL1        0.2525
     16 O          -4.1487  -16.8488   24.5657 O.3     1  UNL1       -0.4714
     17 C         -11.1242  -19.7071   21.3687 C.3     1  UNL1        0.0768
     18 C         -11.7060  -18.7373   22.3540 C.3     1  UNL1        0.0446
     19 C         -10.8015  -17.8478   23.1545 C.ar    1  UNL1       -0.0070
     20 C         -10.4416  -18.2165   24.5632 C.ar    1  UNL1        0.0367
     21 C          -9.5371  -17.3270   25.3636 C.ar    1  UNL1        0.1721
     22 C          -8.9924  -16.0688   24.7553 C.ar    1  UNL1        0.1732
     23 C          -9.3523  -15.7000   23.3465 C.ar    1  UNL1        0.0511
     24 C         -10.2568  -16.5895   22.5461 C.ar    1  UNL1        0.0570
     25 CL        -10.6167  -16.2207   21.1374 Cl      1  UNL1       -0.0825
     26 O          -8.0879  -15.1793   25.5556 O.3     1  UNL1       -0.4683
     27 C          -7.7280  -15.5480   26.9643 C.3     1  UNL1        0.2526
     28 C          -8.2727  -16.8063   27.5726 C.3     1  UNL1        0.2526
     29 O          -9.1772  -17.6958   26.7723 O.3     1  UNL1       -0.4684
@<TRIPOS>BOND
     1    15    16    1
     2    16     8    1
     3     8     9   ar
     4     9    10   ar
     5    10    11   ar
     6    11    12    1
     7    11    13   ar
     8    13     7    1
     9     7     1    1
    10     1     2    1
    11     2     3    1
    12     3     4    1
    13     4    17    1
    14    17    18    1
    15    18    19    1
    16    19    20   ar
    17    20    21   ar
    18    21    22   ar
    19    22    23   ar
    20    23    24   ar
    21    24    25    1
    22    22    26    1
    23    26    27    1
    24    27    28    1
    25    28    29    1
    26     4     5    1
    27     5     6    1
    28    13    14   ar
    29    14     8   ar
    30     6     1    1
    31    24    19   ar
    32    29    21    1
@<TRIPOS>MOLECULE
*****
 29 32 0 0 0
SMALL
GASTEIGER

@<TRIPOS>ATOM
      1 C          -9.7994  -16.8156   23.6277 C.3     1  UNL1        0.0071
      2 C         -10.1844  -16.2317   22.3007 C.3     1  UNL1        0.0177
      3 C         -10.5726  -17.1353   21.1680 C.3     1  UNL1        0.0721
      4 N         -10.5759  -18.6226   21.3623 N.3     1  UNL1       -0.2724
      5 C         -10.1909  -19.2065   22.6893 C.3     1  UNL1        0.0721
      6 C          -9.8027  -18.3030   23.8219 C.3     1  UNL1        0.0177
      7 C          -9.4112  -15.9122   24.7604 C.3     1  UNL1        0.0270
      8 C          -5.5600  -15.1116   24.2336 C.ar    1  UNL1        0.1385
      9 C          -5.0647  -15.1580   25.6487 C.ar    1  UNL1        0.0374
     10 C          -6.0182  -15.4557   26.7676 C.ar    1  UNL1        0.0095
     11 C          -7.4670  -15.7072   26.4715 C.ar    1  UNL1        0.0308
     12 BR         -8.4205  -16.0049   27.5906 Br      1  UNL1       -0.0493
     13 C          -7.9623  -15.6608   25.0565 C.ar    1  UNL1       -0.0130
     14 C          -7.0088  -15.3630   23.9375 C.ar    1  UNL1        0.0331
     15 C          -3.5287  -15.7971   22.7659 C.3     1  UNL1        0.2525
     16 O          -4.6065  -14.8138   23.1145 O.3     1  UNL1       -0.4714
     17 C         -10.9641  -19.5260   20.2296 C.3     1  UNL1        0.0768
     18 C         -10.0248  -19.7314   19.0783 C.3     1  UNL1        0.0446
     19 C          -8.5828  -20.0550   19.3353 C.ar    1  UNL1       -0.0070
     20 C          -7.7510  -19.1457   20.1905 C.ar    1  UNL1        0.0367
     21 C          -6.3090  -19.4693   20.4475 C.ar    1  UNL1        0.1721
     22 C          -5.6989  -20.7021   19.8493 C.ar    1  UNL1        0.1732
     23 C          -6.5307  -21.6114   18.9941 C.ar    1  UNL1        0.0511
     24 C          -7.9727  -21.2878   18.7371 C.ar    1  UNL1        0.0570
     25 CL         -8.8045  -22.1971   17.8819 Cl      1  UNL1       -0.0825
     26 O          -4.2570  -21.0257   20.1063 O.3     1  UNL1       -0.4683
     27 C          -3.4252  -20.1165   20.9615 C.3     1  UNL1        0.2526
     28 C          -4.0353  -18.8837   21.5597 C.3     1  UNL1        0.2526
     29 O          -5.4773  -18.5601   21.3027 O.3     1  UNL1       -0.4684
@<TRIPOS>BOND
     1    15    16    1
     2    16     8    1
     3     8     9   ar
     4     9    10   ar
     5    10    11   ar
     6    11    12    1
     7    11    13   ar
     8    13     7    1
     9     7     1    1
    10     1     2    1
    11     2     3    1
    12     3     4    1
    13     4    17    1
    14    17    18    1
    15    18    19    1
    16    19    20   ar
    17    20    21   ar
    18    21    22   ar
    19    22    23   ar
    20    23    24   ar
    21    24    25    1
    22    22    26    1
    23    26    27    1
    24    27    28    1
    25    28    29    1
    26     4     5    1
    27     5     6    1
    28    13    14   ar
    29    14     8   ar
    30     6     1    1
    31    24    19   ar
    32    29    21    1
@<TRIPOS>MOLECULE
*****
 29 32 0 0 0
SMALL
GASTEIGER

@<TRIPOS>ATOM
      1 C           4.5299   -3.1470   20.5071 C.3     1  UNL1        0.0071
      2 C           5.9434   -3.4470   20.1047 C.3     1  UNL1        0.0177
      3 C           6.9718   -3.7560   21.1521 C.3     1  UNL1        0.0721
      4 N           6.5867   -3.7650   22.6017 N.3     1  UNL1       -0.2724
      5 C           5.1732   -3.4649   23.0041 C.3     1  UNL1        0.0721
      6 C           4.1448   -3.1559   21.9568 C.3     1  UNL1        0.0177
      7 C           3.5015   -2.8380   19.4598 C.3     1  UNL1        0.0270
      8 C           1.1767    0.3108   20.1160 C.ar    1  UNL1        0.1385
      9 C           1.7687    1.3042   19.1608 C.ar    1  UNL1        0.0374
     10 C           2.9383    0.9170   18.3052 C.ar    1  UNL1        0.0095
     11 C           3.5159   -0.4638   18.4049 C.ar    1  UNL1        0.0308
     12 BR          4.6855   -0.8510   17.5492 Br      1  UNL1       -0.0493
     13 C           2.9239   -1.4572   19.3601 C.ar    1  UNL1       -0.0130
     14 C           1.7543   -1.0700   20.2157 C.ar    1  UNL1        0.0331
     15 C          -0.1771    2.1273   21.3879 C.3     1  UNL1        0.2525
     16 O           0.0071    0.6980   20.9717 O.3     1  UNL1       -0.4714
     17 C           7.6151   -4.0740   23.6490 C.3     1  UNL1        0.0768
     18 C           7.6934   -5.4503   24.2403 C.3     1  UNL1        0.0446
     19 C           7.6585   -5.6300   25.7291 C.ar    1  UNL1       -0.0070
     20 C           7.1415   -4.5281   26.6057 C.ar    1  UNL1        0.0367
     21 C           7.1066   -4.7079   28.0945 C.ar    1  UNL1        0.1721
     22 C           7.5887   -5.9896   28.7067 C.ar    1  UNL1        0.1732
     23 C           8.1057   -7.0915   27.8301 C.ar    1  UNL1        0.0511
     24 C           8.1406   -6.9117   26.3413 C.ar    1  UNL1        0.0570
     25 CL          8.6577   -8.0137   25.4647 Cl      1  UNL1       -0.0825
     26 O           7.5538   -6.1694   30.1955 O.3     1  UNL1       -0.4683
     27 C           7.0368   -5.0675   31.0720 C.3     1  UNL1        0.2526
     28 C           6.5547   -3.7857   30.4599 C.3     1  UNL1        0.2526
     29 O           6.5896   -3.6059   28.9711 O.3     1  UNL1       -0.4684
@<TRIPOS>BOND
     1    15    16    1
     2    16     8    1
     3     8     9   ar
     4     9    10   ar
     5    10    11   ar
     6    11    12    1
     7    11    13   ar
     8    13     7    1
     9     7     1    1
    10     1     2    1
    11     2     3    1
    12     3     4    1
    13     4    17    1
    14    17    18    1
    15    18    19    1
    16    19    20   ar
    17    20    21   ar
    18    21    22   ar
    19    22    23   ar
    20    23    24   ar
    21    24    25    1
    22    22    26    1
    23    26    27    1
    24    27    28    1
    25    28    29    1
    26     4     5    1
    27     5     6    1
    28    13    14   ar
    29    14     8   ar
    30     6     1    1
    31    24    19   ar
    32    29    21    1
@<TRIPOS>MOLECULE
*****
 29 32 0 0 0
SMALL
GASTEIGER

@<TRIPOS>ATOM
      1 C           6.7914   -3.9322   22.5728 C.3     1  UNL1        0.0071
      2 C           5.4381   -3.5310   23.0803 C.3     1  UNL1        0.0177
      3 C           4.3413   -3.2012   22.1115 C.3     1  UNL1        0.0721
      4 N           4.5979   -3.2726   20.6354 N.3     1  UNL1       -0.2724
      5 C           5.9513   -3.6738   20.1279 C.3     1  UNL1        0.0721
      6 C           7.0480   -4.0036   21.0966 C.3     1  UNL1        0.0177
      7 C           7.8881   -4.2620   23.5415 C.3     1  UNL1        0.0270
      8 C           6.7252   -5.9632   26.9332 C.ar    1  UNL1        0.1385
      9 C           7.2162   -7.3658   26.7297 C.ar    1  UNL1        0.0374
     10 C           7.9312   -7.7339   25.4635 C.ar    1  UNL1        0.0095
     11 C           8.1552   -6.6992   24.4008 C.ar    1  UNL1        0.0308
     12 BR          8.8703   -7.0673   23.1346 Br      1  UNL1       -0.0493
     13 C           7.6642   -5.2966   24.6042 C.ar    1  UNL1       -0.0130
     14 C           6.9491   -4.9286   25.8704 C.ar    1  UNL1        0.0331
     15 C           6.7722   -5.4871   29.4868 C.3     1  UNL1        0.2525
     16 O           6.0101   -5.5951   28.1994 O.3     1  UNL1       -0.4714
     17 C           3.5012   -2.9428   19.6667 C.3     1  UNL1        0.0768
     18 C           3.6969   -1.8531   18.6547 C.3     1  UNL1        0.0446
     19 C           3.0303   -0.5230   18.8464 C.ar    1  UNL1       -0.0070
     20 C           1.7480   -0.4312   19.6191 C.ar    1  UNL1        0.0367
     21 C           1.0814    0.8988   19.8108 C.ar    1  UNL1        0.1721
     22 C           1.6971    2.1370   19.2297 C.ar    1  UNL1        0.1732
     23 C           2.9795    2.0452   18.4569 C.ar    1  UNL1        0.0511
     24 C           3.6461    0.7152   18.2653 C.ar    1  UNL1        0.0570
     25 CL          4.9285    0.6233   17.4925 Cl      1  UNL1       -0.0825
     26 O           1.0306    3.4670   19.4213 O.3     1  UNL1       -0.4683
     27 C          -0.2518    3.5588   20.1941 C.3     1  UNL1        0.2526
     28 C          -0.8675    2.3206   20.7752 C.3     1  UNL1        0.2526
     29 O          -0.2010    0.9906   20.5835 O.3     1  UNL1       -0.4684
@<TRIPOS>BOND
     1    15    16    1
     2    16     8    1
     3     8     9   ar
     4     9    10   ar
     5    10    11   ar
     6    11    12    1
     7    11    13   ar
     8    13     7    1
     9     7     1    1
    10     1     2    1
    11     2     3    1
    12     3     4    1
    13     4    17    1
    14    17    18    1
    15    18    19    1
    16    19    20   ar
    17    20    21   ar
    18    21    22   ar
    19    22    23   ar
    20    23    24   ar
    21    24    25    1
    22    22    26    1
    23    26    27    1
    24    27    28    1
    25    28    29    1
    26     4     5    1
    27     5     6    1
    28    13    14   ar
    29    14     8   ar
    30     6     1    1
    31    24    19   ar
    32    29    21    1
@<TRIPOS>MOLECULE
*****
 29 32 0 0 0
SMALL
GASTEIGER

@<TRIPOS>ATOM
      1 C           1.6616   -0.2641   20.0731 C.3     1  UNL1        0.0071
      2 C           1.1820    0.3330   21.3628 C.3     1  UNL1        0.0177
      3 C           0.3735    1.5964   21.3495 C.3     1  UNL1        0.0721
      4 N           0.0446    2.2627   20.0465 N.3     1  UNL1       -0.2724
      5 C           0.5243    1.6656   18.7568 C.3     1  UNL1        0.0721
      6 C           1.3327    0.4023   18.7700 C.3     1  UNL1        0.0177
      7 C           2.4700   -1.5275   20.0863 C.3     1  UNL1        0.0270
      8 C           5.8753   -0.3703   18.4086 C.ar    1  UNL1        0.1385
      9 C           6.4291   -1.6878   17.9533 C.ar    1  UNL1        0.0374
     10 C           5.6632   -2.9519   18.2089 C.ar    1  UNL1        0.0095
     11 C           4.3435   -2.8985   18.9200 C.ar    1  UNL1        0.0308
     12 BR          3.5776   -4.1627   19.1756 Br      1  UNL1       -0.0493
     13 C           3.7897   -1.5809   19.3753 C.ar    1  UNL1       -0.0130
     14 C           4.5556   -0.3169   19.1196 C.ar    1  UNL1        0.0331
     15 C           6.9266    1.3262   16.7452 C.3     1  UNL1        0.2525
     16 O           6.6412    0.8939   18.1529 O.3     1  UNL1       -0.4714
     17 C          -0.7638    3.5261   20.0333 C.3     1  UNL1        0.0768
     18 C          -2.2597    3.4602   20.1216 C.3     1  UNL1        0.0446
     19 C          -2.9348    3.5084   21.4603 C.ar    1  UNL1       -0.0070
     20 C          -2.1242    3.7385   22.7012 C.ar    1  UNL1        0.0367
     21 C          -2.7993    3.7866   24.0399 C.ar    1  UNL1        0.1721
     22 C          -4.2850    3.6048   24.1376 C.ar    1  UNL1        0.1732
     23 C          -5.0957    3.3747   22.8966 C.ar    1  UNL1        0.0511
     24 C          -4.4206    3.3266   21.5580 C.ar    1  UNL1        0.0570
     25 CL         -5.2312    3.0965   20.3170 Cl      1  UNL1       -0.0825
     26 O          -4.9601    3.6530   25.4762 O.3     1  UNL1       -0.4683
     27 C          -4.1495    3.8830   26.7171 C.3     1  UNL1        0.2526
     28 C          -2.6638    4.0648   26.6194 C.3     1  UNL1        0.2526
     29 O          -1.9887    4.0167   25.2808 O.3     1  UNL1       -0.4684
@<TRIPOS>BOND
     1    15    16    1
     2    16     8    1
     3     8     9   ar
     4     9    10   ar
     5    10    11   ar
     6    11    12    1
     7    11    13   ar
     8    13     7    1
     9     7     1    1
    10     1     2    1
    11     2     3    1
    12     3     4    1
    13     4    17    1
    14    17    18    1
    15    18    19    1
    16    19    20   ar
    17    20    21   ar
    18    21    22   ar
    19    22    23   ar
    20    23    24   ar
    21    24    25    1
    22    22    26    1
    23    26    27    1
    24    27    28    1
    25    28    29    1
    26     4     5    1
    27     5     6    1
    28    13    14   ar
    29    14     8   ar
    30     6     1    1
    31    24    19   ar
    32    29    21    1
@<TRIPOS>MOLECULE
*****
 29 32 0 0 0
SMALL
GASTEIGER

@<TRIPOS>ATOM
      1 C           2.0068   -0.6333   20.7744 C.3     1  UNL1        0.0071
      2 C           2.8835   -0.4851   21.9824 C.3     1  UNL1        0.0177
      3 C           2.5546    0.5402   23.0267 C.3     1  UNL1        0.0721
      4 N           1.3489    1.4174   22.8629 N.3     1  UNL1       -0.2724
      5 C           0.4721    1.2693   21.6549 C.3     1  UNL1        0.0721
      6 C           0.8011    0.2440   20.6106 C.3     1  UNL1        0.0177
      7 C           2.3357   -1.6586   19.7302 C.3     1  UNL1        0.0270
      8 C           5.7692   -0.4654   18.1373 C.ar    1  UNL1        0.1385
      9 C           6.4521   -1.7825   17.9164 C.ar    1  UNL1        0.0374
     10 C           5.7628   -3.0583   18.3000 C.ar    1  UNL1        0.0095
     11 C           4.3907   -3.0170   18.9046 C.ar    1  UNL1        0.0308
     12 BR          3.7014   -4.2929   19.2882 Br      1  UNL1       -0.0493
     13 C           3.7078   -1.6999   19.1256 C.ar    1  UNL1       -0.0130
     14 C           4.3971   -0.4241   18.7419 C.ar    1  UNL1        0.0331
     15 C           6.8720    1.0409   16.3303 C.3     1  UNL1        0.2525
     16 O           6.4585    0.8105   17.7537 O.3     1  UNL1       -0.4714
     17 C           1.0200    2.4427   23.9072 C.3     1  UNL1        0.0768
     18 C          -0.0660    2.1739   24.9064 C.3     1  UNL1        0.0446
     19 C           0.2809    1.6484   26.2679 C.ar    1  UNL1       -0.0070
     20 C           1.6121    0.9989   26.5044 C.ar    1  UNL1        0.0367
     21 C           1.9590    0.4734   27.8659 C.ar    1  UNL1        0.1721
     22 C           0.9746    0.5975   28.9909 C.ar    1  UNL1        0.1732
     23 C          -0.3566    1.2471   28.7543 C.ar    1  UNL1        0.0511
     24 C          -0.7034    1.7725   27.3929 C.ar    1  UNL1        0.0570
     25 CL         -2.0347    2.4221   27.1564 Cl      1  UNL1       -0.0825
     26 O           1.3215    0.0720   30.3523 O.3     1  UNL1       -0.4683
     27 C           2.6527   -0.5775   30.5887 C.3     1  UNL1        0.2526
     28 C           3.6370   -0.7016   29.4637 C.3     1  UNL1        0.2526
     29 O           3.2902   -0.1761   28.1023 O.3     1  UNL1       -0.4684
@<TRIPOS>BOND
     1    15    16    1
     2    16     8    1
     3     8     9   ar
     4     9    10   ar
     5    10    11   ar
     6    11    12    1
     7    11    13   ar
     8    13     7    1
     9     7     1    1
    10     1     2    1
    11     2     3    1
    12     3     4    1
    13     4    17    1
    14    17    18    1
    15    18    19    1
    16    19    20   ar
    17    20    21   ar
    18    21    22   ar
    19    22    23   ar
    20    23    24   ar
    21    24    25    1
    22    22    26    1
    23    26    27    1
    24    27    28    1
    25    28    29    1
    26     4     5    1
    27     5     6    1
    28    13    14   ar
    29    14     8   ar
    30     6     1    1
    31    24    19   ar
    32    29    21    1
@<TRIPOS>MOLECULE
*****
 29 32 0 0 0
SMALL
GASTEIGER

@<TRIPOS>ATOM
      1 C           2.1660   -0.1939   19.4192 C.3     1  UNL1        0.0071
      2 C           2.7029    1.0634   18.8020 C.3     1  UNL1        0.0177
      3 C           1.9125    2.3357   18.8834 C.3     1  UNL1        0.0721
      4 N           0.5853    2.3507   19.5821 N.3     1  UNL1       -0.2724
      5 C           0.0484    1.0935   20.1994 C.3     1  UNL1        0.0721
      6 C           0.8387   -0.1788   20.1180 C.3     1  UNL1        0.0177
      7 C           2.9563   -1.4661   19.3378 C.3     1  UNL1        0.0270
      8 C           4.0666   -1.9099   23.1220 C.ar    1  UNL1        0.1385
      9 C           4.7425   -3.2477   23.0641 C.ar    1  UNL1        0.0374
     10 C           4.8230   -3.9917   21.7641 C.ar    1  UNL1        0.0095
     11 C           4.2276   -3.3978   20.5220 C.ar    1  UNL1        0.0308
     12 BR          4.3081   -4.1418   19.2220 Br      1  UNL1       -0.0493
     13 C           3.5517   -2.0600   20.5799 C.ar    1  UNL1       -0.0130
     14 C           3.4712   -1.3161   21.8799 C.ar    1  UNL1        0.0331
     15 C           2.9603   -0.0871   24.6065 C.3     1  UNL1        0.2525
     16 O           3.9860   -1.1659   24.4221 O.3     1  UNL1       -0.4714
     17 C          -0.2051    3.6230   19.6635 C.3     1  UNL1        0.0768
     18 C          -1.6645    3.6229   19.3169 C.3     1  UNL1        0.0446
     19 C          -2.6942    3.6642   20.4069 C.ar    1  UNL1       -0.0070
     20 C          -2.2645    3.7246   21.8427 C.ar    1  UNL1        0.0367
     21 C          -3.2942    3.7659   22.9327 C.ar    1  UNL1        0.1721
     22 C          -4.7537    3.7470   22.5867 C.ar    1  UNL1        0.1732
     23 C          -5.1834    3.6866   21.1508 C.ar    1  UNL1        0.0511
     24 C          -4.1536    3.6453   20.0609 C.ar    1  UNL1        0.0570
     25 CL         -4.5833    3.5850   18.6250 Cl      1  UNL1       -0.0825
     26 O          -5.7834    3.7883   23.6766 O.3     1  UNL1       -0.4683
     27 C          -5.3537    3.8486   25.1124 C.3     1  UNL1        0.2526
     28 C          -3.8943    3.8676   25.4584 C.3     1  UNL1        0.2526
     29 O          -2.8645    3.8262   24.3685 O.3     1  UNL1       -0.4684
@<TRIPOS>BOND
     1    15    16    1
     2    16     8    1
     3     8     9   ar
     4     9    10   ar
     5    10    11   ar
     6    11    12    1
     7    11    13   ar
     8    13     7    1
     9     7     1    1
    10     1     2    1
    11     2     3    1
    12     3     4    1
    13     4    17    1
    14    17    18    1
    15    18    19    1
    16    19    20   ar
    17    20    21   ar
    18    21    22   ar
    19    22    23   ar
    20    23    24   ar
    21    24    25    1
    22    22    26    1
    23    26    27    1
    24    27    28    1
    25    28    29    1
    26     4     5    1
    27     5     6    1
    28    13    14   ar
    29    14     8   ar
    30     6     1    1
    31    24    19   ar
    32    29    21    1
@<TRIPOS>MOLECULE
*****
 29 32 0 0 0
SMALL
GASTEIGER

@<TRIPOS>ATOM
      1 C           2.2092   -0.6297   21.1398 C.3     1  UNL1        0.0071
      2 C           1.1342   -0.4647   20.1068 C.3     1  UNL1        0.0177
      3 C           0.1795    0.6889   20.1955 C.3     1  UNL1        0.0721
      4 N           0.2999    1.6775   21.3171 N.3     1  UNL1       -0.2724
      5 C           1.3750    1.5126   22.3501 C.3     1  UNL1        0.0721
      6 C           2.3296    0.3590   22.2614 C.3     1  UNL1        0.0177
      7 C           3.1639   -1.7832   21.0511 C.3     1  UNL1        0.0270
      8 C           6.2547   -0.5657   18.8798 C.ar    1  UNL1        0.1385
      9 C           6.4541   -1.7501   17.9814 C.ar    1  UNL1        0.0374
     10 C           5.5568   -2.9456   18.1062 C.ar    1  UNL1        0.0095
     11 C           4.4601   -2.9567   19.1294 C.ar    1  UNL1        0.0308
     12 BR          3.5628   -4.1523   19.2542 Br      1  UNL1       -0.0493
     13 C           4.2606   -1.7722   20.0279 C.ar    1  UNL1       -0.0130
     14 C           5.1579   -0.5767   19.9030 C.ar    1  UNL1        0.0331
     15 C           8.6391    0.4661   18.8631 C.3     1  UNL1        0.2525
     16 O           7.1520    0.6299   18.7550 O.3     1  UNL1       -0.4714
     17 C          -0.6547    2.8311   21.4058 C.3     1  UNL1        0.0768
     18 C          -1.7172    3.0073   20.3617 C.3     1  UNL1        0.0446
     19 C          -3.0939    3.4503   20.7600 C.ar    1  UNL1       -0.0070
     20 C          -3.4676    3.5242   22.2108 C.ar    1  UNL1        0.0367
     21 C          -4.8443    3.9673   22.6090 C.ar    1  UNL1        0.1721
     22 C          -5.8472    4.3363   21.5564 C.ar    1  UNL1        0.1732
     23 C          -5.4734    4.2624   20.1056 C.ar    1  UNL1        0.0511
     24 C          -4.0968    3.8194   19.7074 C.ar    1  UNL1        0.0570
     25 CL         -3.7230    3.7455   18.2566 Cl      1  UNL1       -0.0825
     26 O          -7.2239    4.7794   21.9546 O.3     1  UNL1       -0.4683
     27 C          -7.5976    4.8533   23.4054 C.3     1  UNL1        0.2526
     28 C          -6.5947    4.4842   24.4580 C.3     1  UNL1        0.2526
     29 O          -5.2181    4.0412   24.0598 O.3     1  UNL1       -0.4684
@<TRIPOS>BOND
     1    15    16    1
     2    16     8    1
     3     8     9   ar
     4     9    10   ar
     5    10    11   ar
     6    11    12    1
     7    11    13   ar
     8    13     7    1
     9     7     1    1
    10     1     2    1
    11     2     3    1
    12     3     4    1
    13     4    17    1
    14    17    18    1
    15    18    19    1
    16    19    20   ar
    17    20    21   ar
    18    21    22   ar
    19    22    23   ar
    20    23    24   ar
    21    24    25    1
    22    22    26    1
    23    26    27    1
    24    27    28    1
    25    28    29    1
    26     4     5    1
    27     5     6    1
    28    13    14   ar
    29    14     8   ar
    30     6     1    1
    31    24    19   ar
    32    29    21    1
