@<TRIPOS>MOLECULE
*****
 44 48 0 0 0
SMALL
GASTEIGER

@<TRIPOS>ATOM
      1 N           5.9519   -2.2621   27.2705 N.ar    1  UNL1       -0.2444
      2 C           6.0075   -2.3866   25.7767 C.ar    1  UNL1        0.3387
      3 O           5.5835   -1.2366   24.9119 O.2     1  UNL1       -0.2458
      4 N           6.4870   -3.6611   25.1477 N.ar    1  UNL1       -0.2502
      5 C           6.9110   -4.8111   26.0124 C.ar    1  UNL1        0.2686
      6 O           7.3906   -6.0855   25.3833 O.2     1  UNL1       -0.2667
      7 C           6.8555   -4.6866   27.5062 C.ar    1  UNL1        0.1100
      8 C           7.2795   -5.8365   28.3709 C.ar    1  UNL1        0.1096
      9 N           7.2239   -5.7120   29.8647 N.ar    1  UNL1       -0.2118
     10 C           6.7444   -4.4375   30.4937 C.ar    1  UNL1        0.2221
     11 N           6.3204   -3.2876   29.6290 N.ar    1  UNL1       -0.1955
     12 C           6.3759   -3.4121   28.1353 C.ar    1  UNL1        0.1600
     13 C           3.5437    0.6654   28.4455 C.ar    1  UNL1        0.0520
     14 C           4.5132    1.5614   29.1577 C.ar    1  UNL1        0.0148
     15 C           5.9624    1.1829   29.2408 C.ar    1  UNL1        0.0028
     16 C           6.4419   -0.0916   28.6117 C.ar    1  UNL1        0.0178
     17 C           5.4724   -0.9876   27.8995 C.ar    1  UNL1        0.0708
     18 C           4.0233   -0.6091   27.8164 C.ar    1  UNL1        0.0324
     19 C           1.0969    0.3971   29.2769 C.2     1  UNL1        0.2496
     20 O           1.5484   -0.6280   30.2746 O.2     1  UNL1       -0.2698
     21 N           2.0946    1.0438   28.3623 N.am    1  UNL1       -0.2803
     22 H           1.7983    1.7167   27.7075 H       1  UNL1        0.1552
     23 C          -1.3923   -0.2828   28.9747 C.2     1  UNL1        0.0048
     24 C          -0.3522    0.7756   29.1938 C.2     1  UNL1        0.0580
     25 C           6.5426   -3.7856   23.6538 C.3     1  UNL1        0.0929
     26 C           7.8668   -3.7775   22.9493 C.3     1  UNL1        0.0247
     27 C           5.2739   -3.9181   22.8646 C.3     1  UNL1        0.0247
     28 N           6.6888   -4.3131   31.9876 N.pl3   1  UNL1       -0.2801
     29 H           7.0772   -5.0176   32.5550 H       1  UNL1        0.1552
     30 C           6.0415   -3.1152   32.6168 C.ar    1  UNL1        0.0850
     31 C           4.6412   -3.2106   33.1459 C.ar    1  UNL1        0.0190
     32 C           3.9939   -2.0126   33.7751 C.ar    1  UNL1        0.0160
     33 C           4.7469   -0.7193   33.8753 C.ar    1  UNL1        0.0510
     34 C           6.1472   -0.6238   33.3462 C.ar    1  UNL1        0.0527
     35 C           6.7945   -1.8217   32.7170 C.ar    1  UNL1        0.1533
     36 N           4.0996    0.4786   34.5045 N.pl3   1  UNL1       -0.3046
     37 C           3.1641    1.3337   33.7022 C.3     1  UNL1        0.1081
     38 C           2.5168    2.5317   34.3315 C.3     1  UNL1        0.0938
     39 N           2.8050    2.8745   35.7630 N.3     1  UNL1       -0.2686
     40 C           2.1577    4.0724   36.3922 C.3     1  UNL1        0.0897
     41 C           3.7404    2.0194   36.5654 C.3     1  UNL1        0.0938
     42 C           4.3877    0.8215   35.9361 C.3     1  UNL1        0.1081
     43 O           8.1949   -1.7262   32.1879 O.3     1  UNL1       -0.4701
     44 C           9.3463   -2.2020   33.0232 C.3     1  UNL1        0.2525
@<TRIPOS>BOND
     1    23    24    2
     2    24    19    1
     3    19    20    2
     4    19    21   am
     5    21    13    1
     6    13    14   ar
     7    14    15   ar
     8    15    16   ar
     9    16    17   ar
    10    17     1    1
    11     1     2   ar
    12     2     3    2
    13     2     4   ar
    14     4    25    1
    15    25    26    1
    16    25    27    1
    17     4     5   ar
    18     5     6    2
    19     5     7   ar
    20     7     8   ar
    21     8     9   ar
    22     9    10   ar
    23    10    28    1
    24    28    30    1
    25    30    31   ar
    26    31    32   ar
    27    32    33   ar
    28    33    36    1
    29    36    37    1
    30    37    38    1
    31    38    39    1
    32    39    40    1
    33    39    41    1
    34    41    42    1
    35    33    34   ar
    36    34    35   ar
    37    35    43    1
    38    43    44    1
    39    10    11   ar
    40    11    12   ar
    41    17    18   ar
    42    18    13   ar
    43    12     1   ar
    44    12     7   ar
    45    35    30   ar
    46    42    36    1
    47    21    22    1
    48    28    29    1
@<TRIPOS>MOLECULE
*****
 44 48 0 0 0
SMALL
GASTEIGER

@<TRIPOS>ATOM
      1 N           6.3175   -2.8700   27.4687 N.ar    1  UNL1       -0.2444
      2 C           6.7356   -3.2627   28.8546 C.ar    1  UNL1        0.3387
      3 O           6.4050   -2.3749   30.0177 O.2     1  UNL1       -0.2458
      4 N           7.4844   -4.5431   29.0777 N.ar    1  UNL1       -0.2502
      5 C           7.8150   -5.4309   27.9147 C.ar    1  UNL1        0.2686
      6 O           8.5638   -6.7114   28.1377 O.2     1  UNL1       -0.2667
      7 C           7.3969   -5.0382   26.5287 C.ar    1  UNL1        0.1100
      8 C           7.7275   -5.9260   25.3657 C.ar    1  UNL1        0.1096
      9 N           7.3094   -5.5333   23.9798 N.ar    1  UNL1       -0.2118
     10 C           6.5607   -4.2528   23.7568 C.ar    1  UNL1        0.2221
     11 N           6.2300   -3.3650   24.9197 N.ar    1  UNL1       -0.1955
     12 C           6.6481   -3.7577   26.3056 C.ar    1  UNL1        0.1600
     13 C           3.3332   -0.2661   27.2162 C.ar    1  UNL1        0.0520
     14 C           4.0712    0.9715   26.7997 C.ar    1  UNL1        0.0148
     15 C           5.5581    0.9286   26.6061 C.ar    1  UNL1        0.0028
     16 C           6.3069   -0.3518   26.8291 C.ar    1  UNL1        0.0178
     17 C           5.5687   -1.5895   27.2457 C.ar    1  UNL1        0.0708
     18 C           4.0819   -1.5466   27.4392 C.ar    1  UNL1        0.0324
     19 C           1.2682   -0.2773   28.7929 C.2     1  UNL1        0.2496
     20 O           2.1770   -0.3742   29.9824 O.2     1  UNL1       -0.2698
     21 N           1.8463   -0.2233   27.4098 N.am    1  UNL1       -0.2803
     22 H           1.2499   -0.1597   26.6291 H       1  UNL1        0.1552
     23 C          -1.0516    0.7243   28.1885 C.2     1  UNL1        0.0048
     24 C          -0.2186   -0.2345   28.9865 C.2     1  UNL1        0.0580
     25 C           7.9025   -4.9358   30.4637 C.3     1  UNL1        0.0929
     26 C           9.2413   -4.5128   30.9914 C.3     1  UNL1        0.0247
     27 C           6.9817   -5.7515   31.3220 C.3     1  UNL1        0.0247
     28 N           6.1426   -3.8601   22.3707 N.pl3   1  UNL1       -0.2801
     29 H           6.5938   -4.2552   21.5899 H       1  UNL1        0.1552
     30 C           5.0371   -2.8656   22.1743 C.ar    1  UNL1        0.0850
     31 C           4.5466   -2.0505   23.3341 C.ar    1  UNL1        0.0190
     32 C           3.4410   -1.0559   23.1376 C.ar    1  UNL1        0.0160
     33 C           2.8260   -0.8764   21.7814 C.ar    1  UNL1        0.0510
     34 C           3.3164   -1.6914   20.6216 C.ar    1  UNL1        0.0527
     35 C           4.4219   -2.6860   20.8180 C.ar    1  UNL1        0.1533
     36 N           1.7204    0.1182   21.5850 N.pl3   1  UNL1       -0.3046
     37 C           1.3842    1.0910   22.6761 C.3     1  UNL1        0.1081
     38 C           0.2786    2.0856   22.4796 C.3     1  UNL1        0.0938
     39 N          -0.4907    2.1074   21.1921 N.3     1  UNL1       -0.2686
     40 C          -1.5962    3.1019   20.9957 C.3     1  UNL1        0.0897
     41 C          -0.1544    1.1345   20.1010 C.3     1  UNL1        0.0938
     42 C           0.9511    0.1400   20.2974 C.3     1  UNL1        0.1081
     43 O           4.9124   -3.5010   19.6582 O.3     1  UNL1       -0.4701
     44 C           4.0381   -4.5674   19.0679 C.3     1  UNL1        0.2525
@<TRIPOS>BOND
     1    23    24    2
     2    24    19    1
     3    19    20    2
     4    19    21   am
     5    21    13    1
     6    13    14   ar
     7    14    15   ar
     8    15    16   ar
     9    16    17   ar
    10    17     1    1
    11     1     2   ar
    12     2     3    2
    13     2     4   ar
    14     4    25    1
    15    25    26    1
    16    25    27    1
    17     4     5   ar
    18     5     6    2
    19     5     7   ar
    20     7     8   ar
    21     8     9   ar
    22     9    10   ar
    23    10    28    1
    24    28    30    1
    25    30    31   ar
    26    31    32   ar
    27    32    33   ar
    28    33    36    1
    29    36    37    1
    30    37    38    1
    31    38    39    1
    32    39    40    1
    33    39    41    1
    34    41    42    1
    35    33    34   ar
    36    34    35   ar
    37    35    43    1
    38    43    44    1
    39    10    11   ar
    40    11    12   ar
    41    17    18   ar
    42    18    13   ar
    43    12     1   ar
    44    12     7   ar
    45    35    30   ar
    46    42    36    1
    47    21    22    1
    48    28    29    1
@<TRIPOS>MOLECULE
*****
 44 48 0 0 0
SMALL
GASTEIGER

@<TRIPOS>ATOM
      1 N           2.4522    0.2230   21.3428 N.ar    1  UNL1       -0.2444
      2 C           2.8496   -0.7092   20.2368 C.ar    1  UNL1        0.3387
      3 O           2.4666   -0.3986   18.8201 O.2     1  UNL1       -0.2458
      4 N           3.6300   -1.9520   20.5475 N.ar    1  UNL1       -0.2502
      5 C           4.0130   -2.2626   21.9641 C.ar    1  UNL1        0.2686
      6 O           4.7934   -3.5053   22.2747 O.2     1  UNL1       -0.2667
      7 C           3.6156   -1.3304   23.0701 C.ar    1  UNL1        0.1100
      8 C           3.9986   -1.6410   24.4867 C.ar    1  UNL1        0.1096
      9 N           3.6013   -0.7088   25.5926 N.ar    1  UNL1       -0.2118
     10 C           2.8209    0.5339   25.2820 C.ar    1  UNL1        0.2221
     11 N           2.4379    0.8446   23.8654 N.ar    1  UNL1       -0.1955
     12 C           2.8352   -0.0876   22.7594 C.ar    1  UNL1        0.1600
     13 C          -0.6058    2.6554   20.6487 C.ar    1  UNL1        0.0520
     14 C           0.1111    3.9513   20.4108 C.ar    1  UNL1        0.0148
     15 C           1.6084    4.0045   20.4834 C.ar    1  UNL1        0.0028
     16 C           2.3888    2.7617   20.7941 C.ar    1  UNL1        0.0178
     17 C           1.6718    1.4657   21.0321 C.ar    1  UNL1        0.0708
     18 C           0.1746    1.4126   20.9594 C.ar    1  UNL1        0.0324
     19 C          -2.9296    3.4063   21.5355 C.2     1  UNL1        0.2496
     20 O          -2.2587    4.2635   22.5676 O.2     1  UNL1       -0.2698
     21 N          -2.1032    2.6022   20.5760 N.am    1  UNL1       -0.2803
     22 H          -2.5434    2.0396   19.8986 H       1  UNL1        0.1552
     23 C          -5.1182    3.4741   20.1371 C.2     1  UNL1        0.0048
     24 C          -4.4269    3.3531   21.4628 C.2     1  UNL1        0.0580
     25 C           4.0273   -2.8842   19.4415 C.3     1  UNL1        0.0929
     26 C           3.2485   -4.1444   19.2067 C.3     1  UNL1        0.0247
     27 C           5.2035   -2.5560   18.5703 C.3     1  UNL1        0.0247
     28 N           2.4235    1.4661   26.3880 N.pl3   1  UNL1       -0.2801
     29 H           3.0446    1.6407   27.1316 H       1  UNL1        0.1552
     30 C           1.0799    2.1323   26.3609 C.ar    1  UNL1        0.0850
     31 C           0.8530    3.3277   25.4836 C.ar    1  UNL1        0.0190
     32 C          -0.4908    3.9939   25.4566 C.ar    1  UNL1        0.0160
     33 C          -1.6075    3.4648   26.3069 C.ar    1  UNL1        0.0510
     34 C          -1.3805    2.2694   27.1841 C.ar    1  UNL1        0.0527
     35 C          -0.0369    1.6032   27.2112 C.ar    1  UNL1        0.1533
     36 N          -2.9511    4.1310   26.2798 N.pl3   1  UNL1       -0.3046
     37 C          -4.0172    3.6318   25.3502 C.3     1  UNL1        0.1081
     38 C          -5.3609    4.2980   25.3232 C.3     1  UNL1        0.0938
     39 N          -5.6384    5.4635   26.2257 N.3     1  UNL1       -0.2686
     40 C          -6.9820    6.1297   26.1987 C.3     1  UNL1        0.0897
     41 C          -4.5723    5.9627   27.1554 C.3     1  UNL1        0.0938
     42 C          -3.2287    5.2965   27.1824 C.3     1  UNL1        0.1081
     43 O           0.1900    0.4079   28.0885 O.3     1  UNL1       -0.4701
     44 C          -0.9804   -0.3593   28.6284 C.3     1  UNL1        0.2525
@<TRIPOS>BOND
     1    23    24    2
     2    24    19    1
     3    19    20    2
     4    19    21   am
     5    21    13    1
     6    13    14   ar
     7    14    15   ar
     8    15    16   ar
     9    16    17   ar
    10    17     1    1
    11     1     2   ar
    12     2     3    2
    13     2     4   ar
    14     4    25    1
    15    25    26    1
    16    25    27    1
    17     4     5   ar
    18     5     6    2
    19     5     7   ar
    20     7     8   ar
    21     8     9   ar
    22     9    10   ar
    23    10    28    1
    24    28    30    1
    25    30    31   ar
    26    31    32   ar
    27    32    33   ar
    28    33    36    1
    29    36    37    1
    30    37    38    1
    31    38    39    1
    32    39    40    1
    33    39    41    1
    34    41    42    1
    35    33    34   ar
    36    34    35   ar
    37    35    43    1
    38    43    44    1
    39    10    11   ar
    40    11    12   ar
    41    17    18   ar
    42    18    13   ar
    43    12     1   ar
    44    12     7   ar
    45    35    30   ar
    46    42    36    1
    47    21    22    1
    48    28    29    1
@<TRIPOS>MOLECULE
*****
 44 48 0 0 0
SMALL
GASTEIGER

@<TRIPOS>ATOM
      1 N           2.8669    0.5025   19.9838 N.ar    1  UNL1       -0.2444
      2 C           3.3902   -0.6597   19.1930 C.ar    1  UNL1        0.3387
      3 O           3.4670   -0.5755   17.6973 O.2     1  UNL1       -0.2458
      4 N           3.8368   -1.9062   19.8979 N.ar    1  UNL1       -0.2502
      5 C           3.7600   -1.9904   21.3936 C.ar    1  UNL1        0.2686
      6 O           4.2065   -3.2369   22.0985 O.2     1  UNL1       -0.2667
      7 C           3.2367   -0.8282   22.1844 C.ar    1  UNL1        0.1100
      8 C           3.1599   -0.9124   23.6800 C.ar    1  UNL1        0.1096
      9 N           2.6366    0.2498   24.4707 N.ar    1  UNL1       -0.2118
     10 C           2.1900    1.4963   23.7658 C.ar    1  UNL1        0.2221
     11 N           2.2668    1.5806   22.2702 N.ar    1  UNL1       -0.1955
     12 C           2.7901    0.4183   21.4795 C.ar    1  UNL1        0.1600
     13 C           0.5756    3.0954   18.0403 C.ar    1  UNL1        0.0520
     14 C           1.5274    4.2420   17.8691 C.ar    1  UNL1        0.0148
     15 C           2.9257    4.1422   18.4028 C.ar    1  UNL1        0.0028
     16 C           3.3722    2.8957   19.1077 C.ar    1  UNL1        0.0178
     17 C           2.4204    1.7490   19.2789 C.ar    1  UNL1        0.0708
     18 C           1.0222    1.8489   18.7452 C.ar    1  UNL1        0.0324
     19 C          -1.8679    3.9457   18.2775 C.2     1  UNL1        0.2496
     20 O          -1.5147    4.5965   19.5821 O.2     1  UNL1       -0.2698
     21 N          -0.8227    3.1952   17.5066 N.am    1  UNL1       -0.2803
     22 H          -1.0545    2.7681   16.6504 H       1  UNL1        0.1552
     23 C          -3.5708    3.5878   16.3482 C.2     1  UNL1        0.0048
     24 C          -3.2662    4.0455   17.7438 C.2     1  UNL1        0.0580
     25 C           4.3601   -3.0685   19.1071 C.3     1  UNL1        0.0929
     26 C           3.5317   -4.3105   18.9617 C.3     1  UNL1        0.0247
     27 C           5.7118   -2.9886   18.4617 C.3     1  UNL1        0.0247
     28 N           1.6667    2.6586   24.5567 N.pl3   1  UNL1       -0.2801
     29 H           2.2807    3.1945   25.1091 H       1  UNL1        0.1552
     30 C           0.2080    3.0044   24.5058 C.ar    1  UNL1        0.0850
     31 C          -0.3915    3.5424   23.2405 C.ar    1  UNL1        0.0190
     32 C          -1.8503    3.8882   23.1897 C.ar    1  UNL1        0.0160
     33 C          -2.7094    3.6959   24.4041 C.ar    1  UNL1        0.0510
     34 C          -2.1099    3.1579   25.6694 C.ar    1  UNL1        0.0527
     35 C          -0.6512    2.8121   25.7203 C.ar    1  UNL1        0.1533
     36 N          -4.1681    4.0417   24.3532 N.pl3   1  UNL1       -0.3046
     37 C          -4.7954    4.8141   25.4757 C.3     1  UNL1        0.1081
     38 C          -6.2542    5.1599   25.4248 C.3     1  UNL1        0.0938
     39 N          -7.0855    4.7333   24.2514 N.3     1  UNL1       -0.2686
     40 C          -8.5442    5.0791   24.2005 C.3     1  UNL1        0.0897
     41 C          -6.4582    3.9609   23.1289 C.3     1  UNL1        0.0938
     42 C          -4.9996    3.6151   23.1798 C.3     1  UNL1        0.1081
     43 O          -0.0516    2.2740   26.9856 O.3     1  UNL1       -0.4701
     44 C          -0.5838    1.0079   27.5884 C.3     1  UNL1        0.2525
@<TRIPOS>BOND
     1    23    24    2
     2    24    19    1
     3    19    20    2
     4    19    21   am
     5    21    13    1
     6    13    14   ar
     7    14    15   ar
     8    15    16   ar
     9    16    17   ar
    10    17     1    1
    11     1     2   ar
    12     2     3    2
    13     2     4   ar
    14     4    25    1
    15    25    26    1
    16    25    27    1
    17     4     5   ar
    18     5     6    2
    19     5     7   ar
    20     7     8   ar
    21     8     9   ar
    22     9    10   ar
    23    10    28    1
    24    28    30    1
    25    30    31   ar
    26    31    32   ar
    27    32    33   ar
    28    33    36    1
    29    36    37    1
    30    37    38    1
    31    38    39    1
    32    39    40    1
    33    39    41    1
    34    41    42    1
    35    33    34   ar
    36    34    35   ar
    37    35    43    1
    38    43    44    1
    39    10    11   ar
    40    11    12   ar
    41    17    18   ar
    42    18    13   ar
    43    12     1   ar
    44    12     7   ar
    45    35    30   ar
    46    42    36    1
    47    21    22    1
    48    28    29    1
@<TRIPOS>MOLECULE
*****
 44 48 0 0 0
SMALL
GASTEIGER

@<TRIPOS>ATOM
      1 N           2.4365    0.1537   21.1149 N.ar    1  UNL1       -0.2444
      2 C           2.8805   -0.8039   20.0492 C.ar    1  UNL1        0.3387
      3 O           2.5588   -0.5270   18.6105 O.2     1  UNL1       -0.2458
      4 N           3.6463   -2.0386   20.4222 N.ar    1  UNL1       -0.2502
      5 C           3.9681   -2.3156   21.8609 C.ar    1  UNL1        0.2686
      6 O           4.7339   -3.5503   22.2338 O.2     1  UNL1       -0.2667
      7 C           3.5240   -1.3579   22.9266 C.ar    1  UNL1        0.1100
      8 C           3.8458   -1.6349   24.3652 C.ar    1  UNL1        0.1096
      9 N           3.4017   -0.6772   25.4308 N.ar    1  UNL1       -0.2118
     10 C           2.6359    0.5574   25.0578 C.ar    1  UNL1        0.2221
     11 N           2.3142    0.8344   23.6192 N.ar    1  UNL1       -0.1955
     12 C           2.7582   -0.1232   22.5536 C.ar    1  UNL1        0.1600
     13 C          -0.5895    2.6459   20.4964 C.ar    1  UNL1        0.0520
     14 C           0.1391    3.8578   19.9959 C.ar    1  UNL1        0.0148
     15 C           1.6335    3.8350   19.8684 C.ar    1  UNL1        0.0028
     16 C           2.3993    2.6003   20.2414 C.ar    1  UNL1        0.0178
     17 C           1.6707    1.3884   20.7419 C.ar    1  UNL1        0.0708
     18 C           0.1763    1.4112   20.8693 C.ar    1  UNL1        0.0324
     19 C          -2.7297    3.4306   21.7430 C.2     1  UNL1        0.2496
     20 O          -1.8809    4.1699   22.7346 O.2     1  UNL1       -0.2698
     21 N          -2.0840    2.6687   20.6239 N.am    1  UNL1       -0.2803
     22 H          -2.6410    2.1835   19.9730 H       1  UNL1        0.1552
     23 C          -4.8717    3.0770   23.1701 C.2     1  UNL1        0.0048
     24 C          -4.2240    3.4534   21.8705 C.2     1  UNL1        0.0580
     25 C           4.0904   -2.9963   19.3565 C.3     1  UNL1        0.0929
     26 C           5.2894   -2.6772   18.5137 C.3     1  UNL1        0.0247
     27 C           3.3353   -4.2731   19.1336 C.3     1  UNL1        0.0247
     28 N           2.1919    1.5151   26.1236 N.pl3   1  UNL1       -0.2801
     29 H           1.6673    2.3123   25.8815 H       1  UNL1        0.1552
     30 C           2.5470    1.2582   27.5581 C.ar    1  UNL1        0.0850
     31 C           3.9141    1.6085   28.0666 C.ar    1  UNL1        0.0190
     32 C           4.2692    1.3515   29.5012 C.ar    1  UNL1        0.0160
     33 C           3.2573    0.7444   30.4271 C.ar    1  UNL1        0.0510
     34 C           1.8903    0.3942   29.9186 C.ar    1  UNL1        0.0527
     35 C           1.5351    0.6511   28.4841 C.ar    1  UNL1        0.1533
     36 N           3.6125    0.4875   31.8616 N.pl3   1  UNL1       -0.3046
     37 C           3.5956    1.6141   32.8518 C.3     1  UNL1        0.1081
     38 C           3.9508    1.3571   34.2864 C.3     1  UNL1        0.0938
     39 N           4.3229   -0.0264   34.7307 N.3     1  UNL1       -0.2686
     40 C           4.6780   -0.2833   36.1652 C.3     1  UNL1        0.0897
     41 C           4.3398   -1.1529   33.7405 C.3     1  UNL1        0.0938
     42 C           3.9846   -0.8960   32.3060 C.3     1  UNL1        0.1081
     43 O           0.1681    0.3009   27.9756 O.3     1  UNL1       -0.4701
     44 C          -0.8559   -0.2714   28.9104 C.3     1  UNL1        0.2525
@<TRIPOS>BOND
     1    23    24    2
     2    24    19    1
     3    19    20    2
     4    19    21   am
     5    21    13    1
     6    13    14   ar
     7    14    15   ar
     8    15    16   ar
     9    16    17   ar
    10    17     1    1
    11     1     2   ar
    12     2     3    2
    13     2     4   ar
    14     4    25    1
    15    25    26    1
    16    25    27    1
    17     4     5   ar
    18     5     6    2
    19     5     7   ar
    20     7     8   ar
    21     8     9   ar
    22     9    10   ar
    23    10    28    1
    24    28    30    1
    25    30    31   ar
    26    31    32   ar
    27    32    33   ar
    28    33    36    1
    29    36    37    1
    30    37    38    1
    31    38    39    1
    32    39    40    1
    33    39    41    1
    34    41    42    1
    35    33    34   ar
    36    34    35   ar
    37    35    43    1
    38    43    44    1
    39    10    11   ar
    40    11    12   ar
    41    17    18   ar
    42    18    13   ar
    43    12     1   ar
    44    12     7   ar
    45    35    30   ar
    46    42    36    1
    47    21    22    1
    48    28    29    1
@<TRIPOS>MOLECULE
*****
 44 48 0 0 0
SMALL
GASTEIGER

@<TRIPOS>ATOM
      1 N           5.2845   -1.6592   24.2609 N.ar    1  UNL1       -0.2444
      2 C           6.0064   -2.4916   25.2787 C.ar    1  UNL1        0.3387
      3 O           6.0294   -2.0652   26.7167 O.2     1  UNL1       -0.2458
      4 N           6.7055   -3.7505   24.8585 N.ar    1  UNL1       -0.2502
      5 C           6.6826   -4.1769   23.4206 C.ar    1  UNL1        0.2686
      6 O           7.3817   -5.4358   23.0005 O.2     1  UNL1       -0.2667
      7 C           5.9606   -3.3445   22.4028 C.ar    1  UNL1        0.1100
      8 C           5.9378   -3.7710   20.9649 C.ar    1  UNL1        0.1096
      9 N           5.2158   -2.9385   19.9472 N.ar    1  UNL1       -0.2118
     10 C           4.5167   -1.6797   20.3674 C.ar    1  UNL1        0.2221
     11 N           4.5396   -1.2532   21.8052 N.ar    1  UNL1       -0.1955
     12 C           5.2616   -2.0856   22.8230 C.ar    1  UNL1        0.1600
     13 C           2.4655    0.8038   25.5789 C.ar    1  UNL1        0.0520
     14 C           3.1872    2.1174   25.5214 C.ar    1  UNL1        0.0148
     15 C           4.6082    2.1722   25.0438 C.ar    1  UNL1        0.0028
     16 C           5.3072    0.9134   24.6237 C.ar    1  UNL1        0.0178
     17 C           4.5854   -0.4003   24.6811 C.ar    1  UNL1        0.0708
     18 C           3.1646   -0.4551   25.1587 C.ar    1  UNL1        0.0324
     19 C           0.7408    0.8614   27.5211 C.2     1  UNL1        0.2496
     20 O           1.8579    1.0287   28.5081 O.2     1  UNL1       -0.2698
     21 N           1.0445    0.7489   26.0565 N.am    1  UNL1       -0.2803
     22 H           0.3114    0.6392   25.4087 H       1  UNL1        0.1552
     23 C          -1.1857   -0.4135   28.7100 C.2     1  UNL1        0.0048
     24 C          -0.6800    0.8066   27.9988 C.2     1  UNL1        0.0580
     25 C           7.4275   -4.5829   25.8763 C.3     1  UNL1        0.0929
     26 C           6.7315   -5.7404   26.5288 C.3     1  UNL1        0.0247
     27 C           8.8456   -4.2578   26.2416 C.3     1  UNL1        0.0247
     28 N           3.7947   -0.8472   19.3495 N.pl3   1  UNL1       -0.2801
     29 H           4.0647   -0.8828   18.4035 H       1  UNL1        0.1552
     30 C           2.6614    0.0393   19.7732 C.ar    1  UNL1        0.0850
     31 C           1.3348   -0.5602   20.1347 C.ar    1  UNL1        0.0190
     32 C           0.2015    0.3264   20.5584 C.ar    1  UNL1        0.0160
     33 C           0.3948    1.8126   20.6206 C.ar    1  UNL1        0.0510
     34 C           1.7214    2.4122   20.2591 C.ar    1  UNL1        0.0527
     35 C           2.8547    1.5256   19.8354 C.ar    1  UNL1        0.1533
     36 N          -0.7385    2.6992   21.0443 N.pl3   1  UNL1       -0.3046
     37 C          -1.7335    3.1808   20.0303 C.3     1  UNL1        0.1081
     38 C          -2.8668    4.0674   20.4541 C.3     1  UNL1        0.0938
     39 N          -3.0052    4.4724   21.8917 N.3     1  UNL1       -0.2686
     40 C          -4.1385    5.3590   22.3153 C.3     1  UNL1        0.0897
     41 C          -2.0102    3.9908   22.9056 C.3     1  UNL1        0.0938
     42 C          -0.8769    3.1042   22.4820 C.3     1  UNL1        0.1081
     43 O           4.1813    2.1252   19.4739 O.3     1  UNL1       -0.4701
     44 C           4.3200    2.9399   18.2221 C.3     1  UNL1        0.2525
@<TRIPOS>BOND
     1    23    24    2
     2    24    19    1
     3    19    20    2
     4    19    21   am
     5    21    13    1
     6    13    14   ar
     7    14    15   ar
     8    15    16   ar
     9    16    17   ar
    10    17     1    1
    11     1     2   ar
    12     2     3    2
    13     2     4   ar
    14     4    25    1
    15    25    26    1
    16    25    27    1
    17     4     5   ar
    18     5     6    2
    19     5     7   ar
    20     7     8   ar
    21     8     9   ar
    22     9    10   ar
    23    10    28    1
    24    28    30    1
    25    30    31   ar
    26    31    32   ar
    27    32    33   ar
    28    33    36    1
    29    36    37    1
    30    37    38    1
    31    38    39    1
    32    39    40    1
    33    39    41    1
    34    41    42    1
    35    33    34   ar
    36    34    35   ar
    37    35    43    1
    38    43    44    1
    39    10    11   ar
    40    11    12   ar
    41    17    18   ar
    42    18    13   ar
    43    12     1   ar
    44    12     7   ar
    45    35    30   ar
    46    42    36    1
    47    21    22    1
    48    28    29    1
@<TRIPOS>MOLECULE
*****
 44 48 0 0 0
SMALL
GASTEIGER

@<TRIPOS>ATOM
      1 N           6.5405   -2.1845   28.3866 N.ar    1  UNL1       -0.2444
      2 C           6.7605   -3.1859   27.2918 C.ar    1  UNL1        0.3387
      3 O           6.1340   -2.9750   25.9453 O.2     1  UNL1       -0.2458
      4 N           7.6071   -4.3984   27.5434 N.ar    1  UNL1       -0.2502
      5 C           8.2337   -4.6093   28.8899 C.ar    1  UNL1        0.2686
      6 O           9.0803   -5.8218   29.1415 O.2     1  UNL1       -0.2667
      7 C           8.0137   -3.6079   29.9848 C.ar    1  UNL1        0.1100
      8 C           8.6402   -3.8189   31.3312 C.ar    1  UNL1        0.1096
      9 N           8.4202   -2.8174   32.4260 N.ar    1  UNL1       -0.2118
     10 C           7.5736   -1.6050   32.1744 C.ar    1  UNL1        0.2221
     11 N           6.9470   -1.3940   30.8279 N.ar    1  UNL1       -0.1955
     12 C           7.1671   -2.3954   29.7331 C.ar    1  UNL1        0.1600
     13 C           3.3544    0.1120   27.8168 C.ar    1  UNL1        0.0520
     14 C           4.0008    1.4528   27.6318 C.ar    1  UNL1        0.0148
     15 C           5.4938    1.5813   27.6984 C.ar    1  UNL1        0.0028
     16 C           6.3404    0.3688   27.9500 C.ar    1  UNL1        0.0178
     17 C           5.6939   -0.9721   28.1350 C.ar    1  UNL1        0.0708
     18 C           4.2010   -1.1005   28.0684 C.ar    1  UNL1        0.0324
     19 C           1.0711   -0.2406   29.0054 C.2     1  UNL1        0.2496
     20 O           1.7740   -0.3362   30.3271 O.2     1  UNL1       -0.2698
     21 N           1.8613   -0.0165   27.7503 N.am    1  UNL1       -0.2803
     22 H           1.4000    0.0462   26.8828 H       1  UNL1        0.1552
     23 C          -1.2436    0.7339   28.3403 C.2     1  UNL1        0.0048
     24 C          -0.4218   -0.3690   28.9389 C.2     1  UNL1        0.0580
     25 C           7.8272   -5.3998   26.4486 C.3     1  UNL1        0.0929
     26 C           8.8869   -5.1599   25.4145 C.3     1  UNL1        0.0247
     27 C           6.9874   -6.6413   26.3878 C.3     1  UNL1        0.0247
     28 N           7.3536   -0.6035   33.2692 N.pl3   1  UNL1       -0.2801
     29 H           8.0048   -0.5259   34.0035 H       1  UNL1        0.1552
     30 C           6.1414    0.2797   33.2454 C.ar    1  UNL1        0.0850
     31 C           6.2467    1.6840   32.7289 C.ar    1  UNL1        0.0190
     32 C           5.0344    2.5672   32.7051 C.ar    1  UNL1        0.0160
     33 C           3.7170    2.0460   33.1977 C.ar    1  UNL1        0.0510
     34 C           3.6117    0.6416   33.7141 C.ar    1  UNL1        0.0527
     35 C           4.8239   -0.2415   33.7380 C.ar    1  UNL1        0.1533
     36 N           2.5048    2.9291   33.1738 N.pl3   1  UNL1       -0.3046
     37 C           1.5526    2.8648   32.0165 C.3     1  UNL1        0.1081
     38 C           0.3404    3.7480   31.9927 C.3     1  UNL1        0.0938
     39 N           0.0804    4.6955   33.1261 N.3     1  UNL1       -0.2686
     40 C          -1.1318    5.5787   33.1023 C.3     1  UNL1        0.0897
     41 C           1.0325    4.7598   34.2834 C.3     1  UNL1        0.0938
     42 C           2.2447    3.8767   34.3072 C.3     1  UNL1        0.1081
     43 O           4.7186   -1.6459   34.2544 O.3     1  UNL1       -0.4701
     44 C           4.3610   -2.7637   33.3203 C.3     1  UNL1        0.2525
@<TRIPOS>BOND
     1    23    24    2
     2    24    19    1
     3    19    20    2
     4    19    21   am
     5    21    13    1
     6    13    14   ar
     7    14    15   ar
     8    15    16   ar
     9    16    17   ar
    10    17     1    1
    11     1     2   ar
    12     2     3    2
    13     2     4   ar
    14     4    25    1
    15    25    26    1
    16    25    27    1
    17     4     5   ar
    18     5     6    2
    19     5     7   ar
    20     7     8   ar
    21     8     9   ar
    22     9    10   ar
    23    10    28    1
    24    28    30    1
    25    30    31   ar
    26    31    32   ar
    27    32    33   ar
    28    33    36    1
    29    36    37    1
    30    37    38    1
    31    38    39    1
    32    39    40    1
    33    39    41    1
    34    41    42    1
    35    33    34   ar
    36    34    35   ar
    37    35    43    1
    38    43    44    1
    39    10    11   ar
    40    11    12   ar
    41    17    18   ar
    42    18    13   ar
    43    12     1   ar
    44    12     7   ar
    45    35    30   ar
    46    42    36    1
    47    21    22    1
    48    28    29    1
@<TRIPOS>MOLECULE
*****
 44 48 0 0 0
SMALL
GASTEIGER

@<TRIPOS>ATOM
      1 N           3.0260   -0.5730   21.0061 N.ar    1  UNL1       -0.2444
      2 C           3.5859   -1.3889   19.8789 C.ar    1  UNL1        0.3387
      3 O           3.2405   -1.0450   18.4602 O.2     1  UNL1       -0.2458
      4 N           4.4914   -2.5488   20.1702 N.ar    1  UNL1       -0.2502
      5 C           4.8369   -2.8928   21.5887 C.ar    1  UNL1        0.2686
      6 O           5.7423   -4.0526   21.8801 O.2     1  UNL1       -0.2667
      7 C           4.2769   -2.0768   22.7161 C.ar    1  UNL1        0.1100
      8 C           4.6223   -2.4208   24.1346 C.ar    1  UNL1        0.1096
      9 N           4.0624   -1.6049   25.2618 N.ar    1  UNL1       -0.2118
     10 C           3.1569   -0.4450   24.9705 C.ar    1  UNL1        0.2221
     11 N           2.8115   -0.1010   23.5519 N.ar    1  UNL1       -0.1955
     12 C           3.3714   -0.9170   22.4247 C.ar    1  UNL1        0.1600
     13 C           1.7842    3.1286   20.2948 C.ar    1  UNL1        0.0520
     14 C           0.3097    2.9066   20.1321 C.ar    1  UNL1        0.0148
     15 C          -0.2595    1.5247   20.2608 C.ar    1  UNL1        0.0028
     16 C           0.6460    0.3648   20.5521 C.ar    1  UNL1        0.0178
     17 C           2.1205    0.5869   20.7148 C.ar    1  UNL1        0.0708
     18 C           2.6896    1.9687   20.5861 C.ar    1  UNL1        0.0324
     19 C           3.0217    4.9306   18.8907 C.2     1  UNL1        0.2496
     20 O           3.1211    3.9687   17.7439 O.2     1  UNL1       -0.2698
     21 N           2.3533    4.5105   20.1662 N.am    1  UNL1       -0.2803
     22 H           2.2881    5.1418   20.9188 H       1  UNL1        0.1552
     23 C           5.0727    6.5250   18.8563 C.2     1  UNL1        0.0048
     24 C           3.5909    6.3124   18.7621 C.2     1  UNL1        0.0580
     25 C           5.0514   -3.3648   19.0429 C.3     1  UNL1        0.0929
     26 C           4.4748   -4.7150   18.7358 C.3     1  UNL1        0.0247
     27 C           6.1879   -2.8303   18.2227 C.3     1  UNL1        0.0247
     28 N           2.5970    0.3709   26.0978 N.pl3   1  UNL1       -0.2801
     29 H           3.0676    0.4051   26.9618 H       1  UNL1        0.1552
     30 C           1.3200    1.1347   25.9086 C.ar    1  UNL1        0.0850
     31 C           1.0893    1.9090   24.6448 C.ar    1  UNL1        0.0190
     32 C          -0.1878    2.6728   24.4556 C.ar    1  UNL1        0.0160
     33 C          -1.2341    2.6623   25.5303 C.ar    1  UNL1        0.0510
     34 C          -1.0035    1.8881   26.7941 C.ar    1  UNL1        0.0527
     35 C           0.2735    1.1243   26.9833 C.ar    1  UNL1        0.1533
     36 N          -2.5111    3.4261   25.3411 N.pl3   1  UNL1       -0.3046
     37 C          -2.9336    3.8522   23.9664 C.3     1  UNL1        0.1081
     38 C          -4.2107    4.6160   23.7772 C.3     1  UNL1        0.0938
     39 N          -5.0652    4.9537   24.9628 N.3     1  UNL1       -0.2686
     40 C          -6.3422    5.7175   24.7736 C.3     1  UNL1        0.0897
     41 C          -4.6428    4.5276   26.3376 C.3     1  UNL1        0.0938
     42 C          -3.3658    3.7638   26.5267 C.3     1  UNL1        0.1081
     43 O           0.5042    0.3500   28.2472 O.3     1  UNL1       -0.4701
     44 C          -0.6378   -0.3624   28.9093 C.3     1  UNL1        0.2525
@<TRIPOS>BOND
     1    23    24    2
     2    24    19    1
     3    19    20    2
     4    19    21   am
     5    21    13    1
     6    13    14   ar
     7    14    15   ar
     8    15    16   ar
     9    16    17   ar
    10    17     1    1
    11     1     2   ar
    12     2     3    2
    13     2     4   ar
    14     4    25    1
    15    25    26    1
    16    25    27    1
    17     4     5   ar
    18     5     6    2
    19     5     7   ar
    20     7     8   ar
    21     8     9   ar
    22     9    10   ar
    23    10    28    1
    24    28    30    1
    25    30    31   ar
    26    31    32   ar
    27    32    33   ar
    28    33    36    1
    29    36    37    1
    30    37    38    1
    31    38    39    1
    32    39    40    1
    33    39    41    1
    34    41    42    1
    35    33    34   ar
    36    34    35   ar
    37    35    43    1
    38    43    44    1
    39    10    11   ar
    40    11    12   ar
    41    17    18   ar
    42    18    13   ar
    43    12     1   ar
    44    12     7   ar
    45    35    30   ar
    46    42    36    1
    47    21    22    1
    48    28    29    1
@<TRIPOS>MOLECULE
*****
 44 48 0 0 0
SMALL
GASTEIGER

@<TRIPOS>ATOM
      1 N           4.1523   -0.8041   23.2047 N.ar    1  UNL1       -0.2444
      2 C           4.4705   -1.5610   21.9494 C.ar    1  UNL1        0.3387
      3 O           5.7209   -2.3855   21.8672 O.2     1  UNL1       -0.2458
      4 N           3.5382   -1.4935   20.7762 N.ar    1  UNL1       -0.2502
      5 C           2.2878   -0.6691   20.8583 C.ar    1  UNL1        0.2686
      6 O           1.3555   -0.6016   19.6852 O.2     1  UNL1       -0.2667
      7 C           1.9696    0.0879   22.1137 C.ar    1  UNL1        0.1100
      8 C           0.7192    0.9123   22.1958 C.ar    1  UNL1        0.1096
      9 N           0.4011    1.6692   23.4511 N.ar    1  UNL1       -0.2118
     10 C           1.3333    1.6017   24.6243 C.ar    1  UNL1        0.2221
     11 N           2.5837    0.7773   24.5422 N.ar    1  UNL1       -0.1955
     12 C           2.9019    0.0204   23.2869 C.ar    1  UNL1        0.1600
     13 C           5.8600   -2.0267   26.5720 C.ar    1  UNL1        0.0520
     14 C           6.9491   -1.0066   26.7242 C.ar    1  UNL1        0.0148
     15 C           7.1060    0.0811   25.7032 C.ar    1  UNL1        0.0028
     16 C           6.1737    0.1486   24.5300 C.ar    1  UNL1        0.0178
     17 C           5.0846   -0.8716   24.3779 C.ar    1  UNL1        0.0708
     18 C           4.9278   -1.9592   25.3988 C.ar    1  UNL1        0.0324
     19 C           6.5708   -4.3363   27.5265 C.2     1  UNL1        0.2496
     20 O           7.5952   -4.4704   26.4390 O.2     1  UNL1       -0.2698
     21 N           5.7032   -3.1145   27.5930 N.am    1  UNL1       -0.2803
     22 H           5.0308   -3.0264   28.3067 H       1  UNL1        0.1552
     23 C           6.8430   -5.1892   29.9654 C.2     1  UNL1        0.0048
     24 C           6.4140   -5.4240   28.5474 C.2     1  UNL1        0.0580
     25 C           3.8564   -2.2505   19.5209 C.3     1  UNL1        0.0929
     26 C           4.6041   -1.5774   18.4083 C.3     1  UNL1        0.0247
     27 C           3.4268   -3.6805   19.3781 C.3     1  UNL1        0.0247
     28 N           1.0152    2.3587   25.8796 N.pl3   1  UNL1       -0.2801
     29 H           0.4211    3.1430   25.8443 H       1  UNL1        0.1552
     30 C           1.6020    1.9207   27.1887 C.ar    1  UNL1        0.0850
     31 C           2.9835    2.3590   27.5754 C.ar    1  UNL1        0.0190
     32 C           3.5704    1.9210   28.8845 C.ar    1  UNL1        0.0160
     33 C           2.7758    1.0447   29.8069 C.ar    1  UNL1        0.0510
     34 C           1.3944    0.6065   29.4202 C.ar    1  UNL1        0.0527
     35 C           0.8075    1.0444   28.1111 C.ar    1  UNL1        0.1533
     36 N           3.3627    0.6067   31.1159 N.pl3   1  UNL1       -0.3046
     37 C           3.6094   -0.8495   31.3775 C.3     1  UNL1        0.1081
     38 C           4.1964   -1.2875   32.6866 C.3     1  UNL1        0.0938
     39 N           4.5365   -0.2692   33.7341 N.3     1  UNL1       -0.2686
     40 C           5.1234   -0.7072   35.0432 C.3     1  UNL1        0.0897
     41 C           4.2898    1.1870   33.4726 C.3     1  UNL1        0.0938
     42 C           3.7029    1.6250   32.1635 C.3     1  UNL1        0.1081
     43 O          -0.5740    0.6062   27.7245 O.3     1  UNL1       -0.4701
     44 C          -1.4765   -0.0182   28.7470 C.3     1  UNL1        0.2525
@<TRIPOS>BOND
     1    23    24    2
     2    24    19    1
     3    19    20    2
     4    19    21   am
     5    21    13    1
     6    13    14   ar
     7    14    15   ar
     8    15    16   ar
     9    16    17   ar
    10    17     1    1
    11     1     2   ar
    12     2     3    2
    13     2     4   ar
    14     4    25    1
    15    25    26    1
    16    25    27    1
    17     4     5   ar
    18     5     6    2
    19     5     7   ar
    20     7     8   ar
    21     8     9   ar
    22     9    10   ar
    23    10    28    1
    24    28    30    1
    25    30    31   ar
    26    31    32   ar
    27    32    33   ar
    28    33    36    1
    29    36    37    1
    30    37    38    1
    31    38    39    1
    32    39    40    1
    33    39    41    1
    34    41    42    1
    35    33    34   ar
    36    34    35   ar
    37    35    43    1
    38    43    44    1
    39    10    11   ar
    40    11    12   ar
    41    17    18   ar
    42    18    13   ar
    43    12     1   ar
    44    12     7   ar
    45    35    30   ar
    46    42    36    1
    47    21    22    1
    48    28    29    1
