@<TRIPOS>MOLECULE
*****
 31 34 0 0 0
SMALL
GASTEIGER

@<TRIPOS>ATOM
      1 O           8.6907   -2.9737   30.2645 O.2     1  UNL1       -0.2522
      2 C           7.2979   -3.1729   30.7847 C.2     1  UNL1        0.3077
      3 N           6.3821   -4.1567   30.1188 N.am    1  UNL1       -0.2681
      4 N           6.8210   -2.3882   31.9709 N.am    1  UNL1       -0.2639
      5 C           7.7369   -1.4044   32.6367 C.3     1  UNL1        0.0955
      6 C           7.2599   -0.6198   33.8228 C.3     1  UNL1        0.0309
      7 C           5.8672   -0.8190   34.3431 C.3     1  UNL1        0.0827
      8 C           4.9514   -1.8027   33.6772 C.3     1  UNL1        0.0309
      9 C           5.4283   -2.5873   32.4911 C.3     1  UNL1        0.0955
     10 H           5.4680   -4.2874   30.4603 H       1  UNL1        0.1564
     11 C           6.8590   -4.9414   28.9327 C.ar    1  UNL1        0.0516
     12 C           6.5294   -4.4775   27.5448 C.ar    1  UNL1        0.0147
     13 C           7.0063   -5.2622   26.3588 C.ar    1  UNL1        0.0051
     14 C           7.8128   -6.5107   26.5605 C.ar    1  UNL1        0.0715
     15 C           8.1424   -6.9746   27.9484 C.ar    1  UNL1        0.0051
     16 C           7.6655   -6.1899   29.1344 C.ar    1  UNL1        0.0147
     17 C           8.2897   -7.2954   25.3744 C.3     1  UNL1        0.4186
     18 F           8.7666   -8.0801   24.1883 F       1  UNL1       -0.1659
     19 F           7.6292   -6.3097   24.4567 F       1  UNL1       -0.1659
     20 F           8.9501   -8.2811   26.2920 F       1  UNL1       -0.1659
     21 C           5.3903   -0.0343   35.5292 C.ar    1  UNL1        0.2362
     22 N           3.9649    0.1167   35.9713 N.ar    1  UNL1       -0.1895
     23 C           3.9487    0.9814   37.1968 C.ar    1  UNL1        0.2210
     24 N           5.3642    1.3650   37.5122 N.ar    1  UNL1       -0.0544
     25 O           6.2551    0.7372   36.4816 O.2     1  UNL1       -0.3370
     26 C           2.7309    1.3908   37.9710 C.ar    1  UNL1        0.1203
     27 C           2.1660    0.4776   39.0184 C.ar    1  UNL1        0.0224
     28 C           0.9482    0.8870   39.7926 C.ar    1  UNL1        0.0032
     29 C           0.2953    2.2096   39.5194 C.ar    1  UNL1        0.0207
     30 C           0.8603    3.1227   38.4720 C.ar    1  UNL1        0.0989
     31 N           2.0780    2.7133   37.6978 N.ar    1  UNL1       -0.2406
@<TRIPOS>BOND
     1     1     2    2
     2     2     3   am
     3     3    11    1
     4    11    12   ar
     5    12    13   ar
     6    13    14   ar
     7    14    17    1
     8    17    18    1
     9    17    19    1
    10    17    20    1
    11    14    15   ar
    12    15    16   ar
    13     2     4   am
    14     4     5    1
    15     5     6    1
    16     6     7    1
    17     7    21    1
    18    21    22   ar
    19    22    23   ar
    20    23    26    1
    21    26    27   ar
    22    27    28   ar
    23    28    29   ar
    24    29    30   ar
    25    30    31   ar
    26    23    24   ar
    27    24    25   ar
    28     7     8    1
    29     8     9    1
    30    16    11   ar
    31     9     4    1
    32    25    21   ar
    33    31    26   ar
    34     3    10    1
@<TRIPOS>MOLECULE
*****
 31 34 0 0 0
SMALL
GASTEIGER

@<TRIPOS>ATOM
      1 O          -2.4585    3.3760   19.1394 O.2     1  UNL1       -0.2522
      2 C          -2.4202    3.2221   20.6309 C.2     1  UNL1        0.3077
      3 N          -1.2349    2.5797   21.2884 N.am    1  UNL1       -0.2681
      4 N          -3.5672    3.7107   21.4651 N.am    1  UNL1       -0.2639
      5 C          -4.7525    4.3531   20.8076 C.3     1  UNL1        0.0955
      6 C          -5.8994    4.8417   21.6418 C.3     1  UNL1        0.0309
      7 C          -5.8611    4.6878   23.1334 C.3     1  UNL1        0.0827
      8 C          -4.6758    4.0453   23.7908 C.3     1  UNL1        0.0309
      9 C          -3.5288    3.5568   22.9567 C.3     1  UNL1        0.0955
     10 H          -1.2097    2.4787   22.2674 H       1  UNL1        0.1564
     11 C          -0.0879    2.0911   20.4543 C.ar    1  UNL1        0.0516
     12 C           0.8204    3.0750   19.7782 C.ar    1  UNL1        0.0147
     13 C           1.9673    2.5864   18.9441 C.ar    1  UNL1        0.0051
     14 C           2.2060    1.1139   18.7861 C.ar    1  UNL1        0.0715
     15 C           1.2978    0.1301   19.4622 C.ar    1  UNL1        0.0051
     16 C           0.1509    0.6187   20.2963 C.ar    1  UNL1        0.0147
     17 C           3.3530    0.6254   17.9519 C.3     1  UNL1        0.4186
     18 F           4.5000    0.1368   17.1179 F       1  UNL1       -0.1659
     19 F           2.4860   -0.4668   17.3993 F       1  UNL1       -0.1659
     20 F           4.2201    1.7175   18.5045 F       1  UNL1       -0.1659
     21 C          -7.0081    5.1763   23.9675 C.ar    1  UNL1        0.2362
     22 N          -8.4642    4.9754   23.6684 N.ar    1  UNL1       -0.1895
     23 C          -9.2564    5.6265   24.7632 C.ar    1  UNL1        0.2210
     24 N          -8.2899    6.2298   25.7389 N.ar    1  UNL1       -0.0544
     25 O          -6.9004    5.9516   25.2471 O.2     1  UNL1       -0.3370
     26 C         -10.7524    5.6671   24.8645 C.ar    1  UNL1        0.1203
     27 C         -11.5361    4.3889   24.9100 C.ar    1  UNL1        0.0224
     28 C         -13.0321    4.4295   25.0113 C.ar    1  UNL1        0.0032
     29 C         -13.7444    5.7484   25.0671 C.ar    1  UNL1        0.0207
     30 C         -12.9608    7.0266   25.0216 C.ar    1  UNL1        0.0989
     31 N         -11.4648    6.9860   24.9203 N.ar    1  UNL1       -0.2406
@<TRIPOS>BOND
     1     1     2    2
     2     2     3   am
     3     3    11    1
     4    11    12   ar
     5    12    13   ar
     6    13    14   ar
     7    14    17    1
     8    17    18    1
     9    17    19    1
    10    17    20    1
    11    14    15   ar
    12    15    16   ar
    13     2     4   am
    14     4     5    1
    15     5     6    1
    16     6     7    1
    17     7    21    1
    18    21    22   ar
    19    22    23   ar
    20    23    26    1
    21    26    27   ar
    22    27    28   ar
    23    28    29   ar
    24    29    30   ar
    25    30    31   ar
    26    23    24   ar
    27    24    25   ar
    28     7     8    1
    29     8     9    1
    30    16    11   ar
    31     9     4    1
    32    25    21   ar
    33    31    26   ar
    34     3    10    1
@<TRIPOS>MOLECULE
*****
 31 34 0 0 0
SMALL
GASTEIGER

@<TRIPOS>ATOM
      1 O           5.3861    2.2169   34.6059 O.2     1  UNL1       -0.2522
      2 C           4.4119    1.1671   34.1601 C.2     1  UNL1        0.3077
      3 N           2.9393    1.3828   34.3467 N.am    1  UNL1       -0.2681
      4 N           4.9103   -0.0986   33.5277 N.am    1  UNL1       -0.2639
      5 C           6.3829   -0.3143   33.3411 C.3     1  UNL1        0.0955
      6 C           6.8813   -1.5799   32.7088 C.3     1  UNL1        0.0309
      7 C           5.9070   -2.6297   32.2630 C.3     1  UNL1        0.0827
      8 C           4.4344   -2.4139   32.4495 C.3     1  UNL1        0.0309
      9 C           3.9361   -1.1484   33.0819 C.3     1  UNL1        0.0955
     10 H           2.2999    0.6938   34.0541 H       1  UNL1        0.1564
     11 C           2.4408    2.6484   34.9791 C.ar    1  UNL1        0.0516
     12 C           1.7930    3.7046   34.1337 C.ar    1  UNL1        0.0147
     13 C           1.2946    4.9702   34.7661 C.ar    1  UNL1        0.0051
     14 C           1.4441    5.1795   36.2439 C.ar    1  UNL1        0.0715
     15 C           2.0919    4.1233   37.0893 C.ar    1  UNL1        0.0051
     16 C           2.5903    2.8578   36.4569 C.ar    1  UNL1        0.0147
     17 C           0.9456    6.4451   36.8763 C.3     1  UNL1        0.4186
     18 F           0.4473    7.7107   37.5087 F       1  UNL1       -0.1659
     19 F          -0.4203    6.1893   36.3119 F       1  UNL1       -0.1659
     20 F           2.3116    6.7010   37.4408 F       1  UNL1       -0.1659
     21 C           6.4054   -3.8953   31.6306 C.ar    1  UNL1        0.2362
     22 N           6.5923   -4.1325   30.1613 N.ar    1  UNL1       -0.1895
     23 C           7.1068   -5.5296   29.9790 C.ar    1  UNL1        0.2210
     24 N           7.2380   -6.1559   31.3357 N.ar    1  UNL1       -0.0544
     25 O           6.8045   -5.1458   32.3564 O.2     1  UNL1       -0.3370
     26 C           7.4330   -6.1854   28.6700 C.ar    1  UNL1        0.1203
     27 C           6.7852   -5.7012   27.4066 C.ar    1  UNL1        0.0224
     28 C           7.1114   -6.3569   26.0976 C.ar    1  UNL1        0.0032
     29 C           8.0852   -7.4968   26.0519 C.ar    1  UNL1        0.0207
     30 C           8.7330   -7.9810   27.3152 C.ar    1  UNL1        0.0989
     31 N           8.4068   -7.3253   28.6243 N.ar    1  UNL1       -0.2406
@<TRIPOS>BOND
     1     1     2    2
     2     2     3   am
     3     3    11    1
     4    11    12   ar
     5    12    13   ar
     6    13    14   ar
     7    14    17    1
     8    17    18    1
     9    17    19    1
    10    17    20    1
    11    14    15   ar
    12    15    16   ar
    13     2     4   am
    14     4     5    1
    15     5     6    1
    16     6     7    1
    17     7    21    1
    18    21    22   ar
    19    22    23   ar
    20    23    26    1
    21    26    27   ar
    22    27    28   ar
    23    28    29   ar
    24    29    30   ar
    25    30    31   ar
    26    23    24   ar
    27    24    25   ar
    28     7     8    1
    29     8     9    1
    30    16    11   ar
    31     9     4    1
    32    25    21   ar
    33    31    26   ar
    34     3    10    1
@<TRIPOS>MOLECULE
*****
 31 34 0 0 0
SMALL
GASTEIGER

@<TRIPOS>ATOM
      1 O           0.5256    1.0745   23.2207 O.2     1  UNL1       -0.2522
      2 C           1.6992    0.9042   24.1392 C.2     1  UNL1        0.3077
      3 N           3.0172    0.4398   23.5940 N.am    1  UNL1       -0.2681
      4 N           1.5548    1.1984   25.6030 N.am    1  UNL1       -0.2639
      5 C           0.2369    1.6628   26.1483 C.3     1  UNL1        0.0955
      6 C           0.0926    1.9570   27.6120 C.3     1  UNL1        0.0309
      7 C           1.2662    1.7868   28.5305 C.3     1  UNL1        0.0827
      8 C           2.5841    1.3224   27.9853 C.3     1  UNL1        0.0309
      9 C           2.7284    1.0282   26.5216 C.3     1  UNL1        0.0955
     10 H           3.7874    0.3281   24.1969 H       1  UNL1        0.1564
     11 C           3.1615    0.1456   22.1302 C.ar    1  UNL1        0.0516
     12 C           3.4583    1.2570   21.1675 C.ar    1  UNL1        0.0147
     13 C           3.6026    0.9627   19.7038 C.ar    1  UNL1        0.0051
     14 C           3.4503   -0.4429   19.2027 C.ar    1  UNL1        0.0715
     15 C           3.1536   -1.5542   20.1654 C.ar    1  UNL1        0.0051
     16 C           3.0092   -1.2600   21.6291 C.ar    1  UNL1        0.0147
     17 C           3.5947   -0.7371   17.7389 C.3     1  UNL1        0.4186
     18 F           3.7391   -1.0313   16.2752 F       1  UNL1       -0.1659
     19 F           3.2376    0.6840   17.4181 F       1  UNL1       -0.1659
     20 F           3.9517   -2.1581   18.0598 F       1  UNL1       -0.1659
     21 C           1.1218    2.0810   29.9943 C.ar    1  UNL1        0.2362
     22 N           0.7942    3.4148   30.5975 N.ar    1  UNL1       -0.1895
     23 C           0.7496    3.2512   32.0878 C.ar    1  UNL1        0.2210
     24 N           1.0495    1.8163   32.4058 N.ar    1  UNL1       -0.0544
     25 O           1.2796    1.0931   31.1120 O.2     1  UNL1       -0.3370
     26 C           0.4565    4.3326   33.0851 C.ar    1  UNL1        0.1203
     27 C          -0.7088    5.2530   32.8726 C.ar    1  UNL1        0.0224
     28 C          -1.0019    6.3345   33.8699 C.ar    1  UNL1        0.0032
     29 C          -0.1298    6.4955   35.0797 C.ar    1  UNL1        0.0207
     30 C           1.0355    5.5751   35.2921 C.ar    1  UNL1        0.0989
     31 N           1.3286    4.4937   34.2948 N.ar    1  UNL1       -0.2406
@<TRIPOS>BOND
     1     1     2    2
     2     2     3   am
     3     3    11    1
     4    11    12   ar
     5    12    13   ar
     6    13    14   ar
     7    14    17    1
     8    17    18    1
     9    17    19    1
    10    17    20    1
    11    14    15   ar
    12    15    16   ar
    13     2     4   am
    14     4     5    1
    15     5     6    1
    16     6     7    1
    17     7    21    1
    18    21    22   ar
    19    22    23   ar
    20    23    26    1
    21    26    27   ar
    22    27    28   ar
    23    28    29   ar
    24    29    30   ar
    25    30    31   ar
    26    23    24   ar
    27    24    25   ar
    28     7     8    1
    29     8     9    1
    30    16    11   ar
    31     9     4    1
    32    25    21   ar
    33    31    26   ar
    34     3    10    1
@<TRIPOS>MOLECULE
*****
 31 34 0 0 0
SMALL
GASTEIGER

@<TRIPOS>ATOM
      1 O           6.5472   -3.5873   31.4916 O.2     1  UNL1       -0.2522
      2 C           6.1524   -2.5960   30.4374 C.2     1  UNL1        0.3077
      3 N           5.6095   -1.2552   30.8344 N.am    1  UNL1       -0.2681
      4 N           6.3006   -2.9454   28.9862 N.am    1  UNL1       -0.2639
      5 C           6.8436   -4.2861   28.5892 C.3     1  UNL1        0.0955
      6 C           6.9917   -4.6354   27.1380 C.3     1  UNL1        0.0309
      7 C           6.5969   -3.6441   26.0838 C.3     1  UNL1        0.0827
      8 C           6.0540   -2.3033   26.4808 C.3     1  UNL1        0.0309
      9 C           5.9058   -1.9540   27.9320 C.3     1  UNL1        0.0955
     10 H           5.3504   -0.6046   30.1425 H       1  UNL1        0.1564
     11 C           5.4613   -0.9058   32.2857 C.ar    1  UNL1        0.0516
     12 C           6.4417    0.0239   32.9371 C.ar    1  UNL1        0.0147
     13 C           6.2934    0.3732   34.3883 C.ar    1  UNL1        0.0051
     14 C           5.1648   -0.2071   35.1880 C.ar    1  UNL1        0.0715
     15 C           4.1845   -1.1368   34.5365 C.ar    1  UNL1        0.0051
     16 C           4.3327   -1.4862   33.0853 C.ar    1  UNL1        0.0147
     17 C           5.0167    0.1423   36.6392 C.3     1  UNL1        0.4186
     18 F           4.8684    0.4917   38.0904 F       1  UNL1       -0.1659
     19 F           6.2815   -0.6026   36.9478 F       1  UNL1       -0.1659
     20 F           3.7518    0.8873   36.3307 F       1  UNL1       -0.1659
     21 C           6.7451   -3.9935   24.6326 C.ar    1  UNL1        0.2362
     22 N           6.0706   -3.3009   23.4857 N.ar    1  UNL1       -0.1895
     23 C           6.5024   -3.9762   22.2178 C.ar    1  UNL1        0.2210
     24 N           7.4438   -5.0860   22.5811 N.ar    1  UNL1       -0.0544
     25 O           7.5938   -5.0967   24.0735 O.2     1  UNL1       -0.3370
     26 C           6.0689   -3.6065   20.8302 C.ar    1  UNL1        0.1203
     27 C           4.7092   -4.0052   20.3379 C.ar    1  UNL1        0.0224
     28 C           4.2757   -3.6355   18.9504 C.ar    1  UNL1        0.0032
     29 C           5.2020   -2.8671   18.0550 C.ar    1  UNL1        0.0207
     30 C           6.5617   -2.4684   18.5473 C.ar    1  UNL1        0.0989
     31 N           6.9951   -2.8381   19.9348 N.ar    1  UNL1       -0.2406
@<TRIPOS>BOND
     1     1     2    2
     2     2     3   am
     3     3    11    1
     4    11    12   ar
     5    12    13   ar
     6    13    14   ar
     7    14    17    1
     8    17    18    1
     9    17    19    1
    10    17    20    1
    11    14    15   ar
    12    15    16   ar
    13     2     4   am
    14     4     5    1
    15     5     6    1
    16     6     7    1
    17     7    21    1
    18    21    22   ar
    19    22    23   ar
    20    23    26    1
    21    26    27   ar
    22    27    28   ar
    23    28    29   ar
    24    29    30   ar
    25    30    31   ar
    26    23    24   ar
    27    24    25   ar
    28     7     8    1
    29     8     9    1
    30    16    11   ar
    31     9     4    1
    32    25    21   ar
    33    31    26   ar
    34     3    10    1
@<TRIPOS>MOLECULE
*****
 31 34 0 0 0
SMALL
GASTEIGER

@<TRIPOS>ATOM
      1 O          -1.0499    4.2634   19.2598 O.2     1  UNL1       -0.2522
      2 C          -0.9573    2.9120   19.9040 C.2     1  UNL1        0.3077
      3 N          -2.0244    2.4605   20.8566 N.am    1  UNL1       -0.2681
      4 N           0.2025    2.0120   19.5957 N.am    1  UNL1       -0.2639
      5 C           1.2696    2.4635   18.6431 C.3     1  UNL1        0.0955
      6 C           2.4293    1.5635   18.3348 C.3     1  UNL1        0.0309
      7 C           2.5218    0.2120   18.9790 C.3     1  UNL1        0.0827
      8 C           1.4547   -0.2394   19.9315 C.3     1  UNL1        0.0309
      9 C           0.2950    0.6605   20.2399 C.3     1  UNL1        0.0955
     10 H          -1.9637    1.5735   21.2794 H       1  UNL1        0.1564
     11 C          -3.1842    3.3605   21.1649 C.ar    1  UNL1        0.0516
     12 C          -3.1008    4.3257   22.3101 C.ar    1  UNL1        0.0147
     13 C          -4.2605    5.2256   22.6184 C.ar    1  UNL1        0.0051
     14 C          -5.5037    5.1603   21.7816 C.ar    1  UNL1        0.0715
     15 C          -5.5871    4.1951   20.6364 C.ar    1  UNL1        0.0051
     16 C          -4.4274    3.2952   20.3281 C.ar    1  UNL1        0.0147
     17 C          -6.6635    6.0603   22.0900 C.3     1  UNL1        0.4186
     18 F          -7.8232    6.9602   22.3983 F       1  UNL1       -0.1659
     19 F          -5.7308    7.2317   22.1789 F       1  UNL1       -0.1659
     20 F          -7.5961    4.8889   22.0010 F       1  UNL1       -0.1659
     21 C           3.6816   -0.6879   18.6706 C.ar    1  UNL1        0.2362
     22 N           4.7256   -1.1461   19.6454 N.ar    1  UNL1       -0.1895
     23 C           5.6902   -2.0291   18.9106 C.ar    1  UNL1        0.2210
     24 N           5.2424   -2.1166   17.4817 N.ar    1  UNL1       -0.0544
     25 O           4.0010   -1.2877   17.3334 O.2     1  UNL1       -0.3370
     26 C           6.8917   -2.7057   19.5011 C.ar    1  UNL1        0.1203
     27 C           8.2626   -2.3866   18.9825 C.ar    1  UNL1        0.0224
     28 C           9.4641   -3.0632   19.5730 C.ar    1  UNL1        0.0032
     29 C           9.2946   -4.0589   20.6819 C.ar    1  UNL1        0.0207
     30 C           7.9238   -4.3780   21.2005 C.ar    1  UNL1        0.0989
     31 N           6.7223   -3.7014   20.6100 N.ar    1  UNL1       -0.2406
@<TRIPOS>BOND
     1     1     2    2
     2     2     3   am
     3     3    11    1
     4    11    12   ar
     5    12    13   ar
     6    13    14   ar
     7    14    17    1
     8    17    18    1
     9    17    19    1
    10    17    20    1
    11    14    15   ar
    12    15    16   ar
    13     2     4   am
    14     4     5    1
    15     5     6    1
    16     6     7    1
    17     7    21    1
    18    21    22   ar
    19    22    23   ar
    20    23    26    1
    21    26    27   ar
    22    27    28   ar
    23    28    29   ar
    24    29    30   ar
    25    30    31   ar
    26    23    24   ar
    27    24    25   ar
    28     7     8    1
    29     8     9    1
    30    16    11   ar
    31     9     4    1
    32    25    21   ar
    33    31    26   ar
    34     3    10    1
@<TRIPOS>MOLECULE
*****
 31 34 0 0 0
SMALL
GASTEIGER

@<TRIPOS>ATOM
      1 O           5.9263   -0.7307   23.9307 O.2     1  UNL1       -0.2522
      2 C           4.6012   -0.8224   24.6277 C.2     1  UNL1        0.3077
      3 N           3.3368   -0.9140   23.8260 N.am    1  UNL1       -0.2681
      4 N           4.5407   -0.8224   26.1265 N.am    1  UNL1       -0.2639
      5 C           5.8051   -0.7307   26.9283 C.3     1  UNL1        0.0955
      6 C           5.7444   -0.7308   28.4270 C.3     1  UNL1        0.0309
      7 C           4.4194   -0.8225   29.1240 C.3     1  UNL1        0.0827
      8 C           3.1550   -0.9142   28.3223 C.3     1  UNL1        0.0309
      9 C           3.2156   -0.9141   26.8235 C.3     1  UNL1        0.0955
     10 H           2.4672   -0.9742   24.2835 H       1  UNL1        0.1564
     11 C           3.3974   -0.9140   22.3271 C.ar    1  UNL1        0.0516
     12 C           2.9808    0.3056   21.5597 C.ar    1  UNL1        0.0147
     13 C           3.0414    0.3056   20.0610 C.ar    1  UNL1        0.0051
     14 C           3.5186   -0.9140   19.3297 C.ar    1  UNL1        0.0715
     15 C           3.9353   -2.1336   20.0971 C.ar    1  UNL1        0.0051
     16 C           3.8747   -2.1336   21.5958 C.ar    1  UNL1        0.0147
     17 C           3.5792   -0.9140   17.8308 C.3     1  UNL1        0.4186
     18 F           3.6398   -0.9139   16.3321 F       1  UNL1       -0.1659
     19 F           4.4153   -2.1588   17.8645 F       1  UNL1       -0.1659
     20 F           2.7431    0.3309   17.7971 F       1  UNL1       -0.1659
     21 C           4.3588   -0.8225   30.6228 C.ar    1  UNL1        0.2362
     22 N           5.5026   -0.5408   31.5515 N.ar    1  UNL1       -0.1895
     23 C           4.9945   -0.6484   32.9587 C.ar    1  UNL1        0.2210
     24 N           3.5367   -0.9967   32.8997 N.ar    1  UNL1       -0.0544
     25 O           3.1438   -1.1043   31.4561 O.2     1  UNL1       -0.3370
     26 C           5.8024   -0.4437   34.2058 C.ar    1  UNL1        0.1203
     27 C           5.1143   -0.3142   35.5324 C.ar    1  UNL1        0.0224
     28 C           5.9222   -0.1095   36.7796 C.ar    1  UNL1        0.0032
     29 C           7.4182   -0.0343   36.7001 C.ar    1  UNL1        0.0207
     30 C           8.1063   -0.1638   35.3736 C.ar    1  UNL1        0.0989
     31 N           7.2984   -0.3685   34.1264 N.ar    1  UNL1       -0.2406
@<TRIPOS>BOND
     1     1     2    2
     2     2     3   am
     3     3    11    1
     4    11    12   ar
     5    12    13   ar
     6    13    14   ar
     7    14    17    1
     8    17    18    1
     9    17    19    1
    10    17    20    1
    11    14    15   ar
    12    15    16   ar
    13     2     4   am
    14     4     5    1
    15     5     6    1
    16     6     7    1
    17     7    21    1
    18    21    22   ar
    19    22    23   ar
    20    23    26    1
    21    26    27   ar
    22    27    28   ar
    23    28    29   ar
    24    29    30   ar
    25    30    31   ar
    26    23    24   ar
    27    24    25   ar
    28     7     8    1
    29     8     9    1
    30    16    11   ar
    31     9     4    1
    32    25    21   ar
    33    31    26   ar
    34     3    10    1
@<TRIPOS>MOLECULE
*****
 31 34 0 0 0
SMALL
GASTEIGER

@<TRIPOS>ATOM
      1 O           4.0375   -1.8025   24.2175 O.2     1  UNL1       -0.2522
      2 C           3.4000   -0.5086   24.6291 C.2     1  UNL1        0.3077
      3 N           2.9441    0.4681   23.5860 N.am    1  UNL1       -0.2681
      4 N           3.2185   -0.1913   26.0839 N.am    1  UNL1       -0.2639
      5 C           3.6745   -1.1680   27.1271 C.3     1  UNL1        0.0955
      6 C           3.4929   -0.8508   28.5818 C.3     1  UNL1        0.0309
      7 C           2.8554    0.4431   28.9934 C.3     1  UNL1        0.0827
      8 C           2.3995    1.4198   27.9503 C.3     1  UNL1        0.0309
      9 C           2.5810    1.1026   26.4956 C.3     1  UNL1        0.0955
     10 H           2.5257    1.3173   23.8561 H       1  UNL1        0.1564
     11 C           3.1256    0.1509   22.1311 C.ar    1  UNL1        0.0516
     12 C           4.4466    0.4045   21.4673 C.ar    1  UNL1        0.0147
     13 C           4.6280    0.0873   20.0126 C.ar    1  UNL1        0.0051
     14 C           3.4885   -0.4835   19.2216 C.ar    1  UNL1        0.0715
     15 C           2.1676   -0.7372   19.8854 C.ar    1  UNL1        0.0051
     16 C           1.9861   -0.4200   21.3401 C.ar    1  UNL1        0.0147
     17 C           3.6701   -0.8008   17.7667 C.3     1  UNL1        0.4186
     18 F           3.8516   -1.1179   16.3119 F       1  UNL1       -0.1659
     19 F           4.4017   -2.0582   18.1321 F       1  UNL1       -0.1659
     20 F           2.9385    0.4567   17.4013 F       1  UNL1       -0.1659
     21 C           2.6739    0.7604   30.4483 C.ar    1  UNL1        0.2362
     22 N           3.6276    0.4117   31.5524 N.ar    1  UNL1       -0.1895
     23 C           3.0500    0.9177   32.8409 C.ar    1  UNL1        0.2210
     24 N           1.7393    1.5792   32.5331 N.ar    1  UNL1       -0.0544
     25 O           1.5069    1.4819   31.0544 O.2     1  UNL1       -0.3370
     26 C           3.6735    0.7855   34.1987 C.ar    1  UNL1        0.1203
     27 C           4.6288   -0.3364   34.4793 C.ar    1  UNL1        0.0224
     28 C           5.2523   -0.4686   35.8372 C.ar    1  UNL1        0.0032
     29 C           4.9206    0.5211   36.9144 C.ar    1  UNL1        0.0207
     30 C           3.9653    1.6431   36.6337 C.ar    1  UNL1        0.0989
     31 N           3.3418    1.7753   35.2759 N.ar    1  UNL1       -0.2406
@<TRIPOS>BOND
     1     1     2    2
     2     2     3   am
     3     3    11    1
     4    11    12   ar
     5    12    13   ar
     6    13    14   ar
     7    14    17    1
     8    17    18    1
     9    17    19    1
    10    17    20    1
    11    14    15   ar
    12    15    16   ar
    13     2     4   am
    14     4     5    1
    15     5     6    1
    16     6     7    1
    17     7    21    1
    18    21    22   ar
    19    22    23   ar
    20    23    26    1
    21    26    27   ar
    22    27    28   ar
    23    28    29   ar
    24    29    30   ar
    25    30    31   ar
    26    23    24   ar
    27    24    25   ar
    28     7     8    1
    29     8     9    1
    30    16    11   ar
    31     9     4    1
    32    25    21   ar
    33    31    26   ar
    34     3    10    1
@<TRIPOS>MOLECULE
*****
 31 34 0 0 0
SMALL
GASTEIGER

@<TRIPOS>ATOM
      1 O           5.3808   -1.0912   24.9077 O.2     1  UNL1       -0.2522
      2 C           4.1081   -0.8184   25.6533 C.2     1  UNL1        0.3077
      3 N           2.8474   -0.5153   24.8992 N.am    1  UNL1       -0.2681
      4 N           4.0962   -0.8488   27.1530 N.am    1  UNL1       -0.2639
      5 C           5.3570   -1.1519   27.9070 C.3     1  UNL1        0.0955
      6 C           5.3450   -1.1822   29.4066 C.3     1  UNL1        0.0309
      7 C           4.0723   -0.9094   30.1522 C.3     1  UNL1        0.0827
      8 C           2.8116   -0.6063   29.3981 C.3     1  UNL1        0.0309
      9 C           2.8235   -0.5760   27.8985 C.3     1  UNL1        0.0955
     10 H           2.0121   -0.3363   25.3886 H       1  UNL1        0.1564
     11 C           2.8593   -0.4850   23.3995 C.ar    1  UNL1        0.0516
     12 C           2.2335    0.6651   22.6676 C.ar    1  UNL1        0.0147
     13 C           2.2454    0.6953   21.1680 C.ar    1  UNL1        0.0051
     14 C           2.8832   -0.4244   20.4003 C.ar    1  UNL1        0.0715
     15 C           3.5091   -1.5744   21.1322 C.ar    1  UNL1        0.0051
     16 C           3.4971   -1.6047   22.6318 C.ar    1  UNL1        0.0147
     17 C           2.8951   -0.3941   18.9006 C.3     1  UNL1        0.4186
     18 F           2.9070   -0.3638   17.4010 F       1  UNL1       -0.1659
     19 F           2.3003    0.9828   18.9237 F       1  UNL1       -0.1659
     20 F           3.4899   -1.7709   18.8775 F       1  UNL1       -0.1659
     21 C           4.0604   -0.9397   31.6519 C.ar    1  UNL1        0.2362
     22 N           4.1984    0.2470   32.5589 N.ar    1  UNL1       -0.1895
     23 C           4.1317   -0.2419   33.9754 C.ar    1  UNL1        0.2210
     24 N           3.9525   -1.7308   33.9438 N.ar    1  UNL1       -0.0544
     25 O           3.9084   -2.1621   32.5078 O.2     1  UNL1       -0.3370
     26 C           4.2274    0.6088   35.2071 C.ar    1  UNL1        0.1203
     27 C           4.8890    0.0703   36.4409 C.ar    1  UNL1        0.0224
     28 C           4.9847    0.9209   37.6727 C.ar    1  UNL1        0.0032
     29 C           4.4189    2.3100   37.6706 C.ar    1  UNL1        0.0207
     30 C           3.7573    2.8486   36.4368 C.ar    1  UNL1        0.0989
     31 N           3.6615    1.9979   35.2050 N.ar    1  UNL1       -0.2406
@<TRIPOS>BOND
     1     1     2    2
     2     2     3   am
     3     3    11    1
     4    11    12   ar
     5    12    13   ar
     6    13    14   ar
     7    14    17    1
     8    17    18    1
     9    17    19    1
    10    17    20    1
    11    14    15   ar
    12    15    16   ar
    13     2     4   am
    14     4     5    1
    15     5     6    1
    16     6     7    1
    17     7    21    1
    18    21    22   ar
    19    22    23   ar
    20    23    26    1
    21    26    27   ar
    22    27    28   ar
    23    28    29   ar
    24    29    30   ar
    25    30    31   ar
    26    23    24   ar
    27    24    25   ar
    28     7     8    1
    29     8     9    1
    30    16    11   ar
    31     9     4    1
    32    25    21   ar
    33    31    26   ar
    34     3    10    1
