@<TRIPOS>MOLECULE
*****
 35 39 0 0 0
SMALL
GASTEIGER

@<TRIPOS>ATOM
      1 N          -7.3050  -19.5077   21.6580 N.3     1  UNL1       -0.2679
      2 C          -8.2337  -19.1547   22.7817 C.3     1  UNL1        0.0978
      3 C          -9.1834  -20.1830   23.3210 C.3     1  UNL1        0.0224
      4 C         -10.1121  -19.8299   24.4448 C.3     1  UNL1        0.0065
      5 C         -10.0912  -18.4486   25.0292 C.3     1  UNL1        0.0277
      6 C          -9.1415  -17.4204   24.4900 C.ar    1  UNL1       -0.0073
      7 C          -9.1206  -16.0391   25.0744 C.ar    1  UNL1       -0.0015
      8 C          -8.1709  -15.0109   24.5351 C.ar    1  UNL1        0.0203
      9 C          -7.2422  -15.3639   23.4114 C.ar    1  UNL1        0.0985
     10 N          -7.2631  -16.7451   22.8270 N.ar    1  UNL1       -0.2471
     11 C          -8.2128  -17.7734   23.3662 C.ar    1  UNL1        0.0695
     12 C          -5.9522  -20.0834   21.9557 C.3     1  UNL1        0.0886
     13 C          -0.2149  -16.7886   20.0912 C.ar    1  UNL1       -0.0003
     14 C          -0.6122  -17.7383   19.0003 C.ar    1  UNL1       -0.0003
     15 C          -1.8392  -18.5872   19.1550 C.ar    1  UNL1       -0.0045
     16 C          -2.6687  -18.4864   20.4006 C.ar    1  UNL1       -0.0234
     17 C          -2.2714  -17.5367   21.4915 C.ar    1  UNL1       -0.0103
     18 C          -1.0444  -16.6877   21.3368 C.ar    1  UNL1       -0.0032
     19 C          -3.1010  -17.4358   22.7372 C.3     1  UNL1        0.0953
     20 N          -4.3279  -18.2847   22.8919 N.3     1  UNL1       -0.2934
     21 C          -4.7253  -19.2345   21.8010 C.3     1  UNL1        0.0748
     22 C          -3.8957  -19.3353   20.5554 C.3     1  UNL1        0.0432
     23 H          -5.1122  -17.6468   23.0271 H       1  UNL1        0.1236
     24 C          -7.7290  -19.2851   20.2365 C.3     1  UNL1        0.0725
     25 C          -8.0675  -20.4562   19.3626 C.3     1  UNL1        0.0188
     26 C          -9.3735  -20.4893   18.6256 C.3     1  UNL1        0.0185
     27 C         -10.4760  -19.5477   19.0104 C.3     1  UNL1        0.0686
     28 N         -11.1087  -19.6481   20.3667 N.3     1  UNL1       -0.2985
     29 H         -10.4642  -20.1775   20.9538 H       1  UNL1        0.1232
     30 C         -11.4606  -18.4022   21.1242 C.3     1  UNL1        0.0557
     31 C         -12.5520  -18.4328   22.1527 C.3     1  UNL1        0.0274
     32 C         -12.9039  -17.1869   22.9103 C.3     1  UNL1        0.0589
     33 S         -12.1644  -15.9103   22.6393 S.3     1  UNL1       -0.1402
     34 C         -11.0729  -15.8797   21.6108 C.3     1  UNL1        0.0589
     35 C         -10.7210  -17.1256   20.8532 C.3     1  UNL1        0.0274
@<TRIPOS>BOND
     1    13    14   ar
     2    14    15   ar
     3    15    16   ar
     4    16    17   ar
     5    17    18   ar
     6    17    19    1
     7    19    20    1
     8    20    21    1
     9    21    12    1
    10    12     1    1
    11     1    24    1
    12    24    25    1
    13    25    26    1
    14    26    27    1
    15    27    28    1
    16    28    30    1
    17    30    31    1
    18    31    32    1
    19    32    33    1
    20    33    34    1
    21    34    35    1
    22     2     1    1
    23     2     3    1
    24     3     4    1
    25     4     5    1
    26     5     6    1
    27     6     7   ar
    28     7     8   ar
    29     8     9   ar
    30     9    10   ar
    31    10    11   ar
    32    21    22    1
    33    18    13   ar
    34    35    30    1
    35    11     2    1
    36    22    16    1
    37    11     6   ar
    38    20    23    1
    39    28    29    1
@<TRIPOS>MOLECULE
*****
 35 39 0 0 0
SMALL
GASTEIGER

@<TRIPOS>ATOM
      1 N         -10.7909  -17.0405   21.0485 N.3     1  UNL1       -0.2679
      2 C         -11.4552  -17.6377   22.2534 C.3     1  UNL1        0.0978
      3 C         -12.8081  -17.1518   22.6820 C.3     1  UNL1        0.0224
      4 C         -13.4724  -17.7490   23.8870 C.3     1  UNL1        0.0065
      5 C         -12.7839  -18.8321   24.6634 C.3     1  UNL1        0.0277
      6 C         -11.4311  -19.3180   24.2349 C.ar    1  UNL1       -0.0073
      7 C         -10.7426  -20.4011   25.0113 C.ar    1  UNL1       -0.0015
      8 C          -9.3897  -20.8870   24.5827 C.ar    1  UNL1        0.0203
      9 C          -8.7254  -20.2898   23.3778 C.ar    1  UNL1        0.0985
     10 N          -9.4139  -19.2068   22.6014 N.ar    1  UNL1       -0.2471
     11 C         -10.7667  -18.7208   23.0299 C.ar    1  UNL1        0.0695
     12 C          -9.9438  -15.8108   21.1913 C.3     1  UNL1        0.0886
     13 C          -6.3416  -15.4306   27.0333 C.ar    1  UNL1       -0.0003
     14 C          -7.8038  -15.4959   27.3614 C.ar    1  UNL1       -0.0003
     15 C          -8.8167  -15.5850   26.2586 C.ar    1  UNL1       -0.0045
     16 C          -8.3674  -15.6088   24.8277 C.ar    1  UNL1       -0.0234
     17 C          -6.9052  -15.5435   24.4996 C.ar    1  UNL1       -0.0103
     18 C          -5.8923  -15.4544   25.6024 C.ar    1  UNL1       -0.0032
     19 C          -6.4558  -15.5672   23.0686 C.3     1  UNL1        0.0953
     20 N          -7.4687  -15.6563   21.9659 N.3     1  UNL1       -0.2934
     21 C          -8.9309  -15.7217   22.2940 C.3     1  UNL1        0.0748
     22 C          -9.3802  -15.6979   23.7249 C.3     1  UNL1        0.0432
     23 H          -7.2490  -16.4969   21.4315 H       1  UNL1        0.1236
     24 C         -10.9735  -17.6731   19.7007 C.3     1  UNL1        0.0725
     25 C         -10.5212  -19.0840   19.4668 C.3     1  UNL1        0.0188
     26 C          -9.1816  -19.3491   18.8463 C.3     1  UNL1        0.0185
     27 C          -8.0103  -19.7041   19.7135 C.3     1  UNL1        0.0686
     28 N          -7.1779  -18.6194   20.3305 N.3     1  UNL1       -0.2985
     29 H          -7.6748  -18.3051   21.1640 H       1  UNL1        0.1232
     30 C          -5.7661  -18.9041   20.7496 C.3     1  UNL1        0.0557
     31 C          -5.4115  -18.9527   22.2062 C.3     1  UNL1        0.0274
     32 C          -3.9996  -19.2374   22.6254 C.3     1  UNL1        0.0589
     33 S          -2.9424  -19.4733   21.5878 S.3     1  UNL1       -0.1402
     34 C          -3.2970  -19.4247   20.1311 C.3     1  UNL1        0.0589
     35 C          -4.7089  -19.1400   19.7120 C.3     1  UNL1        0.0274
@<TRIPOS>BOND
     1    13    14   ar
     2    14    15   ar
     3    15    16   ar
     4    16    17   ar
     5    17    18   ar
     6    17    19    1
     7    19    20    1
     8    20    21    1
     9    21    12    1
    10    12     1    1
    11     1    24    1
    12    24    25    1
    13    25    26    1
    14    26    27    1
    15    27    28    1
    16    28    30    1
    17    30    31    1
    18    31    32    1
    19    32    33    1
    20    33    34    1
    21    34    35    1
    22     2     1    1
    23     2     3    1
    24     3     4    1
    25     4     5    1
    26     5     6    1
    27     6     7   ar
    28     7     8   ar
    29     8     9   ar
    30     9    10   ar
    31    10    11   ar
    32    21    22    1
    33    18    13   ar
    34    35    30    1
    35    11     2    1
    36    22    16    1
    37    11     6   ar
    38    20    23    1
    39    28    29    1
@<TRIPOS>MOLECULE
*****
 35 39 0 0 0
SMALL
GASTEIGER

@<TRIPOS>ATOM
      1 N          -9.0010  -18.2134   21.2233 N.3     1  UNL1       -0.2679
      2 C          -9.5798  -18.9100   22.4190 C.3     1  UNL1        0.0978
      3 C          -8.8058  -19.9997   23.0997 C.3     1  UNL1        0.0224
      4 C          -9.3846  -20.6963   24.2955 C.3     1  UNL1        0.0065
      5 C         -10.7375  -20.3032   24.8104 C.3     1  UNL1        0.0277
      6 C         -11.5115  -19.2135   24.1297 C.ar    1  UNL1       -0.0073
      7 C         -12.8644  -18.8204   24.6446 C.ar    1  UNL1       -0.0015
      8 C         -13.6385  -17.7307   23.9639 C.ar    1  UNL1        0.0203
      9 C         -13.0597  -17.0341   22.7682 C.ar    1  UNL1        0.0985
     10 N         -11.7068  -17.4272   22.2532 N.ar    1  UNL1       -0.2471
     11 C         -10.9328  -18.5169   22.9340 C.ar    1  UNL1        0.0695
     12 C          -8.3930  -16.8501   21.3710 C.3     1  UNL1        0.0886
     13 C          -6.6952  -14.9308   27.7493 C.ar    1  UNL1       -0.0003
     14 C          -8.1891  -15.0116   27.6422 C.ar    1  UNL1       -0.0003
     15 C          -8.8275  -15.4116   26.3451 C.ar    1  UNL1       -0.0045
     16 C          -7.9719  -15.7308   25.1551 C.ar    1  UNL1       -0.0234
     17 C          -6.4779  -15.6501   25.2623 C.ar    1  UNL1       -0.0103
     18 C          -5.8396  -15.2501   26.5594 C.ar    1  UNL1       -0.0032
     19 C          -5.6223  -15.9693   24.0723 C.3     1  UNL1        0.0953
     20 N          -6.2606  -16.3693   22.7752 N.3     1  UNL1       -0.2934
     21 C          -7.7547  -16.4501   22.6681 C.3     1  UNL1        0.0748
     22 C          -8.6103  -16.1308   23.8580 C.3     1  UNL1        0.0432
     23 H          -5.8982  -17.2936   22.5414 H       1  UNL1        0.1236
     24 C          -9.0302  -18.8801   19.8799 C.3     1  UNL1        0.0725
     25 C          -7.8795  -19.7372   19.4429 C.3     1  UNL1        0.0188
     26 C          -6.5466  -19.6046   20.1181 C.3     1  UNL1        0.0185
     27 C          -5.6859  -20.8159   20.3230 C.3     1  UNL1        0.0686
     28 N          -4.2061  -20.7322   20.0921 N.3     1  UNL1       -0.2985
     29 H          -4.0549  -20.8813   19.0944 H       1  UNL1        0.1232
     30 C          -3.4587  -19.4854   20.4618 C.3     1  UNL1        0.0557
     31 C          -2.8874  -18.6074   19.3882 C.3     1  UNL1        0.0274
     32 C          -2.1399  -17.3605   19.7578 C.3     1  UNL1        0.0589
     33 S          -1.9637  -16.9917   21.2011 S.3     1  UNL1       -0.1402
     34 C          -2.5350  -17.8698   22.2747 C.3     1  UNL1        0.0589
     35 C          -3.2825  -19.1167   21.9050 C.3     1  UNL1        0.0274
@<TRIPOS>BOND
     1    13    14   ar
     2    14    15   ar
     3    15    16   ar
     4    16    17   ar
     5    17    18   ar
     6    17    19    1
     7    19    20    1
     8    20    21    1
     9    21    12    1
    10    12     1    1
    11     1    24    1
    12    24    25    1
    13    25    26    1
    14    26    27    1
    15    27    28    1
    16    28    30    1
    17    30    31    1
    18    31    32    1
    19    32    33    1
    20    33    34    1
    21    34    35    1
    22     2     1    1
    23     2     3    1
    24     3     4    1
    25     4     5    1
    26     5     6    1
    27     6     7   ar
    28     7     8   ar
    29     8     9   ar
    30     9    10   ar
    31    10    11   ar
    32    21    22    1
    33    18    13   ar
    34    35    30    1
    35    11     2    1
    36    22    16    1
    37    11     6   ar
    38    20    23    1
    39    28    29    1
@<TRIPOS>MOLECULE
*****
 35 39 0 0 0
SMALL
GASTEIGER

@<TRIPOS>ATOM
      1 N          -8.7756  -17.9591   21.3254 N.3     1  UNL1       -0.2679
      2 C         -10.2084  -17.5166   21.2923 C.3     1  UNL1        0.0978
      3 C         -10.7193  -16.7155   20.1316 C.3     1  UNL1        0.0224
      4 C         -12.1522  -16.2730   20.0984 C.3     1  UNL1        0.0065
      5 C         -13.0741  -16.6315   21.2260 C.3     1  UNL1        0.0277
      6 C         -12.5632  -17.4326   22.3867 C.ar    1  UNL1       -0.0073
      7 C         -13.4852  -17.7912   23.5142 C.ar    1  UNL1       -0.0015
      8 C         -12.9743  -18.5923   24.6749 C.ar    1  UNL1        0.0203
      9 C         -11.5414  -19.0348   24.7081 C.ar    1  UNL1        0.0985
     10 N         -10.6195  -18.6762   23.5806 N.ar    1  UNL1       -0.2471
     11 C         -11.1304  -17.8752   22.4199 C.ar    1  UNL1        0.0695
     12 C          -7.6800  -16.9438   21.4634 C.3     1  UNL1        0.0886
     13 C          -6.9171  -14.8822   27.9763 C.ar    1  UNL1       -0.0003
     14 C          -8.3791  -15.0347   27.6776 C.ar    1  UNL1       -0.0003
     15 C          -8.8241  -15.4775   26.3152 C.ar    1  UNL1       -0.0045
     16 C          -7.8071  -15.7678   25.2516 C.ar    1  UNL1       -0.0234
     17 C          -6.3451  -15.6154   25.5503 C.ar    1  UNL1       -0.0103
     18 C          -5.9001  -15.1726   26.9127 C.ar    1  UNL1       -0.0032
     19 C          -5.3280  -15.9057   24.4867 C.3     1  UNL1        0.0953
     20 N          -5.7729  -16.3485   23.1244 N.3     1  UNL1       -0.2934
     21 C          -7.2350  -16.5010   22.8257 C.3     1  UNL1        0.0748
     22 C          -8.2520  -16.2106   23.8893 C.3     1  UNL1        0.0432
     23 H          -5.3414  -17.2570   22.9545 H       1  UNL1        0.1236
     24 C          -8.4382  -19.4169   21.2206 C.3     1  UNL1        0.0725
     25 C          -7.5646  -20.0609   22.2561 C.3     1  UNL1        0.0188
     26 C          -6.2440  -20.6521   21.8606 C.3     1  UNL1        0.0185
     27 C          -5.6990  -20.4163   20.4831 C.3     1  UNL1        0.0686
     28 N          -4.2198  -20.4752   20.2415 N.3     1  UNL1       -0.2985
     29 H          -4.0912  -20.7475   19.2670 H       1  UNL1        0.1232
     30 C          -3.3741  -19.2568   20.4659 C.3     1  UNL1        0.0557
     31 C          -2.6526  -18.6223   19.3141 C.3     1  UNL1        0.0274
     32 C          -1.8069  -17.4038   19.5384 C.3     1  UNL1        0.0589
     33 S          -1.6828  -16.8199   20.9145 S.3     1  UNL1       -0.1402
     34 C          -2.4045  -17.4545   22.0663 C.3     1  UNL1        0.0589
     35 C          -3.2501  -18.6729   21.8420 C.3     1  UNL1        0.0274
@<TRIPOS>BOND
     1    13    14   ar
     2    14    15   ar
     3    15    16   ar
     4    16    17   ar
     5    17    18   ar
     6    17    19    1
     7    19    20    1
     8    20    21    1
     9    21    12    1
    10    12     1    1
    11     1    24    1
    12    24    25    1
    13    25    26    1
    14    26    27    1
    15    27    28    1
    16    28    30    1
    17    30    31    1
    18    31    32    1
    19    32    33    1
    20    33    34    1
    21    34    35    1
    22     2     1    1
    23     2     3    1
    24     3     4    1
    25     4     5    1
    26     5     6    1
    27     6     7   ar
    28     7     8   ar
    29     8     9   ar
    30     9    10   ar
    31    10    11   ar
    32    21    22    1
    33    18    13   ar
    34    35    30    1
    35    11     2    1
    36    22    16    1
    37    11     6   ar
    38    20    23    1
    39    28    29    1
@<TRIPOS>MOLECULE
*****
 35 39 0 0 0
SMALL
GASTEIGER

@<TRIPOS>ATOM
      1 N          -9.3487  -18.7755   23.8903 N.3     1  UNL1       -0.2679
      2 C         -10.7808  -18.4101   23.6341 C.3     1  UNL1        0.0978
      3 C         -11.8474  -18.8344   24.5996 C.3     1  UNL1        0.0224
      4 C         -13.2795  -18.4690   24.3434 C.3     1  UNL1        0.0065
      5 C         -13.6449  -17.6792   23.1216 C.3     1  UNL1        0.0277
      6 C         -12.5783  -17.2548   22.1561 C.ar    1  UNL1       -0.0073
      7 C         -12.9437  -16.4651   20.9343 C.ar    1  UNL1       -0.0015
      8 C         -11.8771  -16.0407   19.9688 C.ar    1  UNL1        0.0203
      9 C         -10.4451  -16.4061   20.2250 C.ar    1  UNL1        0.0985
     10 N         -10.0796  -17.1959   21.4467 N.ar    1  UNL1       -0.2471
     11 C         -11.1463  -17.6202   22.4123 C.ar    1  UNL1        0.0695
     12 C          -8.7262  -19.9275   23.1586 C.3     1  UNL1        0.0886
     13 C          -2.8024  -19.0722   19.7781 C.ar    1  UNL1       -0.0003
     14 C          -2.5066  -19.4288   21.2047 C.ar    1  UNL1       -0.0003
     15 C          -3.6321  -19.6712   22.1661 C.ar    1  UNL1       -0.0045
     16 C          -5.0536  -19.5569   21.7009 C.ar    1  UNL1       -0.0234
     17 C          -5.3494  -19.2004   20.2743 C.ar    1  UNL1       -0.0103
     18 C          -4.2239  -18.9580   19.3129 C.ar    1  UNL1       -0.0032
     19 C          -6.7709  -19.0861   19.8090 C.3     1  UNL1        0.0953
     20 N          -7.8965  -19.3285   20.7705 N.3     1  UNL1       -0.2934
     21 C          -7.6006  -19.6851   22.1972 C.3     1  UNL1        0.0748
     22 C          -6.1792  -19.7993   22.6623 C.3     1  UNL1        0.0432
     23 H          -8.4533  -20.0916   20.3856 H       1  UNL1        0.1236
     24 C          -8.5392  -17.9889   24.8782 C.3     1  UNL1        0.0725
     25 C          -9.2253  -17.0896   25.8633 C.3     1  UNL1        0.0188
     26 C          -8.5795  -16.7928   27.1842 C.3     1  UNL1        0.0185
     27 C          -8.2533  -15.3772   27.5582 C.3     1  UNL1        0.0686
     28 N          -6.9188  -14.7948   27.1979 N.3     1  UNL1       -0.2985
     29 H          -6.3074  -14.9401   28.0013 H       1  UNL1        0.1232
     30 C          -6.1799  -15.3008   25.9945 C.3     1  UNL1        0.0557
     31 C          -5.0137  -16.2284   26.1658 C.3     1  UNL1        0.0274
     32 C          -4.2747  -16.7344   24.9624 C.3     1  UNL1        0.0589
     33 S          -4.7021  -16.3127   23.5878 S.3     1  UNL1       -0.1402
     34 C          -5.8684  -15.3851   23.4166 C.3     1  UNL1        0.0589
     35 C          -6.6073  -14.8791   24.6199 C.3     1  UNL1        0.0274
@<TRIPOS>BOND
     1    13    14   ar
     2    14    15   ar
     3    15    16   ar
     4    16    17   ar
     5    17    18   ar
     6    17    19    1
     7    19    20    1
     8    20    21    1
     9    21    12    1
    10    12     1    1
    11     1    24    1
    12    24    25    1
    13    25    26    1
    14    26    27    1
    15    27    28    1
    16    28    30    1
    17    30    31    1
    18    31    32    1
    19    32    33    1
    20    33    34    1
    21    34    35    1
    22     2     1    1
    23     2     3    1
    24     3     4    1
    25     4     5    1
    26     5     6    1
    27     6     7   ar
    28     7     8   ar
    29     8     9   ar
    30     9    10   ar
    31    10    11   ar
    32    21    22    1
    33    18    13   ar
    34    35    30    1
    35    11     2    1
    36    22    16    1
    37    11     6   ar
    38    20    23    1
    39    28    29    1
@<TRIPOS>MOLECULE
*****
 35 39 0 0 0
SMALL
GASTEIGER

@<TRIPOS>ATOM
      1 N          -5.9855  -18.6877   21.1612 N.3     1  UNL1       -0.2679
      2 C          -4.6054  -18.4717   21.7076 C.3     1  UNL1        0.0978
      3 C          -4.3672  -18.5285   23.1874 C.3     1  UNL1        0.0224
      4 C          -2.9869  -18.3124   23.7338 C.3     1  UNL1        0.0065
      5 C          -1.8450  -18.0396   22.8003 C.3     1  UNL1        0.0277
      6 C          -2.0832  -17.9828   21.3204 C.ar    1  UNL1       -0.0073
      7 C          -0.9413  -17.7100   20.3868 C.ar    1  UNL1       -0.0015
      8 C          -1.1795  -17.6532   18.9070 C.ar    1  UNL1        0.0203
      9 C          -2.5596  -17.8692   18.3606 C.ar    1  UNL1        0.0985
     10 N          -3.7015  -18.1420   19.2941 N.ar    1  UNL1       -0.2471
     11 C          -3.4633  -18.1988   20.7740 C.ar    1  UNL1        0.0695
     12 C          -7.0415  -17.6401   21.3554 C.3     1  UNL1        0.0886
     13 C          -7.7709  -15.1890   27.7358 C.ar    1  UNL1       -0.0003
     14 C          -6.4441  -14.7509   27.1902 C.ar    1  UNL1       -0.0003
     15 C          -6.0328  -15.1536   25.8050 C.ar    1  UNL1       -0.0045
     16 C          -6.9484  -15.9942   24.9654 C.ar    1  UNL1       -0.0234
     17 C          -8.2752  -16.4322   25.5110 C.ar    1  UNL1       -0.0103
     18 C          -8.6864  -16.0296   26.8962 C.ar    1  UNL1       -0.0032
     19 C          -9.1908  -17.2729   24.6713 C.3     1  UNL1        0.0953
     20 N          -8.7796  -17.6756   23.2861 N.3     1  UNL1       -0.2934
     21 C          -7.4527  -17.2375   22.7406 C.3     1  UNL1        0.0748
     22 C          -6.5372  -16.3968   23.5802 C.3     1  UNL1        0.0432
     23 H          -9.4923  -17.3160   22.6512 H       1  UNL1        0.1236
     24 C          -6.3097  -19.9512   20.4207 C.3     1  UNL1        0.0725
     25 C          -7.7394  -20.3635   20.2310 C.3     1  UNL1        0.0188
     26 C          -8.4886  -19.9303   19.0059 C.3     1  UNL1        0.0185
     27 C          -9.9735  -19.7264   19.0678 C.3     1  UNL1        0.0686
     28 N         -10.6909  -19.8320   20.3809 N.3     1  UNL1       -0.2985
     29 H         -10.0442  -20.2728   21.0351 H       1  UNL1        0.1232
     30 C         -11.2111  -18.5960   21.0529 C.3     1  UNL1        0.0557
     31 C         -12.0423  -18.7116   22.2961 C.3     1  UNL1        0.0274
     32 C         -12.5625  -17.4756   22.9681 C.3     1  UNL1        0.0589
     33 S         -12.2516  -16.1239   22.3968 S.3     1  UNL1       -0.1402
     34 C         -11.4204  -16.0083   21.1535 C.3     1  UNL1        0.0589
     35 C         -10.9002  -17.2444   20.4815 C.3     1  UNL1        0.0274
@<TRIPOS>BOND
     1    13    14   ar
     2    14    15   ar
     3    15    16   ar
     4    16    17   ar
     5    17    18   ar
     6    17    19    1
     7    19    20    1
     8    20    21    1
     9    21    12    1
    10    12     1    1
    11     1    24    1
    12    24    25    1
    13    25    26    1
    14    26    27    1
    15    27    28    1
    16    28    30    1
    17    30    31    1
    18    31    32    1
    19    32    33    1
    20    33    34    1
    21    34    35    1
    22     2     1    1
    23     2     3    1
    24     3     4    1
    25     4     5    1
    26     5     6    1
    27     6     7   ar
    28     7     8   ar
    29     8     9   ar
    30     9    10   ar
    31    10    11   ar
    32    21    22    1
    33    18    13   ar
    34    35    30    1
    35    11     2    1
    36    22    16    1
    37    11     6   ar
    38    20    23    1
    39    28    29    1
@<TRIPOS>MOLECULE
*****
 35 39 0 0 0
SMALL
GASTEIGER

@<TRIPOS>ATOM
      1 N          -6.8877  -18.3146   22.8961 N.3     1  UNL1       -0.2679
      2 C          -8.2837  -18.8626   22.9228 C.3     1  UNL1        0.0978
      3 C          -8.9674  -19.1099   24.2349 C.3     1  UNL1        0.0224
      4 C         -10.3635  -19.6580   24.2615 C.3     1  UNL1        0.0065
      5 C         -11.0758  -19.9586   22.9762 C.3     1  UNL1        0.0277
      6 C         -10.3922  -19.7113   21.6642 C.ar    1  UNL1       -0.0073
      7 C         -11.1045  -20.0119   20.3788 C.ar    1  UNL1       -0.0015
      8 C         -10.4209  -19.7646   19.0668 C.ar    1  UNL1        0.0203
      9 C          -9.0248  -19.2165   19.0401 C.ar    1  UNL1        0.0985
     10 N          -8.3125  -18.9159   20.3254 N.ar    1  UNL1       -0.2471
     11 C          -8.9962  -19.1633   21.6375 C.ar    1  UNL1        0.0695
     12 C          -5.7255  -19.2336   22.6618 C.3     1  UNL1        0.0886
     13 C          -0.3118  -17.6078   18.7505 C.ar    1  UNL1       -0.0003
     14 C           0.0934  -17.5605   20.1939 C.ar    1  UNL1       -0.0003
     15 C          -0.9083  -17.8762   21.2649 C.ar    1  UNL1       -0.0045
     16 C          -2.3152  -18.2392   20.8924 C.ar    1  UNL1       -0.0234
     17 C          -2.7204  -18.2865   19.4490 C.ar    1  UNL1       -0.0103
     18 C          -1.7187  -17.9708   18.3780 C.ar    1  UNL1       -0.0032
     19 C          -4.1274  -18.6495   19.0764 C.3     1  UNL1        0.0953
     20 N          -5.1291  -18.9652   20.1473 N.3     1  UNL1       -0.2934
     21 C          -4.7238  -18.9179   21.5908 C.3     1  UNL1        0.0748
     22 C          -3.3169  -18.5549   21.9633 C.3     1  UNL1        0.0432
     23 H          -5.4650  -19.9112   19.9667 H       1  UNL1        0.1236
     24 C          -6.6538  -16.8475   23.1038 C.3     1  UNL1        0.0725
     25 C          -6.4713  -16.3061   24.4907 C.3     1  UNL1        0.0188
     26 C          -7.4731  -15.3449   25.0584 C.3     1  UNL1        0.0185
     27 C          -8.6822  -14.9617   24.2575 C.3     1  UNL1        0.0686
     28 N          -9.8499  -15.8989   24.1672 N.3     1  UNL1       -0.2985
     29 H         -10.5365  -15.5805   24.8510 H       1  UNL1        0.1232
     30 C         -10.5788  -16.0658   22.8670 C.3     1  UNL1        0.0557
     31 C          -9.8856  -15.7559   21.5734 C.3     1  UNL1        0.0274
     32 C         -10.6145  -15.9228   20.2731 C.3     1  UNL1        0.0589
     33 S         -12.0367  -16.3996   20.2664 S.3     1  UNL1       -0.1402
     34 C         -12.7299  -16.7096   21.5600 C.3     1  UNL1        0.0589
     35 C         -12.0010  -16.5427   22.8603 C.3     1  UNL1        0.0274
@<TRIPOS>BOND
     1    13    14   ar
     2    14    15   ar
     3    15    16   ar
     4    16    17   ar
     5    17    18   ar
     6    17    19    1
     7    19    20    1
     8    20    21    1
     9    21    12    1
    10    12     1    1
    11     1    24    1
    12    24    25    1
    13    25    26    1
    14    26    27    1
    15    27    28    1
    16    28    30    1
    17    30    31    1
    18    31    32    1
    19    32    33    1
    20    33    34    1
    21    34    35    1
    22     2     1    1
    23     2     3    1
    24     3     4    1
    25     4     5    1
    26     5     6    1
    27     6     7   ar
    28     7     8   ar
    29     8     9   ar
    30     9    10   ar
    31    10    11   ar
    32    21    22    1
    33    18    13   ar
    34    35    30    1
    35    11     2    1
    36    22    16    1
    37    11     6   ar
    38    20    23    1
    39    28    29    1
@<TRIPOS>MOLECULE
*****
 35 39 0 0 0
SMALL
GASTEIGER

@<TRIPOS>ATOM
      1 N          -7.1759  -18.9250   21.7706 N.3     1  UNL1       -0.2679
      2 C          -8.6103  -19.0723   21.3577 C.3     1  UNL1        0.0978
      3 C          -8.9525  -19.3697   19.9278 C.3     1  UNL1        0.0224
      4 C         -10.3871  -19.5170   19.5150 C.3     1  UNL1        0.0065
      5 C         -11.4794  -19.3670   20.5320 C.3     1  UNL1        0.0277
      6 C         -11.1372  -19.0696   21.9618 C.ar    1  UNL1       -0.0073
      7 C         -12.2295  -18.9196   22.9788 C.ar    1  UNL1       -0.0015
      8 C         -11.8873  -18.6223   24.4087 C.ar    1  UNL1        0.0203
      9 C         -10.4529  -18.4749   24.8216 C.ar    1  UNL1        0.0985
     10 N          -9.3606  -18.6250   23.8046 N.ar    1  UNL1       -0.2471
     11 C          -9.7027  -18.9223   22.3747 C.ar    1  UNL1        0.0695
     12 C          -6.1934  -20.0186   21.4722 C.3     1  UNL1        0.0886
     13 C          -0.1726  -17.8964   18.9234 C.ar    1  UNL1       -0.0003
     14 C          -1.2744  -17.4722   17.9982 C.ar    1  UNL1       -0.0003
     15 C          -2.6989  -17.8119   18.3229 C.ar    1  UNL1       -0.0045
     16 C          -3.0216  -18.5756   19.5728 C.ar    1  UNL1       -0.0234
     17 C          -1.9199  -18.9997   20.4981 C.ar    1  UNL1       -0.0103
     18 C          -0.4954  -18.6601   20.1734 C.ar    1  UNL1       -0.0032
     19 C          -2.2426  -19.7635   21.7482 C.3     1  UNL1        0.0953
     20 N          -3.6671  -20.1031   22.0729 N.3     1  UNL1       -0.2934
     21 C          -4.7689  -19.6790   21.1475 C.3     1  UNL1        0.0748
     22 C          -4.4461  -18.9152   19.8975 C.3     1  UNL1        0.0432
     23 H          -3.8693  -19.6867   22.9818 H       1  UNL1        0.1236
     24 C          -6.7237  -17.6842   22.4818 C.3     1  UNL1        0.0725
     25 C          -5.5380  -17.7353   23.3990 C.3     1  UNL1        0.0188
     26 C          -4.3490  -16.8590   23.1374 C.3     1  UNL1        0.0185
     27 C          -4.4368  -15.3821   23.3851 C.3     1  UNL1        0.0686
     28 N          -5.7737  -14.7349   23.5945 N.3     1  UNL1       -0.2985
     29 H          -6.3594  -15.0069   22.8049 H       1  UNL1        0.1232
     30 C          -6.5610  -15.0252   24.8378 C.3     1  UNL1        0.0557
     31 C          -8.0541  -15.1508   24.7678 C.3     1  UNL1        0.0274
     32 C          -8.8415  -15.4411   26.0112 C.3     1  UNL1        0.0589
     33 S          -8.1357  -15.6057   27.3245 S.3     1  UNL1       -0.1402
     34 C          -6.6426  -15.4801   27.3944 C.3     1  UNL1        0.0589
     35 C          -5.8553  -15.1899   26.1511 C.3     1  UNL1        0.0274
@<TRIPOS>BOND
     1    13    14   ar
     2    14    15   ar
     3    15    16   ar
     4    16    17   ar
     5    17    18   ar
     6    17    19    1
     7    19    20    1
     8    20    21    1
     9    21    12    1
    10    12     1    1
    11     1    24    1
    12    24    25    1
    13    25    26    1
    14    26    27    1
    15    27    28    1
    16    28    30    1
    17    30    31    1
    18    31    32    1
    19    32    33    1
    20    33    34    1
    21    34    35    1
    22     2     1    1
    23     2     3    1
    24     3     4    1
    25     4     5    1
    26     5     6    1
    27     6     7   ar
    28     7     8   ar
    29     8     9   ar
    30     9    10   ar
    31    10    11   ar
    32    21    22    1
    33    18    13   ar
    34    35    30    1
    35    11     2    1
    36    22    16    1
    37    11     6   ar
    38    20    23    1
    39    28    29    1
@<TRIPOS>MOLECULE
*****
 35 39 0 0 0
SMALL
GASTEIGER

@<TRIPOS>ATOM
      1 N          -7.1375  -17.1007   22.5736 N.3     1  UNL1       -0.2679
      2 C          -6.5002  -16.3343   23.6945 C.3     1  UNL1        0.0978
      3 C          -5.2349  -15.5657   23.4533 C.3     1  UNL1        0.0224
      4 C          -4.5976  -14.7993   24.5744 C.3     1  UNL1        0.0065
      5 C          -5.2257  -14.8016   25.9365 C.3     1  UNL1        0.0277
      6 C          -6.4910  -15.5702   26.1777 C.ar    1  UNL1       -0.0073
      7 C          -7.1190  -15.5725   27.5399 C.ar    1  UNL1       -0.0015
      8 C          -8.3844  -16.3411   27.7811 C.ar    1  UNL1        0.0203
      9 C          -9.0216  -17.1075   26.6602 C.ar    1  UNL1        0.0985
     10 N          -8.3936  -17.1052   25.2980 N.ar    1  UNL1       -0.2471
     11 C          -7.1283  -16.3366   25.0568 C.ar    1  UNL1        0.0695
     12 C          -8.2062  -16.4592   21.7390 C.3     1  UNL1        0.0886
     13 C         -14.3680  -18.1659   24.2628 C.ar    1  UNL1       -0.0003
     14 C         -13.3058  -18.9131   25.0135 C.ar    1  UNL1       -0.0003
     15 C         -11.8611  -18.7212   24.6588 C.ar    1  UNL1       -0.0045
     16 C         -11.4784  -17.7821   23.5536 C.ar    1  UNL1       -0.0234
     17 C         -12.5406  -17.0349   22.8029 C.ar    1  UNL1       -0.0103
     18 C         -13.9854  -17.2269   23.1575 C.ar    1  UNL1       -0.0032
     19 C         -12.1580  -16.0958   21.6975 C.3     1  UNL1        0.0953
     20 N         -10.7132  -15.9039   21.3429 N.3     1  UNL1       -0.2934
     21 C          -9.6510  -16.6511   22.0936 C.3     1  UNL1        0.0748
     22 C         -10.0336  -17.5902   23.1989 C.3     1  UNL1        0.0432
     23 H         -10.5113  -14.9107   21.4575 H       1  UNL1        0.1236
     24 C          -6.7061  -18.5085   22.2872 C.3     1  UNL1        0.0725
     25 C          -7.3224  -19.2646   21.1477 C.3     1  UNL1        0.0188
     26 C          -6.4554  -19.8006   20.0472 C.3     1  UNL1        0.0185
     27 C          -5.4807  -20.9050   20.3308 C.3     1  UNL1        0.0686
     28 N          -4.0265  -20.7223   20.0113 N.3     1  UNL1       -0.2985
     29 H          -3.9356  -20.7999   18.9983 H       1  UNL1        0.1232
     30 C          -3.3230  -19.4602   20.4139 C.3     1  UNL1        0.0557
     31 C          -2.7955  -18.5281   19.3638 C.3     1  UNL1        0.0274
     32 C          -2.0919  -17.2659   19.7663 C.3     1  UNL1        0.0589
     33 S          -1.9159  -16.9360   21.2189 S.3     1  UNL1       -0.1402
     34 C          -2.4435  -17.8682   22.2691 C.3     1  UNL1        0.0589
     35 C          -3.1470  -19.1303   21.8665 C.3     1  UNL1        0.0274
@<TRIPOS>BOND
     1    13    14   ar
     2    14    15   ar
     3    15    16   ar
     4    16    17   ar
     5    17    18   ar
     6    17    19    1
     7    19    20    1
     8    20    21    1
     9    21    12    1
    10    12     1    1
    11     1    24    1
    12    24    25    1
    13    25    26    1
    14    26    27    1
    15    27    28    1
    16    28    30    1
    17    30    31    1
    18    31    32    1
    19    32    33    1
    20    33    34    1
    21    34    35    1
    22     2     1    1
    23     2     3    1
    24     3     4    1
    25     4     5    1
    26     5     6    1
    27     6     7   ar
    28     7     8   ar
    29     8     9   ar
    30     9    10   ar
    31    10    11   ar
    32    21    22    1
    33    18    13   ar
    34    35    30    1
    35    11     2    1
    36    22    16    1
    37    11     6   ar
    38    20    23    1
    39    28    29    1
