@<TRIPOS>MOLECULE
*****
 29 32 0 0 0
SMALL
GASTEIGER

@<TRIPOS>ATOM
      1 N          -7.5862  -17.8466   21.3235 N.am    1  UNL1       -0.2656
      2 C          -7.0849  -19.2022   21.7248 C.2     1  UNL1        0.2551
      3 O          -7.8295  -20.0039   22.7508 O.2     1  UNL1       -0.2696
      4 H          -7.0974  -17.3205   20.6501 H       1  UNL1        0.1566
      5 C          -5.8387  -19.7561   21.0999 C.ar    1  UNL1        0.1103
      6 C          -5.7330  -21.0409   20.3332 C.ar    1  UNL1        0.1281
      7 N          -4.3085  -21.2012   19.8915 N.ar    1  UNL1       -0.1619
      8 N          -3.5338  -20.0155   20.3853 N.ar    1  UNL1       -0.2104
      9 C          -2.0894  -19.6337   20.2514 C.ar    1  UNL1        0.1049
     10 C          -1.5907  -18.3587   20.8644 C.ar    1  UNL1        0.0546
     11 C          -2.5365  -17.4655   21.6113 C.ar    1  UNL1        0.1286
     12 N          -2.0378  -16.1905   22.2242 N.pl3   1  UNL1       -0.3425
     13 N          -3.9809  -17.8473   21.7452 N.ar    1  UNL1       -0.2121
     14 C          -4.4796  -19.1223   21.1322 C.ar    1  UNL1        0.1710
     15 H          -1.0898  -15.9399   22.1364 H       1  UNL1        0.1437
     16 H          -2.6586  -15.6043   22.7144 H       1  UNL1        0.1437
     17 C         -12.6491  -16.6378   22.2106 C.3     1  UNL1        0.0540
     18 C         -11.1595  -16.7370   22.3560 C.ar    1  UNL1        0.0822
     19 C         -10.2275  -17.4474   21.4196 C.ar    1  UNL1        0.0509
     20 C          -8.8323  -17.2926   21.9483 C.ar    1  UNL1        0.1370
     21 N          -8.9020  -16.4867   23.2115 N.ar    1  UNL1       -0.2162
     22 N         -10.3402  -16.1433   23.4635 N.ar    1  UNL1       -0.1683
     23 C          -7.7378  -16.0933   24.0717 C.ar    1  UNL1        0.0850
     24 C          -6.3894  -15.8713   23.4531 C.ar    1  UNL1        0.0193
     25 C          -5.2252  -15.4778   24.3133 C.ar    1  UNL1        0.0024
     26 C          -5.4095  -15.3063   25.7920 C.ar    1  UNL1        0.0115
     27 C          -6.7578  -15.5283   26.4106 C.ar    1  UNL1        0.0592
     28 CL         -6.9421  -15.3568   27.8894 Cl      1  UNL1       -0.0822
     29 C          -7.9220  -15.9217   25.5504 C.ar    1  UNL1        0.0306
@<TRIPOS>BOND
     1    17    18    1
     2    18    19   ar
     3    19    20   ar
     4    20     1    1
     5     1     2   am
     6     2     3    2
     7     2     5    1
     8     5     6   ar
     9     6     7   ar
    10     7     8   ar
    11     8     9   ar
    12     9    10   ar
    13    10    11   ar
    14    11    12    1
    15    11    13   ar
    16    13    14   ar
    17    20    21   ar
    18    21    23    1
    19    23    24   ar
    20    24    25   ar
    21    25    26   ar
    22    26    27   ar
    23    27    28    1
    24    27    29   ar
    25    21    22   ar
    26    22    18   ar
    27    14     5   ar
    28    29    23   ar
    29    14     8   ar
    30     1     4    1
    31    12    15    1
    32    12    16    1
@<TRIPOS>MOLECULE
*****
 29 32 0 0 0
SMALL
GASTEIGER

@<TRIPOS>ATOM
      1 N          -6.4096  -18.0430   21.7087 N.am    1  UNL1       -0.2656
      2 C          -5.7178  -19.3698   21.8135 C.2     1  UNL1        0.2551
      3 O          -6.5047  -20.6014   22.1509 O.2     1  UNL1       -0.2696
      4 H          -5.8931  -17.2346   21.4872 H       1  UNL1        0.1566
      5 C          -4.2390  -19.4649   21.5808 C.ar    1  UNL1        0.1103
      6 C          -3.2653  -20.2516   22.4070 C.ar    1  UNL1        0.1281
      7 N          -1.8988  -20.0629   21.8178 N.ar    1  UNL1       -0.1619
      8 N          -2.0280  -19.1596   20.6274 N.ar    1  UNL1       -0.2104
      9 C          -1.0155  -18.6258   19.6579 C.ar    1  UNL1        0.1049
     10 C          -1.4494  -17.7224   18.5418 C.ar    1  UNL1        0.0546
     11 C          -2.8957  -17.3528   18.3952 C.ar    1  UNL1        0.1286
     12 N          -3.3296  -16.4494   17.2791 N.pl3   1  UNL1       -0.3425
     13 N          -3.9083  -17.8866   19.3648 N.ar    1  UNL1       -0.2121
     14 C          -3.4744  -18.7900   20.4809 C.ar    1  UNL1        0.1710
     15 H          -2.6651  -16.0991   16.6428 H       1  UNL1        0.1437
     16 H          -4.2789  -16.2068   17.1829 H       1  UNL1        0.1437
     17 C         -11.6291  -18.6016   21.1384 C.3     1  UNL1        0.0540
     18 C         -10.2875  -18.2045   21.6792 C.ar    1  UNL1        0.0822
     19 C          -8.9575  -18.5444   21.0746 C.ar    1  UNL1        0.0509
     20 C          -7.8884  -17.9477   21.9413 C.ar    1  UNL1        0.1370
     21 N          -8.5577  -17.2391   23.0815 N.ar    1  UNL1       -0.2162
     22 N         -10.0404  -17.3979   22.9194 N.ar    1  UNL1       -0.1683
     23 C          -7.8658  -16.5014   24.1891 C.ar    1  UNL1        0.0850
     24 C          -6.4218  -16.1201   24.0488 C.ar    1  UNL1        0.0193
     25 C          -5.7298  -15.3823   25.1565 C.ar    1  UNL1        0.0024
     26 C          -6.4819  -15.0259   26.4045 C.ar    1  UNL1        0.0115
     27 C          -7.9258  -15.4072   26.5448 C.ar    1  UNL1        0.0592
     28 CL         -8.6778  -15.0507   27.7928 Cl      1  UNL1       -0.0822
     29 C          -8.6177  -16.1449   25.4371 C.ar    1  UNL1        0.0306
@<TRIPOS>BOND
     1    17    18    1
     2    18    19   ar
     3    19    20   ar
     4    20     1    1
     5     1     2   am
     6     2     3    2
     7     2     5    1
     8     5     6   ar
     9     6     7   ar
    10     7     8   ar
    11     8     9   ar
    12     9    10   ar
    13    10    11   ar
    14    11    12    1
    15    11    13   ar
    16    13    14   ar
    17    20    21   ar
    18    21    23    1
    19    23    24   ar
    20    24    25   ar
    21    25    26   ar
    22    26    27   ar
    23    27    28    1
    24    27    29   ar
    25    21    22   ar
    26    22    18   ar
    27    14     5   ar
    28    29    23   ar
    29    14     8   ar
    30     1     4    1
    31    12    15    1
    32    12    16    1
@<TRIPOS>MOLECULE
*****
 29 32 0 0 0
SMALL
GASTEIGER

@<TRIPOS>ATOM
      1 N          -6.6200  -17.2841   22.6223 N.am    1  UNL1       -0.2656
      2 C          -6.6370  -18.7503   22.3060 C.2     1  UNL1        0.2551
      3 O          -7.5888  -19.6613   23.0231 O.2     1  UNL1       -0.2696
      4 H          -5.9952  -16.6863   22.1516 H       1  UNL1        0.1566
      5 C          -5.7022  -19.3056   21.2727 C.ar    1  UNL1        0.1103
      6 C          -5.9714  -20.4812   20.3809 C.ar    1  UNL1        0.1281
      7 N          -4.7695  -20.6847   19.5068 N.ar    1  UNL1       -0.1619
      8 N          -3.7575  -19.6350   19.8583 N.ar    1  UNL1       -0.2104
      9 C          -2.3855  -19.3450   19.3256 C.ar    1  UNL1        0.1049
     10 C          -1.5900  -18.2027   19.8844 C.ar    1  UNL1        0.0546
     11 C          -2.1663  -17.3502   20.9757 C.ar    1  UNL1        0.1286
     12 N          -1.3708  -16.2079   21.5345 N.pl3   1  UNL1       -0.3425
     13 N          -3.5383  -17.6402   21.5085 N.ar    1  UNL1       -0.2121
     14 C          -4.3339  -18.7825   20.9497 C.ar    1  UNL1        0.1710
     15 H          -0.4703  -16.0176   21.1849 H       1  UNL1        0.1437
     16 H          -1.7491  -15.6484   22.2508 H       1  UNL1        0.1437
     17 C          -8.4842  -15.1343   27.0701 C.3     1  UNL1        0.0540
     18 C          -8.4116  -15.7407   25.7001 C.ar    1  UNL1        0.0822
     19 C          -7.1632  -16.1862   24.9981 C.ar    1  UNL1        0.0509
     20 C          -7.5548  -16.7288   23.6556 C.ar    1  UNL1        0.1370
     21 N          -9.0452  -16.6187   23.5279 N.ar    1  UNL1       -0.2162
     22 N          -9.5748  -16.0080   24.7914 N.ar    1  UNL1       -0.1683
     23 C          -9.8626  -17.0445   22.3444 C.ar    1  UNL1        0.0850
     24 C         -10.2951  -18.4742   22.2069 C.ar    1  UNL1        0.0193
     25 C         -11.1125  -18.9000   21.0235 C.ar    1  UNL1        0.0024
     26 C         -11.4974  -17.8960   19.9775 C.ar    1  UNL1        0.0115
     27 C         -11.0649  -16.4664   20.1150 C.ar    1  UNL1        0.0592
     28 CL        -11.4498  -15.4624   19.0690 Cl      1  UNL1       -0.0822
     29 C         -10.2475  -16.0406   21.2985 C.ar    1  UNL1        0.0306
@<TRIPOS>BOND
     1    17    18    1
     2    18    19   ar
     3    19    20   ar
     4    20     1    1
     5     1     2   am
     6     2     3    2
     7     2     5    1
     8     5     6   ar
     9     6     7   ar
    10     7     8   ar
    11     8     9   ar
    12     9    10   ar
    13    10    11   ar
    14    11    12    1
    15    11    13   ar
    16    13    14   ar
    17    20    21   ar
    18    21    23    1
    19    23    24   ar
    20    24    25   ar
    21    25    26   ar
    22    26    27   ar
    23    27    28    1
    24    27    29   ar
    25    21    22   ar
    26    22    18   ar
    27    14     5   ar
    28    29    23   ar
    29    14     8   ar
    30     1     4    1
    31    12    15    1
    32    12    16    1
@<TRIPOS>MOLECULE
*****
 29 32 0 0 0
SMALL
GASTEIGER

@<TRIPOS>ATOM
      1 N          -7.5609  -18.5051   20.7801 N.am    1  UNL1       -0.2656
      2 C          -6.4133  -19.1984   21.4528 C.2     1  UNL1        0.2551
      3 O          -6.1470  -20.6485   21.1766 O.2     1  UNL1       -0.2696
      4 H          -7.7356  -17.5534   20.9614 H       1  UNL1        0.1566
      5 C          -5.5320  -18.4414   22.4016 C.ar    1  UNL1        0.1103
      6 C          -4.0653  -18.6707   22.6161 C.ar    1  UNL1        0.1281
      7 N          -3.5896  -17.6933   23.6497 N.ar    1  UNL1       -0.1619
      8 N          -4.7622  -16.8598   24.0740 N.ar    1  UNL1       -0.2104
      9 C          -4.8920  -15.7396   25.0630 C.ar    1  UNL1        0.1049
     10 C          -6.2224  -15.0817   25.2808 C.ar    1  UNL1        0.0546
     11 C          -7.4229  -15.5441   24.5095 C.ar    1  UNL1        0.1286
     12 N          -8.7533  -14.8862   24.7272 N.pl3   1  UNL1       -0.3425
     13 N          -7.2931  -16.6644   23.5204 N.ar    1  UNL1       -0.2121
     14 C          -5.9628  -17.3222   23.3026 C.ar    1  UNL1        0.1710
     15 H          -8.8385  -14.1510   25.3764 H       1  UNL1        0.1437
     16 H          -9.5412  -15.1897   24.2210 H       1  UNL1        0.1437
     17 C          -9.1912  -21.6395   16.8560 C.3     1  UNL1        0.0540
     18 C          -9.1915  -20.7027   18.0275 C.ar    1  UNL1        0.0822
     19 C          -7.9783  -20.1535   18.7177 C.ar    1  UNL1        0.0509
     20 C          -8.4422  -19.2620   19.8312 C.ar    1  UNL1        0.1370
     21 N          -9.9422  -19.2603   19.8293 N.ar    1  UNL1       -0.2162
     22 N         -10.4053  -20.1507   18.7146 N.ar    1  UNL1       -0.1683
     23 C         -10.8242  -18.5013   20.7759 C.ar    1  UNL1        0.0850
     24 C         -11.5348  -17.2648   20.3109 C.ar    1  UNL1        0.0193
     25 C         -12.4169  -16.5059   21.2576 C.ar    1  UNL1        0.0024
     26 C         -12.5883  -16.9835   22.6692 C.ar    1  UNL1        0.0115
     27 C         -11.8777  -18.2200   23.1341 C.ar    1  UNL1        0.0592
     28 CL        -12.0491  -18.6976   24.5457 Cl      1  UNL1       -0.0822
     29 C         -10.9957  -18.9789   22.1875 C.ar    1  UNL1        0.0306
@<TRIPOS>BOND
     1    17    18    1
     2    18    19   ar
     3    19    20   ar
     4    20     1    1
     5     1     2   am
     6     2     3    2
     7     2     5    1
     8     5     6   ar
     9     6     7   ar
    10     7     8   ar
    11     8     9   ar
    12     9    10   ar
    13    10    11   ar
    14    11    12    1
    15    11    13   ar
    16    13    14   ar
    17    20    21   ar
    18    21    23    1
    19    23    24   ar
    20    24    25   ar
    21    25    26   ar
    22    26    27   ar
    23    27    28    1
    24    27    29   ar
    25    21    22   ar
    26    22    18   ar
    27    14     5   ar
    28    29    23   ar
    29    14     8   ar
    30     1     4    1
    31    12    15    1
    32    12    16    1
@<TRIPOS>MOLECULE
*****
 29 32 0 0 0
SMALL
GASTEIGER

@<TRIPOS>ATOM
      1 N          -6.8639  -18.7442   20.2060 N.am    1  UNL1       -0.2656
      2 C          -5.7235  -19.5541   20.7478 C.2     1  UNL1        0.2551
      3 O          -5.7244  -21.0463   20.5955 O.2     1  UNL1       -0.2696
      4 H          -6.8633  -17.7648   20.3059 H       1  UNL1        0.1566
      5 C          -4.5822  -18.8717   21.4419 C.ar    1  UNL1        0.1103
      6 C          -4.4890  -18.5837   22.9109 C.ar    1  UNL1        0.1281
      7 N          -3.1829  -17.8915   23.1657 N.ar    1  UNL1       -0.1619
      8 N          -2.4688  -17.7515   21.8540 N.ar    1  UNL1       -0.2104
      9 C          -1.1429  -17.1508   21.4921 C.ar    1  UNL1        0.1049
     10 C          -0.6818  -17.1559   20.0647 C.ar    1  UNL1        0.0546
     11 C          -1.5466  -17.7616   18.9993 C.ar    1  UNL1        0.1286
     12 N          -1.0854  -17.7667   17.5719 N.pl3   1  UNL1       -0.3425
     13 N          -2.8726  -18.3624   19.3612 N.ar    1  UNL1       -0.2121
     14 C          -3.3337  -18.3574   20.7886 C.ar    1  UNL1        0.1710
     15 H          -0.2152  -17.3724   17.3344 H       1  UNL1        0.1437
     16 H          -1.6530  -18.1643   16.8726 H       1  UNL1        0.1437
     17 C          -9.6911  -21.4438   16.6564 C.3     1  UNL1        0.0540
     18 C          -9.3047  -20.6674   17.8803 C.ar    1  UNL1        0.0822
     19 C          -7.9370  -20.1364   18.1922 C.ar    1  UNL1        0.0509
     20 C          -8.0052  -19.4265   19.5118 C.ar    1  UNL1        0.1370
     21 N          -9.4151  -19.5187   20.0155 N.ar    1  UNL1       -0.2162
     22 N         -10.2182  -20.2856   19.0071 N.ar    1  UNL1       -0.1683
     23 C          -9.9313  -18.9448   21.3016 C.ar    1  UNL1        0.0850
     24 C          -9.5520  -19.5741   22.6094 C.ar    1  UNL1        0.0193
     25 C         -10.0681  -19.0002   23.8955 C.ar    1  UNL1        0.0024
     26 C         -10.9636  -17.7969   23.8739 C.ar    1  UNL1        0.0115
     27 C         -11.3428  -17.1676   22.5662 C.ar    1  UNL1        0.0592
     28 CL        -12.2383  -15.9644   22.5446 Cl      1  UNL1       -0.0822
     29 C         -10.8267  -17.7416   21.2801 C.ar    1  UNL1        0.0306
@<TRIPOS>BOND
     1    17    18    1
     2    18    19   ar
     3    19    20   ar
     4    20     1    1
     5     1     2   am
     6     2     3    2
     7     2     5    1
     8     5     6   ar
     9     6     7   ar
    10     7     8   ar
    11     8     9   ar
    12     9    10   ar
    13    10    11   ar
    14    11    12    1
    15    11    13   ar
    16    13    14   ar
    17    20    21   ar
    18    21    23    1
    19    23    24   ar
    20    24    25   ar
    21    25    26   ar
    22    26    27   ar
    23    27    28    1
    24    27    29   ar
    25    21    22   ar
    26    22    18   ar
    27    14     5   ar
    28    29    23   ar
    29    14     8   ar
    30     1     4    1
    31    12    15    1
    32    12    16    1
@<TRIPOS>MOLECULE
*****
 29 32 0 0 0
SMALL
GASTEIGER

@<TRIPOS>ATOM
      1 N          -6.1585  -16.5647   23.3830 N.am    1  UNL1       -0.2656
      2 C          -4.7404  -16.9132   23.7260 C.2     1  UNL1        0.2551
      3 O          -4.3069  -16.9651   25.1610 O.2     1  UNL1       -0.2696
      4 H          -6.4430  -16.5307   22.4411 H       1  UNL1        0.1566
      5 C          -3.7559  -17.2097   22.6338 C.ar    1  UNL1        0.1103
      6 C          -2.4913  -16.4521   22.3571 C.ar    1  UNL1        0.1281
      7 N          -1.8170  -17.0901   21.1789 N.ar    1  UNL1       -0.1619
      8 N          -2.6648  -18.2422   20.7274 N.ar    1  UNL1       -0.2104
      9 C          -2.5006  -19.2334   19.6137 C.ar    1  UNL1        0.1049
     10 C          -3.5346  -20.2987   19.3991 C.ar    1  UNL1        0.0546
     11 C          -4.7330  -20.3726   20.2983 C.ar    1  UNL1        0.1286
     12 N          -5.7670  -21.4379   20.0838 N.pl3   1  UNL1       -0.3425
     13 N          -4.8973  -19.3813   21.4121 N.ar    1  UNL1       -0.2121
     14 C          -3.8632  -18.3161   21.6266 C.ar    1  UNL1        0.1710
     15 H          -5.6592  -22.0885   19.3528 H       1  UNL1        0.1437
     16 H          -6.5535  -21.4864   20.6739 H       1  UNL1        0.1437
     17 C          -8.3097  -14.7329   27.8436 C.3     1  UNL1        0.0540
     18 C          -8.1318  -15.4262   26.5254 C.ar    1  UNL1        0.0822
     19 C          -6.8702  -15.4699   25.7153 C.ar    1  UNL1        0.0509
     20 C          -7.1431  -16.2682   24.4751 C.ar    1  UNL1        0.1370
     21 N          -8.5734  -16.7179   24.5186 N.ar    1  UNL1       -0.2162
     22 N          -9.1845  -16.1975   25.7858 N.ar    1  UNL1       -0.1683
     23 C          -9.2703  -17.5431   23.4778 C.ar    1  UNL1        0.0850
     24 C          -9.3816  -19.0291   23.6496 C.ar    1  UNL1        0.0193
     25 C         -10.0785  -19.8543   22.6087 C.ar    1  UNL1        0.0024
     26 C         -10.6641  -19.1935   21.3960 C.ar    1  UNL1        0.0115
     27 C         -10.5528  -17.7075   21.2243 C.ar    1  UNL1        0.0592
     28 CL        -11.1384  -17.0467   20.0116 Cl      1  UNL1       -0.0822
     29 C          -9.8559  -16.8823   22.2652 C.ar    1  UNL1        0.0306
@<TRIPOS>BOND
     1    17    18    1
     2    18    19   ar
     3    19    20   ar
     4    20     1    1
     5     1     2   am
     6     2     3    2
     7     2     5    1
     8     5     6   ar
     9     6     7   ar
    10     7     8   ar
    11     8     9   ar
    12     9    10   ar
    13    10    11   ar
    14    11    12    1
    15    11    13   ar
    16    13    14   ar
    17    20    21   ar
    18    21    23    1
    19    23    24   ar
    20    24    25   ar
    21    25    26   ar
    22    26    27   ar
    23    27    28    1
    24    27    29   ar
    25    21    22   ar
    26    22    18   ar
    27    14     5   ar
    28    29    23   ar
    29    14     8   ar
    30     1     4    1
    31    12    15    1
    32    12    16    1
@<TRIPOS>MOLECULE
*****
 29 32 0 0 0
SMALL
GASTEIGER

@<TRIPOS>ATOM
      1 N         -14.6227   -4.5250   18.0876 N.am    1  UNL1       -0.2656
      2 C         -14.4789   -5.4763   19.2385 C.2     1  UNL1        0.2551
      3 O         -13.9729   -4.9822   20.5613 O.2     1  UNL1       -0.2696
      4 H         -14.9548   -4.8494   17.2195 H       1  UNL1        0.1566
      5 C         -14.8413   -6.9217   19.0665 C.ar    1  UNL1        0.1103
      6 C         -13.9243   -8.0103   18.5933 C.ar    1  UNL1        0.1281
      7 N         -14.7006   -9.2936   18.5719 N.ar    1  UNL1       -0.1619
      8 N         -16.0974   -8.9982   19.0319 N.ar    1  UNL1       -0.2104
      9 C         -17.3013   -9.8746   19.2118 C.ar    1  UNL1        0.1049
     10 C         -18.5923   -9.2850   19.6975 C.ar    1  UNL1        0.0546
     11 C         -18.6793   -7.8191   20.0032 C.ar    1  UNL1        0.1286
     12 N         -19.9703   -7.2295   20.4889 N.pl3   1  UNL1       -0.3425
     13 N         -17.4753   -6.9426   19.8233 N.ar    1  UNL1       -0.2121
     14 C         -16.1843   -7.5322   19.3376 C.ar    1  UNL1        0.1710
     15 H         -20.7605   -7.8047   20.6071 H       1  UNL1        0.1437
     16 H         -20.0274   -6.2674   20.6896 H       1  UNL1        0.1437
     17 C         -14.9712    0.6679   18.9778 C.3     1  UNL1        0.0540
     18 C         -14.4206   -0.6927   18.6687 C.ar    1  UNL1        0.0822
     19 C         -15.2088   -1.9668   18.5946 C.ar    1  UNL1        0.0509
     20 C         -14.2604   -3.0796   18.2596 C.ar    1  UNL1        0.1370
     21 N         -12.8861   -2.4933   18.1266 N.ar    1  UNL1       -0.2162
     22 N         -12.9852   -1.0181   18.3795 N.ar    1  UNL1       -0.1683
     23 C         -11.6329   -3.2494   17.7984 C.ar    1  UNL1        0.0850
     24 C         -10.9360   -3.0148   16.4910 C.ar    1  UNL1        0.0193
     25 C          -9.6828   -3.7709   16.1628 C.ar    1  UNL1        0.0024
     26 C          -9.1264   -4.7617   17.1421 C.ar    1  UNL1        0.0115
     27 C          -9.8233   -4.9963   18.4494 C.ar    1  UNL1        0.0592
     28 CL         -9.2669   -5.9870   19.4287 Cl      1  UNL1       -0.0822
     29 C         -11.0765   -4.2401   18.7776 C.ar    1  UNL1        0.0306
@<TRIPOS>BOND
     1    17    18    1
     2    18    19   ar
     3    19    20   ar
     4    20     1    1
     5     1     2   am
     6     2     3    2
     7     2     5    1
     8     5     6   ar
     9     6     7   ar
    10     7     8   ar
    11     8     9   ar
    12     9    10   ar
    13    10    11   ar
    14    11    12    1
    15    11    13   ar
    16    13    14   ar
    17    20    21   ar
    18    21    23    1
    19    23    24   ar
    20    24    25   ar
    21    25    26   ar
    22    26    27   ar
    23    27    28    1
    24    27    29   ar
    25    21    22   ar
    26    22    18   ar
    27    14     5   ar
    28    29    23   ar
    29    14     8   ar
    30     1     4    1
    31    12    15    1
    32    12    16    1
@<TRIPOS>MOLECULE
*****
 29 32 0 0 0
SMALL
GASTEIGER

@<TRIPOS>ATOM
      1 N          -7.1155  -18.0175   21.0065 N.am    1  UNL1       -0.2656
      2 C          -8.2891  -18.8075   21.5051 C.2     1  UNL1        0.2551
      3 O          -8.0753  -19.9538   22.4486 O.2     1  UNL1       -0.2696
      4 H          -7.2559  -17.2652   20.3873 H       1  UNL1        0.1566
      5 C          -9.6765  -18.4512   21.0600 C.ar    1  UNL1        0.1103
      6 C         -10.0943  -18.1159   19.6590 C.ar    1  UNL1        0.1281
      7 N         -11.5657  -17.8250   19.6711 N.ar    1  UNL1       -0.1619
      8 N         -12.0575  -17.9805   21.0796 N.ar    1  UNL1       -0.2104
      9 C         -13.4176  -17.8198   21.6914 C.ar    1  UNL1        0.1049
     10 C         -13.6100  -18.0460   23.1617 C.ar    1  UNL1        0.0546
     11 C         -12.4425  -18.4330   24.0202 C.ar    1  UNL1        0.1286
     12 N         -12.6349  -18.6592   25.4905 N.pl3   1  UNL1       -0.3425
     13 N         -11.0823  -18.5937   23.4084 N.ar    1  UNL1       -0.2121
     14 C         -10.8898  -18.3675   21.9381 C.ar    1  UNL1        0.1710
     15 H         -13.5276  -18.5537   25.8921 H       1  UNL1        0.1437
     16 H         -11.8686  -18.9132   26.0540 H       1  UNL1        0.1437
     17 C          -2.2903  -20.1549   21.1780 C.3     1  UNL1        0.0540
     18 C          -3.5101  -19.3563   21.5303 C.ar    1  UNL1        0.0822
     19 C          -4.7785  -19.2857   20.7326 C.ar    1  UNL1        0.0509
     20 C          -5.7280  -18.3738   21.4515 C.ar    1  UNL1        0.1370
     21 N          -5.0465  -17.8807   22.6934 N.ar    1  UNL1       -0.2162
     22 N          -3.6758  -18.4879   22.7421 N.ar    1  UNL1       -0.1683
     23 C          -5.6328  -16.9448   23.7085 C.ar    1  UNL1        0.0850
     24 C          -4.7377  -16.2417   24.6855 C.ar    1  UNL1        0.0193
     25 C          -5.3240  -15.3058   25.7006 C.ar    1  UNL1        0.0024
     26 C          -6.8054  -15.0729   25.7385 C.ar    1  UNL1        0.0115
     27 C          -7.7004  -15.7760   24.7615 C.ar    1  UNL1        0.0592
     28 CL         -9.1818  -15.5432   24.7995 Cl      1  UNL1       -0.0822
     29 C          -7.1141  -16.7119   23.7465 C.ar    1  UNL1        0.0306
@<TRIPOS>BOND
     1    17    18    1
     2    18    19   ar
     3    19    20   ar
     4    20     1    1
     5     1     2   am
     6     2     3    2
     7     2     5    1
     8     5     6   ar
     9     6     7   ar
    10     7     8   ar
    11     8     9   ar
    12     9    10   ar
    13    10    11   ar
    14    11    12    1
    15    11    13   ar
    16    13    14   ar
    17    20    21   ar
    18    21    23    1
    19    23    24   ar
    20    24    25   ar
    21    25    26   ar
    22    26    27   ar
    23    27    28    1
    24    27    29   ar
    25    21    22   ar
    26    22    18   ar
    27    14     5   ar
    28    29    23   ar
    29    14     8   ar
    30     1     4    1
    31    12    15    1
    32    12    16    1
@<TRIPOS>MOLECULE
*****
 29 32 0 0 0
SMALL
GASTEIGER

@<TRIPOS>ATOM
      1 N         -15.4063   -4.3681   18.4886 N.am    1  UNL1       -0.2656
      2 C         -14.7805   -3.4356   19.4830 C.2     1  UNL1        0.2551
      3 O         -14.5567   -3.8862   20.8961 O.2     1  UNL1       -0.2696
      4 H         -15.5531   -4.0723   17.5611 H       1  UNL1        0.1566
      5 C         -14.3783   -2.0525   19.0642 C.ar    1  UNL1        0.1103
      6 C         -15.1765   -0.8002   19.2756 C.ar    1  UNL1        0.1281
      7 N         -14.3988    0.3473   18.7025 N.ar    1  UNL1       -0.1619
      8 N         -13.1201   -0.1956   18.1370 N.ar    1  UNL1       -0.2104
      9 C         -11.9656    0.4688   17.4474 C.ar    1  UNL1        0.1049
     10 C         -10.7983   -0.3500   16.9813 C.ar    1  UNL1        0.0546
     11 C         -10.7856   -1.8332   17.2048 C.ar    1  UNL1        0.1286
     12 N          -9.6184   -2.6519   16.7387 N.pl3   1  UNL1       -0.3425
     13 N         -11.9402   -2.4977   17.8944 N.ar    1  UNL1       -0.2121
     14 C         -13.1074   -1.6789   18.3605 C.ar    1  UNL1        0.1710
     15 H          -8.8606   -2.2158   16.2860 H       1  UNL1        0.1437
     16 H          -9.6101   -3.6254   16.8854 H       1  UNL1        0.1437
     17 C         -18.2358   -8.4468   20.2880 C.3     1  UNL1        0.0540
     18 C         -17.1090   -7.6260   19.7343 C.ar    1  UNL1        0.0822
     19 C         -17.1479   -6.1538   19.4492 C.ar    1  UNL1        0.0509
     20 C         -15.8084   -5.7512   18.9072 C.ar    1  UNL1        0.1370
     21 N         -14.9417   -6.9744   18.8575 N.ar    1  UNL1       -0.2162
     22 N         -15.7455   -8.1331   19.3687 N.ar    1  UNL1       -0.1683
     23 C         -13.5207   -7.0293   18.3803 C.ar    1  UNL1        0.0850
     24 C         -13.1536   -7.9012   17.2162 C.ar    1  UNL1        0.0193
     25 C         -11.7325   -7.9562   16.7391 C.ar    1  UNL1        0.0024
     26 C         -10.6786   -7.1392   17.4260 C.ar    1  UNL1        0.0115
     27 C         -11.0457   -6.2673   18.5901 C.ar    1  UNL1        0.0592
     28 CL         -9.9918   -5.4503   19.2770 Cl      1  UNL1       -0.0822
     29 C         -12.4668   -6.2124   19.0672 C.ar    1  UNL1        0.0306
@<TRIPOS>BOND
     1    17    18    1
     2    18    19   ar
     3    19    20   ar
     4    20     1    1
     5     1     2   am
     6     2     3    2
     7     2     5    1
     8     5     6   ar
     9     6     7   ar
    10     7     8   ar
    11     8     9   ar
    12     9    10   ar
    13    10    11   ar
    14    11    12    1
    15    11    13   ar
    16    13    14   ar
    17    20    21   ar
    18    21    23    1
    19    23    24   ar
    20    24    25   ar
    21    25    26   ar
    22    26    27   ar
    23    27    28    1
    24    27    29   ar
    25    21    22   ar
    26    22    18   ar
    27    14     5   ar
    28    29    23   ar
    29    14     8   ar
    30     1     4    1
    31    12    15    1
    32    12    16    1
