@<TRIPOS>MOLECULE
*****
 18 20 0 0 0
SMALL
GASTEIGER

@<TRIPOS>ATOM
      1 C          -9.6845  -17.3927   22.4849 C.3     1  UNL1        0.0347
      2 C          -9.1999  -18.3407   23.5415 C.3     1  UNL1        0.0054
      3 C          -9.7464  -19.7361   23.6049 C.3     1  UNL1        0.0004
      4 C         -10.7775  -20.1836   22.6116 C.3     1  UNL1        0.0001
      5 C         -11.2621  -19.2356   21.5550 C.3     1  UNL1        0.0017
      6 C         -10.7156  -17.8402   21.4917 C.3     1  UNL1        0.0208
      7 C         -11.0003  -16.6916   20.5698 C.3     1  UNL1        0.0689
      8 N         -10.1451  -15.5343   20.9933 N.3     1  UNL1       -0.2972
      9 C          -9.3319  -15.9676   22.1769 C.3     1  UNL1        0.0726
     10 H         -10.7356  -14.7432   21.2499 H       1  UNL1        0.1233
     11 CL         -5.5678  -15.0469   26.1659 Cl      1  UNL1       -0.0814
     12 C          -6.5970  -15.6333   25.2456 C.ar    1  UNL1        0.0682
     13 C          -6.1962  -16.1180   23.8839 C.ar    1  UNL1        0.0119
     14 C          -7.2254  -16.7045   22.9637 C.ar    1  UNL1       -0.0033
     15 C          -8.6553  -16.8062   23.4052 C.ar    1  UNL1       -0.0206
     16 C          -9.0560  -16.3215   24.7670 C.ar    1  UNL1        0.0080
     17 C          -8.0269  -15.7351   25.6872 C.ar    1  UNL1        0.0679
     18 CL         -8.4276  -15.2504   27.0489 Cl      1  UNL1       -0.0814
@<TRIPOS>BOND
     1    11    12    1
     2    12    13   ar
     3    13    14   ar
     4    14    15   ar
     5     1    15    1
     6     1     2    1
     7     2     3    1
     8     3     4    1
     9     4     5    1
    10     6     5    1
    11     6     7    1
    12     7     8    1
    13     8     9    1
    14    15    16   ar
    15    16    17   ar
    16    17    18    1
    17    17    12   ar
    18     6     1    1
    19     9     1    1
    20     8    10    1
@<TRIPOS>MOLECULE
*****
 18 20 0 0 0
SMALL
GASTEIGER

@<TRIPOS>ATOM
      1 C          -7.6173  -16.3064   24.8309 C.3     1  UNL1        0.0347
      2 C          -8.6528  -16.1450   25.9040 C.3     1  UNL1        0.0054
      3 C          -8.2833  -15.5152   27.2142 C.3     1  UNL1        0.0004
      4 C          -6.8781  -15.0468   27.4513 C.3     1  UNL1        0.0001
      5 C          -5.8426  -15.2082   26.3782 C.3     1  UNL1        0.0017
      6 C          -6.2122  -15.8380   25.0680 C.3     1  UNL1        0.0208
      7 C          -5.4123  -16.1277   23.8326 C.3     1  UNL1        0.0689
      8 N          -6.3231  -16.7752   22.8319 N.3     1  UNL1       -0.2972
      9 C          -7.6858  -16.8856   23.4489 C.3     1  UNL1        0.0726
     10 H          -5.9736  -17.7039   22.5959 H       1  UNL1        0.1233
     11 CL        -13.0462  -18.3607   23.3122 Cl      1  UNL1       -0.0814
     12 C         -11.6890  -17.8471   23.6919 C.ar    1  UNL1        0.0682
     13 C         -10.8318  -18.6264   24.6447 C.ar    1  UNL1        0.0119
     14 C          -9.4746  -18.1128   25.0244 C.ar    1  UNL1       -0.0033
     15 C          -8.9746  -16.8200   24.4512 C.ar    1  UNL1       -0.0206
     16 C          -9.8318  -16.0407   23.4984 C.ar    1  UNL1        0.0080
     17 C         -11.1890  -16.5543   23.1187 C.ar    1  UNL1        0.0679
     18 CL        -12.0462  -15.7750   22.1659 Cl      1  UNL1       -0.0814
@<TRIPOS>BOND
     1    11    12    1
     2    12    13   ar
     3    13    14   ar
     4    14    15   ar
     5     1    15    1
     6     1     2    1
     7     2     3    1
     8     3     4    1
     9     4     5    1
    10     6     5    1
    11     6     7    1
    12     7     8    1
    13     8     9    1
    14    15    16   ar
    15    16    17   ar
    16    17    18    1
    17    17    12   ar
    18     6     1    1
    19     9     1    1
    20     8    10    1
@<TRIPOS>MOLECULE
*****
 18 20 0 0 0
SMALL
GASTEIGER

@<TRIPOS>ATOM
      1 C         -10.1587  -17.8552   23.1936 C.3     1  UNL1        0.0347
      2 C         -10.3224  -16.3642   23.2023 C.3     1  UNL1        0.0054
      3 C         -11.5468  -15.7406   22.6009 C.3     1  UNL1        0.0004
      4 C         -12.6077  -16.6080   21.9907 C.3     1  UNL1        0.0001
      5 C         -12.4440  -18.0990   21.9820 C.3     1  UNL1        0.0017
      6 C         -11.2196  -18.7226   22.5835 C.3     1  UNL1        0.0208
      7 C         -10.7851  -20.1518   22.7204 C.3     1  UNL1        0.0689
      8 N          -9.4558  -20.1677   23.4152 N.3     1  UNL1       -0.2972
      9 C          -9.0687  -18.7483   23.7077 C.3     1  UNL1        0.0726
     10 H          -8.7556  -20.6004   22.8129 H       1  UNL1        0.1233
     11 CL         -5.6037  -14.9151   25.7639 Cl      1  UNL1       -0.0814
     12 C          -6.7424  -15.6501   25.1214 C.ar    1  UNL1        0.0682
     13 C          -6.6423  -16.0833   23.6888 C.ar    1  UNL1        0.0119
     14 C          -7.7811  -16.8184   23.0462 C.ar    1  UNL1       -0.0033
     15 C          -9.0200  -17.1202   23.8362 C.ar    1  UNL1       -0.0206
     16 C          -9.1200  -16.6869   25.2688 C.ar    1  UNL1        0.0080
     17 C          -7.9813  -15.9519   25.9113 C.ar    1  UNL1        0.0679
     18 CL         -8.0814  -15.5187   27.3439 Cl      1  UNL1       -0.0814
@<TRIPOS>BOND
     1    11    12    1
     2    12    13   ar
     3    13    14   ar
     4    14    15   ar
     5     1    15    1
     6     1     2    1
     7     2     3    1
     8     3     4    1
     9     4     5    1
    10     6     5    1
    11     6     7    1
    12     7     8    1
    13     8     9    1
    14    15    16   ar
    15    16    17   ar
    16    17    18    1
    17    17    12   ar
    18     6     1    1
    19     9     1    1
    20     8    10    1
@<TRIPOS>MOLECULE
*****
 18 20 0 0 0
SMALL
GASTEIGER

@<TRIPOS>ATOM
      1 C          -6.8536  -16.6429   23.4041 C.3     1  UNL1        0.0347
      2 C          -7.1850  -17.8619   22.5954 C.3     1  UNL1        0.0054
      3 C          -6.0939  -18.7994   22.1704 C.3     1  UNL1        0.0004
      4 C          -4.6714  -18.5178   22.5541 C.3     1  UNL1        0.0001
      5 C          -4.3400  -17.2987   23.3628 C.3     1  UNL1        0.0017
      6 C          -5.4311  -16.3613   23.7878 C.3     1  UNL1        0.0208
      7 C          -5.4087  -15.0901   24.5838 C.3     1  UNL1        0.0689
      8 N          -6.8173  -14.5861   24.6921 N.3     1  UNL1       -0.2972
      9 C          -7.7103  -15.5457   23.9630 C.3     1  UNL1        0.0726
     10 H          -6.8869  -13.6599   24.2705 H       1  UNL1        0.1233
     11 CL        -12.6958  -17.2425   22.1756 Cl      1  UNL1       -0.0814
     12 C         -11.2352  -17.0926   22.4828 C.ar    1  UNL1        0.0682
     13 C         -10.3686  -16.2373   21.6068 C.ar    1  UNL1        0.0119
     14 C          -8.9080  -16.0874   21.9139 C.ar    1  UNL1       -0.0033
     15 C          -8.3142  -16.7928   23.0970 C.ar    1  UNL1       -0.0206
     16 C          -9.1809  -17.6481   23.9730 C.ar    1  UNL1        0.0080
     17 C         -10.6413  -17.7979   23.6659 C.ar    1  UNL1        0.0679
     18 CL        -11.5080  -18.6532   24.5418 Cl      1  UNL1       -0.0814
@<TRIPOS>BOND
     1    11    12    1
     2    12    13   ar
     3    13    14   ar
     4    14    15   ar
     5     1    15    1
     6     1     2    1
     7     2     3    1
     8     3     4    1
     9     4     5    1
    10     6     5    1
    11     6     7    1
    12     7     8    1
    13     8     9    1
    14    15    16   ar
    15    16    17   ar
    16    17    18    1
    17    17    12   ar
    18     6     1    1
    19     9     1    1
    20     8    10    1
@<TRIPOS>MOLECULE
*****
 18 20 0 0 0
SMALL
GASTEIGER

@<TRIPOS>ATOM
      1 C         -10.7647  -17.6760   22.3386 C.3     1  UNL1        0.0347
      2 C         -10.3195  -18.4931   23.5150 C.3     1  UNL1        0.0054
      3 C         -11.3157  -18.9190   24.5524 C.3     1  UNL1        0.0004
      4 C         -12.7571  -18.5277   24.4133 C.3     1  UNL1        0.0001
      5 C         -13.2022  -17.7106   23.2369 C.3     1  UNL1        0.0017
      6 C         -12.2060  -17.2847   22.1995 C.3     1  UNL1        0.0208
      7 C         -12.3489  -16.4813   20.9409 C.3     1  UNL1        0.0689
      8 N         -10.9958  -16.3759   20.3021 N.3     1  UNL1       -0.2972
      9 C         -10.0167  -17.1143   21.1659 C.3     1  UNL1        0.0726
     10 H         -10.7227  -15.3959   20.2293 H       1  UNL1        0.1233
     11 CL         -4.8977  -18.9324   22.3574 Cl      1  UNL1       -0.0814
     12 C          -6.3645  -18.6183   22.3527 C.ar    1  UNL1        0.0682
     13 C          -7.3337  -19.5725   21.7203 C.ar    1  UNL1        0.0119
     14 C          -8.8005  -19.2584   21.7156 C.ar    1  UNL1       -0.0033
     15 C          -9.2979  -17.9901   22.3433 C.ar    1  UNL1       -0.0206
     16 C          -8.3286  -17.0359   22.9757 C.ar    1  UNL1        0.0080
     17 C          -6.8619  -17.3500   22.9804 C.ar    1  UNL1        0.0679
     18 CL         -5.8926  -16.3958   23.6127 Cl      1  UNL1       -0.0814
@<TRIPOS>BOND
     1    11    12    1
     2    12    13   ar
     3    13    14   ar
     4    14    15   ar
     5     1    15    1
     6     1     2    1
     7     2     3    1
     8     3     4    1
     9     4     5    1
    10     6     5    1
    11     6     7    1
    12     7     8    1
    13     8     9    1
    14    15    16   ar
    15    16    17   ar
    16    17    18    1
    17    17    12   ar
    18     6     1    1
    19     9     1    1
    20     8    10    1
@<TRIPOS>MOLECULE
*****
 18 20 0 0 0
SMALL
GASTEIGER

@<TRIPOS>ATOM
      1 C         -10.4779  -17.5636   23.2337 C.3     1  UNL1        0.0347
      2 C          -9.9381  -16.6933   22.1377 C.3     1  UNL1        0.0054
      3 C         -10.8625  -16.1447   21.0916 C.3     1  UNL1        0.0004
      4 C         -12.3268  -16.4664   21.1414 C.3     1  UNL1        0.0001
      5 C         -12.8666  -17.3367   22.2374 C.3     1  UNL1        0.0017
      6 C         -11.9422  -17.8853   23.2835 C.3     1  UNL1        0.0208
      7 C         -12.1834  -18.7638   24.4751 C.3     1  UNL1        0.0689
      8 N         -10.8683  -18.9851   25.1618 N.3     1  UNL1       -0.2972
      9 C          -9.8142  -18.2433   24.3945 C.3     1  UNL1        0.0726
     10 H         -10.6489  -19.9811   25.1769 H       1  UNL1        0.1233
     11 CL         -4.5602  -16.6264   23.5526 Cl      1  UNL1       -0.0814
     12 C          -6.0396  -16.8607   23.4729 C.ar    1  UNL1        0.0682
     13 C          -6.5827  -17.9233   22.5642 C.ar    1  UNL1        0.0119
     14 C          -8.0622  -18.1576   22.4845 C.ar    1  UNL1       -0.0033
     15 C          -8.9984  -17.3293   23.3134 C.ar    1  UNL1       -0.0206
     16 C          -8.4553  -16.2666   24.2221 C.ar    1  UNL1        0.0080
     17 C          -6.9759  -16.0323   24.3018 C.ar    1  UNL1        0.0679
     18 CL         -6.4327  -14.9697   25.2105 Cl      1  UNL1       -0.0814
@<TRIPOS>BOND
     1    11    12    1
     2    12    13   ar
     3    13    14   ar
     4    14    15   ar
     5     1    15    1
     6     1     2    1
     7     2     3    1
     8     3     4    1
     9     4     5    1
    10     6     5    1
    11     6     7    1
    12     7     8    1
    13     8     9    1
    14    15    16   ar
    15    16    17   ar
    16    17    18    1
    17    17    12   ar
    18     6     1    1
    19     9     1    1
    20     8    10    1
@<TRIPOS>MOLECULE
*****
 18 20 0 0 0
SMALL
GASTEIGER

@<TRIPOS>ATOM
      1 C          -7.8498  -17.3544   23.3030 C.3     1  UNL1        0.0347
      2 C          -8.5540  -16.3182   24.1277 C.3     1  UNL1        0.0054
      3 C          -7.7677  -15.2284   24.7938 C.3     1  UNL1        0.0004
      4 C          -6.2771  -15.1747   24.6352 C.3     1  UNL1        0.0001
      5 C          -5.5728  -16.2109   23.8105 C.3     1  UNL1        0.0017
      6 C          -6.3591  -17.3008   23.1444 C.3     1  UNL1        0.0208
      7 C          -5.9436  -18.4517   22.2767 C.3     1  UNL1        0.0689
      8 N          -7.1774  -19.2166   21.8991 N.3     1  UNL1       -0.2972
      9 C          -8.3554  -18.5385   22.5333 C.3     1  UNL1        0.0726
     10 H          -7.1068  -20.1763   22.2375 H       1  UNL1        0.1233
     11 CL        -13.7994  -18.0812   23.5739 Cl      1  UNL1       -0.0814
     12 C         -12.3119  -17.8995   23.5062 C.ar    1  UNL1        0.0682
     13 C         -11.4261  -18.5895   24.5007 C.ar    1  UNL1        0.0119
     14 C          -9.9387  -18.4078   24.4330 C.ar    1  UNL1       -0.0033
     15 C          -9.3372  -17.5361   23.3707 C.ar    1  UNL1       -0.0206
     16 C         -10.2231  -16.8462   22.3762 C.ar    1  UNL1        0.0080
     17 C         -11.7105  -17.0279   22.4440 C.ar    1  UNL1        0.0679
     18 CL        -12.5964  -16.3379   21.4494 Cl      1  UNL1       -0.0814
@<TRIPOS>BOND
     1    11    12    1
     2    12    13   ar
     3    13    14   ar
     4    14    15   ar
     5     1    15    1
     6     1     2    1
     7     2     3    1
     8     3     4    1
     9     4     5    1
    10     6     5    1
    11     6     7    1
    12     7     8    1
    13     8     9    1
    14    15    16   ar
    15    16    17   ar
    16    17    18    1
    17    17    12   ar
    18     6     1    1
    19     9     1    1
    20     8    10    1
@<TRIPOS>MOLECULE
*****
 18 20 0 0 0
SMALL
GASTEIGER

@<TRIPOS>ATOM
      1 C         -10.3078  -18.4280   22.6208 C.3     1  UNL1        0.0347
      2 C          -9.9750  -17.4735   21.5126 C.3     1  UNL1        0.0054
      3 C         -10.9226  -16.3624   21.1699 C.3     1  UNL1        0.0004
      4 C         -12.2030  -16.2058   21.9354 C.3     1  UNL1        0.0001
      5 C         -12.5359  -17.1604   23.0436 C.3     1  UNL1        0.0017
      6 C         -11.5882  -18.2714   23.3863 C.3     1  UNL1        0.0208
      7 C         -11.6463  -19.3573   24.4195 C.3     1  UNL1        0.0689
      8 N         -10.4018  -20.1849   24.2926 N.3     1  UNL1       -0.2972
      9 C          -9.5745  -19.6106   23.1810 C.3     1  UNL1        0.0726
     10 H         -10.6488  -21.1507   24.0768 H       1  UNL1        0.1233
     11 CL         -5.0657  -19.5494   19.9259 Cl      1  UNL1       -0.0814
     12 C          -6.3762  -19.2690   20.5997 C.ar    1  UNL1        0.0682
     13 C          -7.6628  -19.6130   19.9097 C.ar    1  UNL1        0.0119
     14 C          -8.9734  -19.3326   20.5834 C.ar    1  UNL1       -0.0033
     15 C          -8.9972  -18.7083   21.9471 C.ar    1  UNL1       -0.0206
     16 C          -7.7105  -18.3644   22.6371 C.ar    1  UNL1        0.0080
     17 C          -6.4000  -18.6448   21.9634 C.ar    1  UNL1        0.0679
     18 CL         -5.1133  -18.3009   22.6533 Cl      1  UNL1       -0.0814
@<TRIPOS>BOND
     1    11    12    1
     2    12    13   ar
     3    13    14   ar
     4    14    15   ar
     5     1    15    1
     6     1     2    1
     7     2     3    1
     8     3     4    1
     9     4     5    1
    10     6     5    1
    11     6     7    1
    12     7     8    1
    13     8     9    1
    14    15    16   ar
    15    16    17   ar
    16    17    18    1
    17    17    12   ar
    18     6     1    1
    19     9     1    1
    20     8    10    1
@<TRIPOS>MOLECULE
*****
 18 20 0 0 0
SMALL
GASTEIGER

@<TRIPOS>ATOM
      1 C         -10.9519   -5.5877   18.0577 C.3     1  UNL1        0.0347
      2 C         -12.0734   -5.1943   17.1426 C.3     1  UNL1        0.0054
      3 C         -12.6770   -6.2086   16.2170 C.3     1  UNL1        0.0004
      4 C         -12.1591   -7.6163   16.2064 C.3     1  UNL1        0.0001
      5 C         -11.0375   -8.0097   17.1215 C.3     1  UNL1        0.0017
      6 C         -10.4339   -6.9954   18.0471 C.3     1  UNL1        0.0208
      7 C          -9.3266   -7.0895   19.0546 C.3     1  UNL1        0.0689
      8 N          -9.1602   -5.7399   19.6878 N.3     1  UNL1       -0.2972
      9 C         -10.1646   -4.8118   19.0717 C.3     1  UNL1        0.0726
     10 H          -8.2168   -5.3915   19.5173 H       1  UNL1        0.1233
     11 CL        -12.5958    0.1621   18.5441 Cl      1  UNL1       -0.0814
     12 C         -12.1848   -1.2753   18.4225 C.ar    1  UNL1        0.0682
     13 C         -12.8585   -2.3214   19.2602 C.ar    1  UNL1        0.0119
     14 C         -12.4475   -3.7589   19.1386 C.ar    1  UNL1       -0.0033
     15 C         -11.3629   -4.1502   18.1793 C.ar    1  UNL1       -0.0206
     16 C         -10.6892   -3.1041   17.3416 C.ar    1  UNL1        0.0080
     17 C         -11.1001   -1.6667   17.4632 C.ar    1  UNL1        0.0679
     18 CL        -10.4264   -0.6206   16.6255 Cl      1  UNL1       -0.0814
@<TRIPOS>BOND
     1    11    12    1
     2    12    13   ar
     3    13    14   ar
     4    14    15   ar
     5     1    15    1
     6     1     2    1
     7     2     3    1
     8     3     4    1
     9     4     5    1
    10     6     5    1
    11     6     7    1
    12     7     8    1
    13     8     9    1
    14    15    16   ar
    15    16    17   ar
    16    17    18    1
    17    17    12   ar
    18     6     1    1
    19     9     1    1
    20     8    10    1
