@<TRIPOS>MOLECULE
*****
 25 27 0 0 0
SMALL
GASTEIGER

@<TRIPOS>ATOM
      1 C           3.1222   -2.3008   19.7251 C.2     1  UNK1        0.0408
      2 C           4.0070   -2.5840   20.9028 C.ar    1  UNK1        0.1434
      3 N           4.3844   -1.4762   21.8410 N.ar    1  UNK1       -0.2016
      4 C           5.2691   -1.7595   23.0186 C.ar    2  PHE2        0.2971
      5 O           5.6467   -0.6516   23.9568 O.2     2  PHE2       -0.2635
      6 CA          5.7764   -3.1506   23.2582 C.ar    2  PHE2        0.1422
      7 CB          6.6611   -3.4339   24.4360 C.2     2  PHE2        0.0241
      8 N           5.3989   -4.2585   22.3201 N.ar    2  PHE2       -0.2017
      9 C           4.5142   -3.9752   21.1424 C.ar    1  UNK1        0.2972
     10 O           4.1367   -5.0831   20.2042 O.2     1  UNK1       -0.2635
     11 CG          7.1683   -4.8250   24.6756 C.ar    2  PHE2        0.0017
     12 CD1         6.8285   -5.5380   25.9508 C.ar    2  PHE2        0.0001
     13 CE1         7.3358   -6.9292   26.1903 C.ar    2  PHE2        0.0000
     14 CZ          8.1828   -7.6074   25.1547 C.ar    2  PHE2        0.0000
     15 CE2         8.5226   -6.8944   23.8794 C.ar    2  PHE2        0.0000
     16 CD2         8.0154   -5.5032   23.6399 C.ar    2  PHE2        0.0001
     17 C           2.6150   -0.9096   19.4855 C.2     1  UNK1        0.0846
     18 N           1.3436   -0.3287   20.0298 N.2     1  UNK1       -0.2267
     19 C           1.2329    1.0848   19.5402 C.2     1  UNK1        0.1942
     20 N           2.4359    1.3776   18.6934 N.2     1  UNK1       -0.2460
     21 C           3.2901    0.1450   18.6596 C.3     1  UNK1        0.1446
     22 C           4.5909   -0.0064   17.9282 C.3     1  UNK1        0.0261
     23 C           3.8786   -0.6991   16.8046 C.3     1  UNK1        0.0023
     24 C           5.3033    0.6863   19.0519 C.3     1  UNK1        0.0023
     25 C           5.8918   -0.1578   17.1969 C.3     1  UNK1        0.0023
@<TRIPOS>BOND
     1     1    17    1
     2    17    18    2
     3    18    19    1
     4    19    20    2
     5    20    21    1
     6    21    22    1
     7    22    23    1
     8    22    24    1
     9    22    25    1
    10     1     2    2
    11     2     3   ar
    12     3     4   ar
    13     4     5    2
    14     4     6   ar
    15     6     7    2
    16     7    11    1
    17    11    12   ar
    18    12    13   ar
    19    13    14   ar
    20    14    15   ar
    21    15    16   ar
    22     6     8   ar
    23     8     9   ar
    24     9    10    2
    25    21    17    1
    26     9     2   ar
    27    16    11   ar
@<TRIPOS>MOLECULE
*****
 25 27 0 0 0
SMALL
GASTEIGER

@<TRIPOS>ATOM
      1 C           4.1828   -2.1209   19.5814 C.2     1  UNK1        0.0408
      2 C           5.0804   -2.5040   20.7206 C.ar    1  UNK1        0.1434
      3 N           6.0580   -1.5091   21.2725 N.ar    1  UNK1       -0.2016
      4 C           6.9555   -1.8922   22.4116 C.ar    2  PHE2        0.2971
      5 O           7.9331   -0.8973   22.9635 O.2     2  PHE2       -0.2635
      6 CA          6.8754   -3.2701   22.9989 C.ar    2  PHE2        0.1422
      7 CB          7.7730   -3.6531   24.1381 C.2     2  PHE2        0.0241
      8 N           5.8979   -4.2650   22.4471 N.ar    2  PHE2       -0.2017
      9 C           5.0003   -3.8819   21.3079 C.ar    1  UNK1        0.2972
     10 O           4.0227   -4.8768   20.7561 O.2     1  UNK1       -0.2635
     11 CG          7.6930   -5.0311   24.7254 C.ar    2  PHE2        0.0017
     12 CD1         6.9519   -5.2570   26.0098 C.ar    2  PHE2        0.0001
     13 CE1         6.8718   -6.6349   26.5971 C.ar    2  PHE2        0.0000
     14 CZ          7.5329   -7.7869   25.9000 C.ar    2  PHE2        0.0000
     15 CE2         8.2740   -7.5610   24.6156 C.ar    2  PHE2        0.0000
     16 CD2         8.3541   -6.1830   24.0283 C.ar    2  PHE2        0.0001
     17 C           4.2629   -0.7430   18.9941 C.2     1  UNK1        0.0846
     18 N           5.2501   -0.2795   17.9644 N.2     1  UNK1       -0.2267
     19 C           4.9671    1.1633   17.6673 C.2     1  UNK1        0.1942
     20 N           3.8050    1.5915   18.5134 N.2     1  UNK1       -0.2460
     21 C           3.3697    0.4133   19.3335 C.3     1  UNK1        0.1446
     22 C           2.2397    0.3948   20.3197 C.3     1  UNK1        0.0261
     23 C           1.2768    0.0904   19.2107 C.3     1  UNK1        0.0023
     24 C           3.2026    0.6992   21.4288 C.3     1  UNK1        0.0023
     25 C           1.1097    0.3762   21.3060 C.3     1  UNK1        0.0023
@<TRIPOS>BOND
     1     1    17    1
     2    17    18    2
     3    18    19    1
     4    19    20    2
     5    20    21    1
     6    21    22    1
     7    22    23    1
     8    22    24    1
     9    22    25    1
    10     1     2    2
    11     2     3   ar
    12     3     4   ar
    13     4     5    2
    14     4     6   ar
    15     6     7    2
    16     7    11    1
    17    11    12   ar
    18    12    13   ar
    19    13    14   ar
    20    14    15   ar
    21    15    16   ar
    22     6     8   ar
    23     8     9   ar
    24     9    10    2
    25    21    17    1
    26     9     2   ar
    27    16    11   ar
@<TRIPOS>MOLECULE
*****
 25 27 0 0 0
SMALL
GASTEIGER

@<TRIPOS>ATOM
      1 C          -4.5922  -19.6370   20.4266 C.2     1  UNK1        0.0408
      2 C          -5.6517  -18.9256   21.2149 C.ar    1  UNK1        0.1434
      3 N          -5.2623  -17.9813   22.3133 N.ar    1  UNK1       -0.2016
      4 C          -6.3218  -17.2700   23.1015 C.ar    2  PHE2        0.2971
      5 O          -5.9324  -16.3257   24.2001 O.2     2  PHE2       -0.2635
      6 CA         -7.7708  -17.5029   22.7912 C.ar    2  PHE2        0.1422
      7 CB         -8.8304  -16.7914   23.5795 C.2     2  PHE2        0.0241
      8 N          -8.1602  -18.4471   21.6928 N.ar    2  PHE2       -0.2017
      9 C          -7.1007  -19.1584   20.9046 C.ar    1  UNK1        0.2972
     10 O          -7.4901  -20.1027   19.8060 O.2     1  UNK1       -0.2635
     11 CG        -10.2793  -17.0243   23.2692 C.ar    2  PHE2        0.0017
     12 CD1       -11.0441  -18.0819   24.0085 C.ar    2  PHE2        0.0001
     13 CE1       -12.4930  -18.3147   23.6982 C.ar    2  PHE2        0.0000
     14 CZ        -13.1772  -17.4900   22.6486 C.ar    2  PHE2        0.0000
     15 CE2       -12.4125  -16.4324   21.9093 C.ar    2  PHE2        0.0000
     16 CD2       -10.9635  -16.1995   22.2195 C.ar    2  PHE2        0.0001
     17 C          -3.1432  -19.4041   20.7369 C.2     1  UNK1        0.0846
     18 N          -2.3360  -20.1284   21.7732 N.2     1  UNK1       -0.2267
     19 C          -0.9409  -19.5780   21.7421 C.2     1  UNK1        0.1942
     20 N          -0.8860  -18.5136   20.6867 N.2     1  UNK1       -0.2460
     21 C          -2.2470  -18.4062   20.0654 C.3     1  UNK1        0.1446
     22 C          -2.6425  -17.4658   18.9657 C.3     1  UNK1        0.0261
     23 C          -2.2159  -18.4793   17.9456 C.3     1  UNK1        0.0023
     24 C          -3.0691  -16.4522   19.9858 C.3     1  UNK1        0.0023
     25 C          -3.0380  -16.5254   17.8660 C.3     1  UNK1        0.0023
@<TRIPOS>BOND
     1     1    17    1
     2    17    18    2
     3    18    19    1
     4    19    20    2
     5    20    21    1
     6    21    22    1
     7    22    23    1
     8    22    24    1
     9    22    25    1
    10     1     2    2
    11     2     3   ar
    12     3     4   ar
    13     4     5    2
    14     4     6   ar
    15     6     7    2
    16     7    11    1
    17    11    12   ar
    18    12    13   ar
    19    13    14   ar
    20    14    15   ar
    21    15    16   ar
    22     6     8   ar
    23     8     9   ar
    24     9    10    2
    25    21    17    1
    26     9     2   ar
    27    16    11   ar
@<TRIPOS>MOLECULE
*****
 25 27 0 0 0
SMALL
GASTEIGER

@<TRIPOS>ATOM
      1 C           6.5390   -3.6162   24.4529 C.2     1  UNK1        0.0408
      2 C           5.7242   -3.2878   23.2370 C.ar    1  UNK1        0.1434
      3 N           5.6665   -4.2525   22.0899 N.ar    1  UNK1       -0.2016
      4 C           4.8516   -3.9241   20.8741 C.ar    2  PHE2        0.2971
      5 O           4.7939   -4.8888   19.7269 O.2     2  PHE2       -0.2635
      6 CA          4.0945   -2.6310   20.8055 C.ar    2  PHE2        0.1422
      7 CB          3.2797   -2.3026   19.5896 C.2     2  PHE2        0.0241
      8 N           4.1522   -1.6663   21.9527 N.ar    2  PHE2       -0.2017
      9 C           4.9671   -1.9947   23.1684 C.ar    1  UNK1        0.2972
     10 O           5.0248   -1.0300   24.3157 O.2     1  UNK1       -0.2635
     11 CG          2.5226   -1.0095   19.5210 C.ar    2  PHE2        0.0017
     12 CD1         3.0693    0.1384   18.7253 C.ar    2  PHE2        0.0001
     13 CE1         2.3122    1.4315   18.6567 C.ar    2  PHE2        0.0000
     14 CZ          1.0083    1.5767   19.3838 C.ar    2  PHE2        0.0000
     15 CE2         0.4615    0.4287   20.1796 C.ar    2  PHE2        0.0000
     16 CD2         1.2186   -0.8644   20.2482 C.ar    2  PHE2        0.0001
     17 C           7.2961   -4.9093   24.5215 C.2     1  UNK1        0.0846
     18 N           7.6611   -5.7802   23.3561 N.2     1  UNK1       -0.2267
     19 C           8.4117   -6.9677   23.8819 C.2     1  UNK1        0.1942
     20 N           8.5107   -6.8307   25.3723 N.2     1  UNK1       -0.2460
     21 C           7.8213   -5.5585   25.7676 C.3     1  UNK1        0.1446
     22 C           7.6815   -5.0286   27.1639 C.3     1  UNK1        0.0261
     23 C           8.9683   -4.2742   27.0065 C.3     1  UNK1        0.0023
     24 C           6.3946   -5.7830   27.3214 C.3     1  UNK1        0.0023
     25 C           7.5416   -4.4987   28.5603 C.3     1  UNK1        0.0023
@<TRIPOS>BOND
     1     1    17    1
     2    17    18    2
     3    18    19    1
     4    19    20    2
     5    20    21    1
     6    21    22    1
     7    22    23    1
     8    22    24    1
     9    22    25    1
    10     1     2    2
    11     2     3   ar
    12     3     4   ar
    13     4     5    2
    14     4     6   ar
    15     6     7    2
    16     7    11    1
    17    11    12   ar
    18    12    13   ar
    19    13    14   ar
    20    14    15   ar
    21    15    16   ar
    22     6     8   ar
    23     8     9   ar
    24     9    10    2
    25    21    17    1
    26     9     2   ar
    27    16    11   ar
@<TRIPOS>MOLECULE
*****
 25 27 0 0 0
SMALL
GASTEIGER

@<TRIPOS>ATOM
      1 C           2.2067   -1.1489   19.8053 C.2     1  UNK1        0.0408
      2 C           2.2000   -0.6412   21.2168 C.ar    1  UNK1        0.1434
      3 N           3.2667   -1.0787   22.1763 N.ar    1  UNK1       -0.2016
      4 C           3.2600   -0.5709   23.5877 C.ar    2  PHE2        0.2971
      5 O           4.3267   -1.0084   24.5473 O.2     2  PHE2       -0.2635
      6 CA          2.1865    0.3744   24.0396 C.ar    2  PHE2        0.1422
      7 CB          2.1798    0.8822   25.4510 C.2     2  PHE2        0.0241
      8 N           1.1199    0.8119   23.0801 N.ar    2  PHE2       -0.2017
      9 C           1.1266    0.3041   21.6687 C.ar    1  UNK1        0.2972
     10 O           0.0599    0.7416   20.7091 O.2     1  UNK1       -0.2635
     11 CG          1.1064    1.8274   25.9029 C.ar    2  PHE2        0.0017
     12 CD1         1.2781    3.3050   25.7097 C.ar    2  PHE2        0.0001
     13 CE1         0.2047    4.2502   26.1616 C.ar    2  PHE2        0.0000
     14 CZ         -1.0405    3.7180   26.8067 C.ar    2  PHE2        0.0000
     15 CE2        -1.2123    2.2404   27.0000 C.ar    2  PHE2        0.0000
     16 CD2        -0.1388    1.2951   26.5481 C.ar    2  PHE2        0.0001
     17 C           3.2802   -2.0942   19.3534 C.2     1  UNK1        0.0846
     18 N           3.3113   -3.5741   19.5963 N.2     1  UNK1       -0.2267
     19 C           4.5613   -4.1201   18.9723 C.2     1  UNK1        0.1942
     20 N           5.3028   -2.9776   18.3438 N.2     1  UNK1       -0.2460
     21 C           4.5110   -1.7256   18.5793 C.3     1  UNK1        0.1446
     22 C           4.8844   -0.3470   18.1211 C.3     1  UNK1        0.0261
     23 C           4.1488   -0.5754   16.8341 C.3     1  UNK1        0.0023
     24 C           5.6201   -0.1185   19.4082 C.3     1  UNK1        0.0023
     25 C           5.2579    1.0317   17.6630 C.3     1  UNK1        0.0023
@<TRIPOS>BOND
     1     1    17    1
     2    17    18    2
     3    18    19    1
     4    19    20    2
     5    20    21    1
     6    21    22    1
     7    22    23    1
     8    22    24    1
     9    22    25    1
    10     1     2    2
    11     2     3   ar
    12     3     4   ar
    13     4     5    2
    14     4     6   ar
    15     6     7    2
    16     7    11    1
    17    11    12   ar
    18    12    13   ar
    19    13    14   ar
    20    14    15   ar
    21    15    16   ar
    22     6     8   ar
    23     8     9   ar
    24     9    10    2
    25    21    17    1
    26     9     2   ar
    27    16    11   ar
@<TRIPOS>MOLECULE
*****
 25 27 0 0 0
SMALL
GASTEIGER

@<TRIPOS>ATOM
      1 C           1.3189    1.1699   25.3092 C.2     1  UNK1        0.0408
      2 C           1.5242    0.7038   23.8982 C.ar    1  UNK1        0.1434
      3 N           0.5196    1.0512   22.8399 N.ar    1  UNK1       -0.2016
      4 C           0.7249    0.5852   21.4291 C.ar    2  PHE2        0.2971
      5 O          -0.2798    0.9326   20.3707 O.2     2  PHE2       -0.2635
      6 CA          1.9348   -0.2283   21.0765 C.ar    2  PHE2        0.1422
      7 CB          2.1400   -0.6944   19.6655 C.2     2  PHE2        0.0241
      8 N           2.9394   -0.5758   22.1348 N.ar    2  PHE2       -0.2017
      9 C           2.7341   -0.1097   23.5456 C.ar    1  UNK1        0.2972
     10 O           3.7387   -0.4572   24.6040 O.2     1  UNK1       -0.2635
     11 CG          3.3499   -1.5079   19.3129 C.ar    2  PHE2        0.0017
     12 CD1         4.5959   -0.8277   18.8285 C.ar    2  PHE2        0.0001
     13 CE1         5.8058   -1.6412   18.4759 C.ar    2  PHE2        0.0000
     14 CZ          5.7697   -3.1350   18.6078 C.ar    2  PHE2        0.0000
     15 CE2         4.5237   -3.8152   19.0922 C.ar    2  PHE2        0.0000
     16 CD2         3.3138   -3.0017   19.4448 C.ar    2  PHE2        0.0001
     17 C           0.1090    1.9834   25.6618 C.2     1  UNK1        0.0846
     18 N          -0.7330    2.7723   24.7033 N.2     1  UNK1       -0.2267
     19 C          -1.8337    3.4273   25.4839 C.2     1  UNK1        0.1942
     20 N          -1.6721    3.0432   26.9248 N.2     1  UNK1       -0.2460
     21 C          -0.4714    2.1508   27.0347 C.3     1  UNK1        0.1446
     22 C           0.0562    1.5341   28.2962 C.3     1  UNK1        0.0261
     23 C           0.9629    2.7126   28.4932 C.3     1  UNK1        0.0023
     24 C          -0.8506    0.3555   28.0993 C.3     1  UNK1        0.0023
     25 C           0.5837    0.9173   29.5577 C.3     1  UNK1        0.0023
@<TRIPOS>BOND
     1     1    17    1
     2    17    18    2
     3    18    19    1
     4    19    20    2
     5    20    21    1
     6    21    22    1
     7    22    23    1
     8    22    24    1
     9    22    25    1
    10     1     2    2
    11     2     3   ar
    12     3     4   ar
    13     4     5    2
    14     4     6   ar
    15     6     7    2
    16     7    11    1
    17    11    12   ar
    18    12    13   ar
    19    13    14   ar
    20    14    15   ar
    21    15    16   ar
    22     6     8   ar
    23     8     9   ar
    24     9    10    2
    25    21    17    1
    26     9     2   ar
    27    16    11   ar
@<TRIPOS>MOLECULE
*****
 25 27 0 0 0
SMALL
GASTEIGER

@<TRIPOS>ATOM
      1 C           2.8846    2.7947   35.4871 C.2     1  UNK1        0.0408
      2 C           2.7580    2.0622   34.1842 C.ar    1  UNK1        0.1434
      3 N           3.6088    0.8563   33.9161 N.ar    1  UNK1       -0.2016
      4 C           3.4822    0.1238   32.6133 C.ar    2  PHE2        0.2971
      5 O           4.3330   -1.0821   32.3451 O.2     2  PHE2       -0.2635
      6 CA          2.5048    0.5972   31.5786 C.ar    2  PHE2        0.1422
      7 CB          2.3782   -0.1353   30.2757 C.2     2  PHE2        0.0241
      8 N           1.6540    1.8031   31.8467 N.ar    2  PHE2       -0.2017
      9 C           1.7806    2.5356   33.1496 C.ar    1  UNK1        0.2972
     10 O           0.9298    3.7416   33.4178 O.2     1  UNK1       -0.2635
     11 CG          1.4008    0.3381   29.2410 C.ar    2  PHE2        0.0017
     12 CD1         0.0019   -0.2031   29.2275 C.ar    2  PHE2        0.0001
     13 CE1        -0.9754    0.2703   28.1928 C.ar    2  PHE2        0.0000
     14 CZ         -0.5540    1.2850   27.1717 C.ar    2  PHE2        0.0000
     15 CE2         0.8449    1.8263   27.1852 C.ar    2  PHE2        0.0000
     16 CD2         1.8223    1.3529   28.2199 C.ar    2  PHE2        0.0001
     17 C           3.8620    2.3213   36.5218 C.2     1  UNK1        0.0846
     18 N           5.3201    2.0494   36.2983 N.2     1  UNK1       -0.2267
     19 C           5.9122    1.5967   37.6000 C.2     1  UNK1        0.1942
     20 N           4.8200    1.5888   38.6281 N.2     1  UNK1       -0.2460
     21 C           3.5529    2.0367   37.9618 C.3     1  UNK1        0.1446
     22 C           2.2121    2.1755   38.6199 C.3     1  UNK1        0.0261
     23 C           2.0062    0.6936   38.5128 C.3     1  UNK1        0.0023
     24 C           2.4181    3.6574   38.7269 C.3     1  UNK1        0.0023
     25 C           0.8714    2.3143   39.2780 C.3     1  UNK1        0.0023
@<TRIPOS>BOND
     1     1    17    1
     2    17    18    2
     3    18    19    1
     4    19    20    2
     5    20    21    1
     6    21    22    1
     7    22    23    1
     8    22    24    1
     9    22    25    1
    10     1     2    2
    11     2     3   ar
    12     3     4   ar
    13     4     5    2
    14     4     6   ar
    15     6     7    2
    16     7    11    1
    17    11    12   ar
    18    12    13   ar
    19    13    14   ar
    20    14    15   ar
    21    15    16   ar
    22     6     8   ar
    23     8     9   ar
    24     9    10    2
    25    21    17    1
    26     9     2   ar
    27    16    11   ar
@<TRIPOS>MOLECULE
*****
 25 27 0 0 0
SMALL
GASTEIGER

@<TRIPOS>ATOM
      1 C           3.7682   -0.9839   21.4992 C.2     1  UNK1        0.0408
      2 C           2.8333   -0.2567   22.4197 C.ar    1  UNK1        0.1434
      3 N           1.7817    0.6523   21.8560 N.ar    1  UNK1       -0.2016
      4 C           0.8470    1.3794   22.7765 C.ar    2  PHE2        0.2971
      5 O          -0.2047    2.2884   22.2128 O.2     2  PHE2       -0.2635
      6 CA          0.9639    1.1976   24.2609 C.ar    2  PHE2        0.1422
      7 CB          0.0291    1.9248   25.1815 C.2     2  PHE2        0.0241
      8 N           2.0155    0.2887   24.8247 N.ar    2  PHE2       -0.2017
      9 C           2.9502   -0.4385   23.9041 C.ar    1  UNK1        0.2972
     10 O           4.0019   -1.3475   24.4679 O.2     1  UNK1       -0.2635
     11 CG          0.1459    1.7430   26.6658 C.ar    2  PHE2        0.0017
     12 CD1         1.0486    2.6379   27.4622 C.ar    2  PHE2        0.0001
     13 CE1         1.1655    2.4561   28.9466 C.ar    2  PHE2        0.0000
     14 CZ          0.3797    1.3794   29.6345 C.ar    2  PHE2        0.0000
     15 CE2        -0.5231    0.4845   28.8381 C.ar    2  PHE2        0.0000
     16 CD2        -0.6399    0.6663   27.3537 C.ar    2  PHE2        0.0001
     17 C           3.6513   -0.8021   20.0148 C.2     1  UNK1        0.0846
     18 N           3.1197    0.4132   19.3145 N.2     1  UNK1       -0.2267
     19 C           3.1853    0.1628   17.8370 C.2     1  UNK1        0.1942
     20 N           3.7575   -1.2074   17.6242 N.2     1  UNK1       -0.2460
     21 C           4.0455   -1.8036   18.9701 C.3     1  UNK1        0.1446
     22 C           4.6258   -3.1629   19.2263 C.3     1  UNK1        0.0261
     23 C           6.0077   -2.5813   19.1822 C.3     1  UNK1        0.0023
     24 C           3.2439   -3.7446   19.2705 C.3     1  UNK1        0.0023
     25 C           5.2060   -4.5222   19.4825 C.3     1  UNK1        0.0023
@<TRIPOS>BOND
     1     1    17    1
     2    17    18    2
     3    18    19    1
     4    19    20    2
     5    20    21    1
     6    21    22    1
     7    22    23    1
     8    22    24    1
     9    22    25    1
    10     1     2    2
    11     2     3   ar
    12     3     4   ar
    13     4     5    2
    14     4     6   ar
    15     6     7    2
    16     7    11    1
    17    11    12   ar
    18    12    13   ar
    19    13    14   ar
    20    14    15   ar
    21    15    16   ar
    22     6     8   ar
    23     8     9   ar
    24     9    10    2
    25    21    17    1
    26     9     2   ar
    27    16    11   ar
@<TRIPOS>MOLECULE
*****
 25 27 0 0 0
SMALL
GASTEIGER

@<TRIPOS>ATOM
      1 C           3.0022   -1.3279   20.5948 C.2     1  UNK1        0.0408
      2 C           3.3072   -1.2639   22.0622 C.ar    1  UNK1        0.1434
      3 N           4.3778   -2.1384   22.6445 N.ar    1  UNK1       -0.2016
      4 C           4.6827   -2.0744   24.1117 C.ar    2  PHE2        0.2971
      5 O           5.7534   -2.9489   24.6941 O.2     2  PHE2       -0.2635
      6 CA          3.9171   -1.1360   24.9967 C.ar    2  PHE2        0.1422
      7 CB          4.2221   -1.0721   26.4640 C.2     2  PHE2        0.0241
      8 N           2.8465   -0.2616   24.4144 N.ar    2  PHE2       -0.2017
      9 C           2.5415   -0.3255   22.9471 C.ar    1  UNK1        0.2972
     10 O           1.4709    0.5489   22.3648 O.2     1  UNK1       -0.2635
     11 CG          3.4564   -0.1337   27.3490 C.ar    2  PHE2        0.0017
     12 CD1         3.7774    1.3315   27.3443 C.ar    2  PHE2        0.0001
     13 CE1         3.0117    2.2699   28.2292 C.ar    2  PHE2        0.0000
     14 CZ          1.9251    1.7431   29.1189 C.ar    2  PHE2        0.0000
     15 CE2         1.6040    0.2778   29.1236 C.ar    2  PHE2        0.0000
     16 CD2         2.3697   -0.6606   28.2387 C.ar    2  PHE2        0.0001
     17 C           3.7679   -2.2663   19.7099 C.2     1  UNK1        0.0846
     18 N           3.7688   -3.7633   19.8037 N.2     1  UNK1       -0.2267
     19 C           4.6686   -4.2947   18.7275 C.2     1  UNK1        0.1942
     20 N           5.2237   -3.1260   17.9686 N.2     1  UNK1       -0.2460
     21 C           4.6671   -1.8724   18.5757 C.3     1  UNK1        0.1446
     22 C           4.9585   -0.4709   18.1274 C.3     1  UNK1        0.0261
     23 C           3.8652   -0.5705   17.1054 C.3     1  UNK1        0.0023
     24 C           6.0519   -0.3713   19.1494 C.3     1  UNK1        0.0023
     25 C           5.2499    0.9306   17.6791 C.3     1  UNK1        0.0023
@<TRIPOS>BOND
     1     1    17    1
     2    17    18    2
     3    18    19    1
     4    19    20    2
     5    20    21    1
     6    21    22    1
     7    22    23    1
     8    22    24    1
     9    22    25    1
    10     1     2    2
    11     2     3   ar
    12     3     4   ar
    13     4     5    2
    14     4     6   ar
    15     6     7    2
    16     7    11    1
    17    11    12   ar
    18    12    13   ar
    19    13    14   ar
    20    14    15   ar
    21    15    16   ar
    22     6     8   ar
    23     8     9   ar
    24     9    10    2
    25    21    17    1
    26     9     2   ar
    27    16    11   ar
