@<TRIPOS>MOLECULE
*****
 20 22 0 0 0
SMALL
GASTEIGER

@<TRIPOS>ATOM
      1 C          -7.5458  -17.5643   22.7280 C.3     1  UNL1        0.0364
      2 C          -6.5642  -16.5841   23.2987 C.3     1  UNL1        0.0236
      3 C          -5.8310  -15.4981   24.0288 C.3     1  UNL1        0.0690
      4 N          -6.8141  -14.7875   24.9111 N.3     1  UNL1       -0.2972
      5 C          -8.1549  -15.4342   24.7263 C.3     1  UNL1        0.0727
      6 C          -8.0004  -16.5446   23.7297 C.3     1  UNL1        0.0372
      7 H          -6.8656  -13.8030   24.6493 H       1  UNL1        0.1233
      8 C          -9.4362  -16.9781   23.7542 C.ar    1  UNL1       -0.0205
      9 C          -9.8490  -18.1593   24.5815 C.ar    1  UNL1       -0.0033
     10 C         -11.2848  -18.5928   24.6061 C.ar    1  UNL1        0.0119
     11 C         -12.3077  -17.8452   23.8033 C.ar    1  UNL1        0.0682
     12 CL        -13.7435  -18.2788   23.8278 Cl      1  UNL1       -0.0814
     13 C         -11.8950  -16.6640   22.9760 C.ar    1  UNL1        0.0679
     14 CL        -12.9180  -15.9164   22.1732 Cl      1  UNL1       -0.0814
     15 C         -10.4592  -16.2305   22.9515 C.ar    1  UNL1        0.0080
     16 C          -7.8500  -18.7190   21.8202 C.3     1  UNL1        0.1424
     17 O          -8.6187  -18.4937   20.5520 O.3     1  UNL1       -0.3562
     18 C         -10.6447  -19.9543   21.2676 C.3     1  UNL1        0.0320
     19 C         -10.0885  -18.7896   20.5033 C.3     1  UNL1        0.1154
     20 C         -11.0020  -17.9210   19.6904 C.3     1  UNL1        0.0320
@<TRIPOS>BOND
     1    18    19    1
     2    19    20    1
     3    19    17    1
     4    17    16    1
     5     1    16    1
     6     1     2    1
     7     2     3    1
     8     3     4    1
     9     4     5    1
    10     5     6    1
    11     6     8    1
    12     8     9   ar
    13     9    10   ar
    14    10    11   ar
    15    11    12    1
    16    11    13   ar
    17    13    14    1
    18    13    15   ar
    19     6     1    1
    20    15     8   ar
    21     6     2    1
    22     4     7    1
@<TRIPOS>MOLECULE
*****
 20 22 0 0 0
SMALL
GASTEIGER

@<TRIPOS>ATOM
      1 C          -7.2009  -17.3373   22.7302 C.3     1  UNL1        0.0364
      2 C          -6.2856  -16.3931   23.4517 C.3     1  UNL1        0.0236
      3 C          -5.6322  -15.3596   24.3205 C.3     1  UNL1        0.0690
      4 N          -6.6940  -14.7351   25.1764 N.3     1  UNL1       -0.2972
      5 C          -8.0037  -15.3826   24.8365 C.3     1  UNL1        0.0727
      6 C          -7.7512  -16.4073   23.7705 C.3     1  UNL1        0.0372
      7 H          -6.7443  -13.7335   24.9898 H       1  UNL1        0.1233
      8 C          -9.1759  -16.8604   23.6481 C.ar    1  UNL1       -0.0205
      9 C          -9.7127  -17.9070   24.5789 C.ar    1  UNL1       -0.0033
     10 C         -11.1374  -18.3601   24.4565 C.ar    1  UNL1        0.0119
     11 C         -12.0252  -17.7666   23.4032 C.ar    1  UNL1        0.0682
     12 CL        -13.4499  -18.2197   23.2807 Cl      1  UNL1       -0.0814
     13 C         -11.4884  -16.7201   22.4723 C.ar    1  UNL1        0.0679
     14 CL        -12.3763  -16.1266   21.4189 Cl      1  UNL1       -0.0814
     15 C         -10.0637  -16.2670   22.5948 C.ar    1  UNL1        0.0080
     16 C          -7.4117  -18.4193   21.7130 C.3     1  UNL1        0.1424
     17 O          -6.6219  -18.4141   20.4378 O.3     1  UNL1       -0.3562
     18 C          -4.1889  -19.0430   19.7783 C.3     1  UNL1        0.0320
     19 C          -5.5668  -19.4546   20.2048 C.3     1  UNL1        0.1154
     20 C          -5.8896  -20.9066   20.3984 C.3     1  UNL1        0.0320
@<TRIPOS>BOND
     1    18    19    1
     2    19    20    1
     3    19    17    1
     4    17    16    1
     5     1    16    1
     6     1     2    1
     7     2     3    1
     8     3     4    1
     9     4     5    1
    10     5     6    1
    11     6     8    1
    12     8     9   ar
    13     9    10   ar
    14    10    11   ar
    15    11    12    1
    16    11    13   ar
    17    13    14    1
    18    13    15   ar
    19     6     1    1
    20    15     8   ar
    21     6     2    1
    22     4     7    1
@<TRIPOS>MOLECULE
*****
 20 22 0 0 0
SMALL
GASTEIGER

@<TRIPOS>ATOM
      1 C          -7.0352  -19.4067   20.0491 C.3     1  UNL1        0.0364
      2 C          -5.5412  -19.2811   20.0024 C.3     1  UNL1        0.0236
      3 C          -4.0754  -19.0979   20.2627 C.3     1  UNL1        0.0690
      4 N          -3.8978  -18.7966   21.7213 N.3     1  UNL1       -0.2972
      5 C          -5.2538  -18.7934   22.3625 C.3     1  UNL1        0.0727
      6 C          -6.2696  -19.0929   21.3002 C.3     1  UNL1        0.0372
      7 H          -3.4590  -17.8828   21.8351 H       1  UNL1        0.1233
      8 C          -7.4656  -19.0242   22.2029 C.ar    1  UNL1       -0.0205
      9 C          -8.0268  -20.2800   22.8011 C.ar    1  UNL1       -0.0033
     10 C          -9.2228  -20.2113   23.7038 C.ar    1  UNL1        0.0119
     11 C          -9.8575  -18.8868   24.0083 C.ar    1  UNL1        0.0682
     12 CL        -11.0535  -18.8181   24.9110 Cl      1  UNL1       -0.0814
     13 C          -9.2962  -17.6310   23.4101 C.ar    1  UNL1        0.0679
     14 CL         -9.9309  -16.3064   23.7146 Cl      1  UNL1       -0.0814
     15 C          -8.1002  -17.6997   22.5074 C.ar    1  UNL1        0.0080
     16 C          -8.3398  -19.6605   19.3537 C.3     1  UNL1        0.1424
     17 O          -9.3424  -18.5537   19.2129 O.3     1  UNL1       -0.3562
     18 C         -11.0454  -19.8480   20.6874 C.3     1  UNL1        0.0320
     19 C         -10.6044  -18.5774   20.0233 C.3     1  UNL1        0.1154
     20 C         -11.4254  -17.3305   20.1697 C.3     1  UNL1        0.0320
@<TRIPOS>BOND
     1    18    19    1
     2    19    20    1
     3    19    17    1
     4    17    16    1
     5     1    16    1
     6     1     2    1
     7     2     3    1
     8     3     4    1
     9     4     5    1
    10     5     6    1
    11     6     8    1
    12     8     9   ar
    13     9    10   ar
    14    10    11   ar
    15    11    12    1
    16    11    13   ar
    17    13    14    1
    18    13    15   ar
    19     6     1    1
    20    15     8   ar
    21     6     2    1
    22     4     7    1
@<TRIPOS>MOLECULE
*****
 20 22 0 0 0
SMALL
GASTEIGER

@<TRIPOS>ATOM
      1 C          -7.5065  -16.8876   23.0171 C.3     1  UNL1        0.0364
      2 C          -6.4015  -17.8085   22.5916 C.3     1  UNL1        0.0236
      3 C          -5.5258  -18.9425   22.1476 C.3     1  UNL1        0.0690
      4 N          -6.3916  -20.1544   21.9694 N.3     1  UNL1       -0.2972
      5 C          -7.8024  -19.7694   22.3034 C.3     1  UNL1        0.0727
      6 C          -7.8085  -18.3196   22.6880 C.3     1  UNL1        0.0372
      7 H          -6.0787  -20.8981   22.5935 H       1  UNL1        0.1233
      8 C          -9.2824  -18.2339   22.9532 C.ar    1  UNL1       -0.0205
      9 C          -9.8285  -18.6375   24.2906 C.ar    1  UNL1       -0.0033
     10 C         -11.3024  -18.5519   24.5558 C.ar    1  UNL1        0.0119
     11 C         -12.2301  -18.0626   23.4835 C.ar    1  UNL1        0.0682
     12 CL        -13.7040  -17.9770   23.7487 Cl      1  UNL1       -0.0814
     13 C         -11.6840  -17.6590   22.1461 C.ar    1  UNL1        0.0679
     14 CL        -12.6118  -17.1697   21.0737 Cl      1  UNL1       -0.0814
     15 C         -10.2101  -17.7446   21.8809 C.ar    1  UNL1        0.0080
     16 C          -7.9700  -15.5292   23.4527 C.3     1  UNL1        0.1424
     17 O          -8.4993  -15.3270   24.8416 O.3     1  UNL1       -0.3562
     18 C          -8.2853  -16.4731   27.1633 C.3     1  UNL1        0.0320
     19 C          -7.6654  -15.7167   26.0260 C.3     1  UNL1        0.1154
     20 C          -6.2117  -15.3499   26.0731 C.3     1  UNL1        0.0320
@<TRIPOS>BOND
     1    18    19    1
     2    19    20    1
     3    19    17    1
     4    17    16    1
     5     1    16    1
     6     1     2    1
     7     2     3    1
     8     3     4    1
     9     4     5    1
    10     5     6    1
    11     6     8    1
    12     8     9   ar
    13     9    10   ar
    14    10    11   ar
    15    11    12    1
    16    11    13   ar
    17    13    14    1
    18    13    15   ar
    19     6     1    1
    20    15     8   ar
    21     6     2    1
    22     4     7    1
@<TRIPOS>MOLECULE
*****
 20 22 0 0 0
SMALL
GASTEIGER

@<TRIPOS>ATOM
      1 C          -9.0891  -18.0754   21.6769 C.3     1  UNL1        0.0364
      2 C         -10.4689  -17.9016   21.1149 C.3     1  UNL1        0.0236
      3 C         -11.8741  -17.5047   20.7716 C.3     1  UNL1        0.0690
      4 N         -12.2840  -16.4008   21.7007 N.3     1  UNL1       -0.2972
      5 C         -11.1322  -16.1155   22.6183 C.3     1  UNL1        0.0727
      6 C         -10.0104  -17.0431   22.2562 C.3     1  UNL1        0.0372
      7 H         -13.0966  -16.6903   22.2450 H       1  UNL1        0.1233
      8 C          -9.0511  -16.5419   23.2948 C.ar    1  UNL1       -0.0205
      9 C          -7.8795  -15.6979   22.8887 C.ar    1  UNL1       -0.0033
     10 C          -6.9202  -15.1968   23.9273 C.ar    1  UNL1        0.0119
     11 C          -7.1326  -15.5397   25.3720 C.ar    1  UNL1        0.0682
     12 CL         -6.1734  -15.0386   26.4106 Cl      1  UNL1       -0.0814
     13 C          -8.3042  -16.3837   25.7781 C.ar    1  UNL1        0.0679
     14 CL         -8.5166  -16.7266   27.2229 Cl      1  UNL1       -0.0814
     15 C          -9.2635  -16.8848   24.7395 C.ar    1  UNL1        0.0080
     16 C          -7.7606  -18.7717   21.6670 C.3     1  UNL1        0.1424
     17 O          -6.7370  -18.4197   20.6286 O.3     1  UNL1       -0.3562
     18 C          -4.3543  -18.9381   19.7319 C.3     1  UNL1        0.0320
     19 C          -5.6786  -19.4136   20.2516 C.3     1  UNL1        0.1154
     20 C          -5.9446  -20.8830   20.3942 C.3     1  UNL1        0.0320
@<TRIPOS>BOND
     1    18    19    1
     2    19    20    1
     3    19    17    1
     4    17    16    1
     5     1    16    1
     6     1     2    1
     7     2     3    1
     8     3     4    1
     9     4     5    1
    10     5     6    1
    11     6     8    1
    12     8     9   ar
    13     9    10   ar
    14    10    11   ar
    15    11    12    1
    16    11    13   ar
    17    13    14    1
    18    13    15   ar
    19     6     1    1
    20    15     8   ar
    21     6     2    1
    22     4     7    1
@<TRIPOS>MOLECULE
*****
 20 22 0 0 0
SMALL
GASTEIGER

@<TRIPOS>ATOM
      1 C          -9.1512  -18.7213   22.1055 C.3     1  UNL1        0.0364
      2 C         -10.0576  -18.3267   20.9774 C.3     1  UNL1        0.0236
      3 C         -10.9289  -17.6432   19.9656 C.3     1  UNL1        0.0690
      4 N         -10.9501  -16.1781   20.2867 N.3     1  UNL1       -0.2972
      5 C         -10.0920  -15.9562   21.4968 C.3     1  UNL1        0.0727
      6 C          -9.5404  -17.2841   21.9237 C.3     1  UNL1        0.0372
      7 H         -11.9061  -15.8801   20.4809 H       1  UNL1        0.1233
      8 C          -8.7636  -16.7618   23.0958 C.ar    1  UNL1       -0.0205
      9 C          -9.4027  -16.6996   24.4514 C.ar    1  UNL1       -0.0033
     10 C          -8.6259  -16.1772   25.6235 C.ar    1  UNL1        0.0119
     11 C          -7.2101  -15.7171   25.4400 C.ar    1  UNL1        0.0682
     12 CL         -6.4334  -15.1948   26.6121 Cl      1  UNL1       -0.0814
     13 C          -6.5711  -15.7794   24.0843 C.ar    1  UNL1        0.0679
     14 CL         -5.1552  -15.3192   23.9008 Cl      1  UNL1       -0.0814
     15 C          -7.3478  -16.3017   22.9122 C.ar    1  UNL1        0.0080
     16 C          -8.4031  -19.7788   22.8618 C.3     1  UNL1        0.1424
     17 O          -7.1657  -20.3886   22.2728 O.3     1  UNL1       -0.3562
     18 C          -4.9673  -19.0067   22.3578 C.3     1  UNL1        0.0320
     19 C          -6.1516  -19.5178   21.5921 C.3     1  UNL1        0.1154
     20 C          -6.3216  -19.1583   20.1458 C.3     1  UNL1        0.0320
@<TRIPOS>BOND
     1    18    19    1
     2    19    20    1
     3    19    17    1
     4    17    16    1
     5     1    16    1
     6     1     2    1
     7     2     3    1
     8     3     4    1
     9     4     5    1
    10     5     6    1
    11     6     8    1
    12     8     9   ar
    13     9    10   ar
    14    10    11   ar
    15    11    12    1
    16    11    13   ar
    17    13    14    1
    18    13    15   ar
    19     6     1    1
    20    15     8   ar
    21     6     2    1
    22     4     7    1
@<TRIPOS>MOLECULE
*****
 20 22 0 0 0
SMALL
GASTEIGER

@<TRIPOS>ATOM
      1 C          -7.0882  -16.9125   23.0190 C.3     1  UNL1        0.0364
      2 C          -5.9634  -17.8519   22.6993 C.3     1  UNL1        0.0236
      3 C          -5.0693  -18.9892   22.3026 C.3     1  UNL1        0.0690
      4 N          -5.9382  -20.1318   21.8676 N.3     1  UNL1       -0.2972
      5 C          -7.3693  -19.7008   21.9953 C.3     1  UNL1        0.0727
      6 C          -7.3848  -18.2917   22.5094 C.3     1  UNL1        0.0372
      7 H          -5.7667  -20.9429   22.4618 H       1  UNL1        0.1233
      8 C          -8.8779  -18.1490   22.5306 C.ar    1  UNL1       -0.0205
      9 C          -9.5923  -17.5640   21.3486 C.ar    1  UNL1       -0.0033
     10 C         -11.0854  -17.4213   21.3698 C.ar    1  UNL1        0.0119
     11 C         -11.8639  -17.8636   22.5731 C.ar    1  UNL1        0.0682
     12 CL        -13.3570  -17.7209   22.5944 Cl      1  UNL1       -0.0814
     13 C         -11.1495  -18.4487   23.7552 C.ar    1  UNL1        0.0679
     14 CL        -11.9282  -18.8911   24.9586 Cl      1  UNL1       -0.0814
     15 C          -9.6565  -18.5914   23.7339 C.ar    1  UNL1        0.0080
     16 C          -7.5664  -15.5738   23.4978 C.3     1  UNL1        0.1424
     17 O          -8.2551  -15.4541   24.8250 O.3     1  UNL1       -0.3562
     18 C          -6.0090  -15.3272   26.1245 C.3     1  UNL1        0.0320
     19 C          -7.4760  -15.6384   26.0935 C.3     1  UNL1        0.1154
     20 C          -8.1639  -16.1338   27.3310 C.3     1  UNL1        0.0320
@<TRIPOS>BOND
     1    18    19    1
     2    19    20    1
     3    19    17    1
     4    17    16    1
     5     1    16    1
     6     1     2    1
     7     2     3    1
     8     3     4    1
     9     4     5    1
    10     5     6    1
    11     6     8    1
    12     8     9   ar
    13     9    10   ar
    14    10    11   ar
    15    11    12    1
    16    11    13   ar
    17    13    14    1
    18    13    15   ar
    19     6     1    1
    20    15     8   ar
    21     6     2    1
    22     4     7    1
@<TRIPOS>MOLECULE
*****
 20 22 0 0 0
SMALL
GASTEIGER

@<TRIPOS>ATOM
      1 C          -7.2052  -19.2151   21.3350 C.3     1  UNL1        0.0364
      2 C          -8.0292  -19.5660   20.1318 C.3     1  UNL1        0.0236
      3 C          -9.0766  -19.7521   19.0743 C.3     1  UNL1        0.0690
      4 N         -10.3174  -19.0368   19.5200 N.3     1  UNL1       -0.2972
      5 C         -10.0370  -18.4087   20.8529 C.3     1  UNL1        0.0727
      6 C          -8.6227  -18.7357   21.2311 C.3     1  UNL1        0.0372
      7 H         -11.0876  -19.7001   19.6051 H       1  UNL1        0.1233
      8 C          -8.6386  -18.0074   22.5423 C.ar    1  UNL1       -0.0205
      9 C          -9.4227  -18.5577   23.6965 C.ar    1  UNL1       -0.0033
     10 C          -9.4386  -17.8294   25.0077 C.ar    1  UNL1        0.0119
     11 C          -8.6702  -16.5507   25.1646 C.ar    1  UNL1        0.0682
     12 CL         -8.6861  -15.8224   26.4759 Cl      1  UNL1       -0.0814
     13 C          -7.8861  -16.0004   24.0104 C.ar    1  UNL1        0.0679
     14 CL         -7.1177  -14.7217   24.1674 Cl      1  UNL1       -0.0814
     15 C          -7.8702  -16.7288   22.6992 C.ar    1  UNL1        0.0080
     16 C          -5.9110  -19.2892   22.0898 C.3     1  UNL1        0.1424
     17 O          -4.7728  -18.3860   21.7173 O.3     1  UNL1       -0.3562
     18 C          -2.5245  -19.6831   21.6060 C.3     1  UNL1        0.0320
     19 C          -3.6201  -18.9216   20.9207 C.3     1  UNL1        0.1154
     20 C          -3.5631  -18.6957   19.4389 C.3     1  UNL1        0.0320
@<TRIPOS>BOND
     1    18    19    1
     2    19    20    1
     3    19    17    1
     4    17    16    1
     5     1    16    1
     6     1     2    1
     7     2     3    1
     8     3     4    1
     9     4     5    1
    10     5     6    1
    11     6     8    1
    12     8     9   ar
    13     9    10   ar
    14    10    11   ar
    15    11    12    1
    16    11    13   ar
    17    13    14    1
    18    13    15   ar
    19     6     1    1
    20    15     8   ar
    21     6     2    1
    22     4     7    1
@<TRIPOS>MOLECULE
*****
 20 22 0 0 0
SMALL
GASTEIGER

@<TRIPOS>ATOM
      1 C          -5.4053  -18.4046   22.3291 C.3     1  UNL1        0.0364
      2 C          -4.1804  -19.0486   21.7504 C.3     1  UNL1        0.0236
      3 C          -3.1622  -19.8690   21.0154 C.3     1  UNL1        0.0690
      4 N          -3.8953  -20.8476   20.1465 N.3     1  UNL1       -0.2972
      5 C          -5.3664  -20.6321   20.3446 C.3     1  UNL1        0.0727
      6 C          -5.5427  -19.5201   21.3358 C.3     1  UNL1        0.0372
      7 H          -3.6462  -21.8005   20.4121 H       1  UNL1        0.1233
      8 C          -7.0425  -19.5378   21.3262 C.ar    1  UNL1       -0.0205
      9 C          -7.7885  -19.2060   20.0679 C.ar    1  UNL1       -0.0033
     10 C          -9.2883  -19.2236   20.0583 C.ar    1  UNL1        0.0119
     11 C         -10.0422  -19.5730   21.3070 C.ar    1  UNL1        0.0682
     12 CL        -11.5421  -19.5906   21.2974 Cl      1  UNL1       -0.0814
     13 C          -9.2963  -19.9048   22.5654 C.ar    1  UNL1        0.0679
     14 CL        -10.0503  -20.2543   23.8142 Cl      1  UNL1       -0.0814
     15 C          -7.7964  -19.8872   22.5750 C.ar    1  UNL1        0.0080
     16 C          -6.0332  -17.3886   23.2366 C.3     1  UNL1        0.1424
     17 O          -6.9237  -16.3238   22.6682 O.3     1  UNL1       -0.3562
     18 C          -9.3909  -16.0468   21.9028 C.3     1  UNL1        0.0320
     19 C          -8.3899  -16.3245   22.9849 C.3     1  UNL1        0.1154
     20 C          -8.8551  -16.6029   24.3834 C.3     1  UNL1        0.0320
@<TRIPOS>BOND
     1    18    19    1
     2    19    20    1
     3    19    17    1
     4    17    16    1
     5     1    16    1
     6     1     2    1
     7     2     3    1
     8     3     4    1
     9     4     5    1
    10     5     6    1
    11     6     8    1
    12     8     9   ar
    13     9    10   ar
    14    10    11   ar
    15    11    12    1
    16    11    13   ar
    17    13    14    1
    18    13    15   ar
    19     6     1    1
    20    15     8   ar
    21     6     2    1
    22     4     7    1
