@<TRIPOS>MOLECULE
*****
 28 30 0 0 0
SMALL
GASTEIGER

@<TRIPOS>ATOM
      1 C         -10.1892  -17.5611   22.9140 C.ar    1  UNL1        0.2446
      2 N         -10.9638  -16.2822   23.0350 N.ar    1  UNL1       -0.2078
      3 C         -11.6738  -15.7195   21.8396 C.ar    1  UNL1        0.1135
      4 C         -11.6093  -16.4355   20.5231 C.ar    1  UNL1        0.0783
      5 CL        -12.3194  -15.8728   19.3277 Cl      1  UNL1       -0.0806
      6 C         -10.8347  -17.7143   20.4021 C.ar    1  UNL1        0.0336
      7 C         -10.1246  -18.2771   21.5976 C.ar    1  UNL1        0.1190
      8 N          -9.3500  -19.5559   21.4765 N.pl3   1  UNL1       -0.2104
      9 H          -9.8250  -20.4173   21.4380 H       1  UNL1        0.1739
     10 S          -7.8517  -19.5221   21.4141 S.O2    1  UNL1        0.0737
     11 O          -7.9226  -18.7387   20.1369 O.2     1  UNL1       -0.1499
     12 O          -7.7808  -20.3056   22.6913 O.2     1  UNL1       -0.1499
     13 C          -6.3534  -19.4884   21.3516 C.ar    1  UNL1        0.1261
     14 C          -5.6299  -20.2525   20.2827 C.ar    1  UNL1        0.0211
     15 C          -4.1316  -20.2187   20.2202 C.ar    1  UNL1        0.0136
     16 C          -3.3567  -19.4209   21.2268 C.ar    1  UNL1        0.0683
     17 CL         -1.8584  -19.3872   21.1643 Cl      1  UNL1       -0.0814
     18 C          -4.0802  -18.6568   22.2958 C.ar    1  UNL1        0.0695
     19 CL         -3.3054  -17.8590   23.3023 Cl      1  UNL1       -0.0813
     20 C          -5.5786  -18.6905   22.3582 C.ar    1  UNL1        0.0324
     21 O          -9.4791  -18.1238   24.1095 O.3     1  UNL1       -0.4338
     22 C          -7.5453  -16.0647   23.0992 C.3     1  UNL1        0.0554
     23 C          -7.8234  -16.1750   24.5690 C.ar    1  UNL1        0.0938
     24 N          -7.1347  -15.2558   25.5337 N.ar    1  UNL1       -0.2451
     25 C          -7.4128  -15.3662   27.0036 C.ar    1  UNL1        0.0987
     26 C          -8.3797  -16.3957   27.5087 C.ar    1  UNL1        0.0238
     27 C          -9.0684  -17.3149   26.5440 C.ar    1  UNL1        0.0404
     28 C          -8.7903  -17.2045   25.0742 C.ar    1  UNL1        0.1607
@<TRIPOS>BOND
     1    22    23    1
     2    23    24   ar
     3    24    25   ar
     4    25    26   ar
     5    26    27   ar
     6    27    28   ar
     7    28    21    1
     8    21     1    1
     9     1     2   ar
    10     2     3   ar
    11     3     4   ar
    12     4     5    1
    13     4     6   ar
    14     6     7   ar
    15     7     8    1
    16     8    10    1
    17    10    11    2
    18    10    12    2
    19    10    13    1
    20    13    14   ar
    21    14    15   ar
    22    15    16   ar
    23    16    17    1
    24    16    18   ar
    25    18    19    1
    26    18    20   ar
    27    28    23   ar
    28     7     1   ar
    29    20    13   ar
    30     8     9    1
@<TRIPOS>MOLECULE
*****
 28 30 0 0 0
SMALL
GASTEIGER

@<TRIPOS>ATOM
      1 C          -9.7086  -17.2354   23.2875 C.ar    1  UNL1        0.2446
      2 N         -10.6630  -16.0926   23.1046 N.ar    1  UNL1       -0.2078
      3 C         -11.3601  -15.9008   21.7904 C.ar    1  UNL1        0.1135
      4 C         -11.1029  -16.8515   20.6591 C.ar    1  UNL1        0.0783
      5 CL        -11.8000  -16.6596   19.3448 Cl      1  UNL1       -0.0806
      6 C         -10.1485  -17.9942   20.8420 C.ar    1  UNL1        0.0336
      7 C          -9.4514  -18.1861   22.1562 C.ar    1  UNL1        0.1190
      8 N          -8.4970  -19.3288   22.3391 N.pl3   1  UNL1       -0.2104
      9 H          -8.8055  -20.1660   22.7554 H       1  UNL1        0.1739
     10 S          -7.0727  -19.1960   21.8878 S.O2    1  UNL1        0.0737
     11 O          -7.3925  -17.8672   21.2697 O.2     1  UNL1       -0.1499
     12 O          -6.7530  -20.5248   22.5059 O.2     1  UNL1       -0.1499
     13 C          -5.6484  -19.0632   21.4365 C.ar    1  UNL1        0.1261
     14 C          -5.2715  -19.4183   20.0288 C.ar    1  UNL1        0.0211
     15 C          -3.8472  -19.2855   19.5774 C.ar    1  UNL1        0.0136
     16 C          -2.7998  -18.7976   20.5339 C.ar    1  UNL1        0.0683
     17 CL         -1.3754  -18.6649   20.0826 Cl      1  UNL1       -0.0814
     18 C          -3.1766  -18.4425   21.9417 C.ar    1  UNL1        0.0695
     19 CL         -2.1292  -17.9547   22.8982 Cl      1  UNL1       -0.0813
     20 C          -4.6009  -18.5753   22.3930 C.ar    1  UNL1        0.0324
     21 O          -9.0115  -17.4272   24.6017 O.3     1  UNL1       -0.4338
     22 C          -8.5288  -16.6276   27.4526 C.3     1  UNL1        0.0554
     23 C          -7.5836  -16.1793   26.3776 C.ar    1  UNL1        0.0938
     24 N          -6.3970  -15.3313   26.7280 N.ar    1  UNL1       -0.2451
     25 C          -5.4518  -14.8831   25.6530 C.ar    1  UNL1        0.0987
     26 C          -5.6931  -15.2829   24.2276 C.ar    1  UNL1        0.0238
     27 C          -6.8797  -16.1309   23.8772 C.ar    1  UNL1        0.0404
     28 C          -7.8249  -16.5792   24.9522 C.ar    1  UNL1        0.1607
@<TRIPOS>BOND
     1    22    23    1
     2    23    24   ar
     3    24    25   ar
     4    25    26   ar
     5    26    27   ar
     6    27    28   ar
     7    28    21    1
     8    21     1    1
     9     1     2   ar
    10     2     3   ar
    11     3     4   ar
    12     4     5    1
    13     4     6   ar
    14     6     7   ar
    15     7     8    1
    16     8    10    1
    17    10    11    2
    18    10    12    2
    19    10    13    1
    20    13    14   ar
    21    14    15   ar
    22    15    16   ar
    23    16    17    1
    24    16    18   ar
    25    18    19    1
    26    18    20   ar
    27    28    23   ar
    28     7     1   ar
    29    20    13   ar
    30     8     9    1
@<TRIPOS>MOLECULE
*****
 28 30 0 0 0
SMALL
GASTEIGER

@<TRIPOS>ATOM
      1 C          -8.0323  -17.3890   21.8913 C.ar    1  UNL1        0.2446
      2 N          -9.1829  -16.4790   21.5778 N.ar    1  UNL1       -0.2078
      3 C         -10.3239  -16.9742   20.7394 C.ar    1  UNL1        0.1135
      4 C         -10.3143  -18.3793   20.2145 C.ar    1  UNL1        0.0783
      5 CL        -11.4553  -18.8745   19.3762 Cl      1  UNL1       -0.0806
      6 C          -9.1638  -19.2893   20.5279 C.ar    1  UNL1        0.0336
      7 C          -8.0227  -18.7941   21.3663 C.ar    1  UNL1        0.1190
      8 N          -6.8722  -19.7040   21.6797 N.pl3   1  UNL1       -0.2104
      9 H          -7.0367  -20.5776   22.1029 H       1  UNL1        0.1739
     10 S          -5.4712  -19.2830   21.3484 S.O2    1  UNL1        0.0737
     11 O          -5.0232  -19.6950   22.7194 O.2     1  UNL1       -0.1499
     12 O          -5.9192  -18.8711   19.9774 O.2     1  UNL1       -0.1499
     13 C          -4.0701  -18.8620   21.0171 C.ar    1  UNL1        0.1261
     14 C          -3.0352  -18.7817   22.0999 C.ar    1  UNL1        0.0211
     15 C          -1.6342  -18.3606   21.7686 C.ar    1  UNL1        0.0136
     16 C          -1.2680  -18.0200   20.3545 C.ar    1  UNL1        0.0683
     17 CL          0.1331  -17.5989   20.0232 Cl      1  UNL1       -0.0814
     18 C          -2.3029  -18.1003   19.2716 C.ar    1  UNL1        0.0695
     19 CL         -1.9367  -17.7596   17.8575 Cl      1  UNL1       -0.0813
     20 C          -3.7039  -18.5213   19.6029 C.ar    1  UNL1        0.0324
     21 O          -6.8913  -16.8938   22.7296 O.3     1  UNL1       -0.4338
     22 C          -4.7318  -15.4530   24.2332 C.3     1  UNL1        0.0554
     23 C          -6.0604  -15.7019   24.8835 C.ar    1  UNL1        0.0938
     24 N          -6.3092  -15.2305   26.2855 N.ar    1  UNL1       -0.2451
     25 C          -7.6378  -15.4794   26.9358 C.ar    1  UNL1        0.0987
     26 C          -8.7176  -16.1998   26.1841 C.ar    1  UNL1        0.0238
     27 C          -8.4687  -16.6713   24.7820 C.ar    1  UNL1        0.0404
     28 C          -7.1401  -16.4223   24.1317 C.ar    1  UNL1        0.1607
@<TRIPOS>BOND
     1    22    23    1
     2    23    24   ar
     3    24    25   ar
     4    25    26   ar
     5    26    27   ar
     6    27    28   ar
     7    28    21    1
     8    21     1    1
     9     1     2   ar
    10     2     3   ar
    11     3     4   ar
    12     4     5    1
    13     4     6   ar
    14     6     7   ar
    15     7     8    1
    16     8    10    1
    17    10    11    2
    18    10    12    2
    19    10    13    1
    20    13    14   ar
    21    14    15   ar
    22    15    16   ar
    23    16    17    1
    24    16    18   ar
    25    18    19    1
    26    18    20   ar
    27    28    23   ar
    28     7     1   ar
    29    20    13   ar
    30     8     9    1
@<TRIPOS>MOLECULE
*****
 28 30 0 0 0
SMALL
GASTEIGER

@<TRIPOS>ATOM
      1 C          -4.2985  -18.0334   23.6207 C.ar    1  UNL1        0.2446
      2 N          -3.5750  -17.7068   24.8935 N.ar    1  UNL1       -0.2078
      3 C          -4.1284  -16.6704   25.8260 C.ar    1  UNL1        0.1135
      4 C          -5.4053  -15.9605   25.4857 C.ar    1  UNL1        0.0783
      5 CL         -5.9587  -14.9241   26.4181 Cl      1  UNL1       -0.0806
      6 C          -6.1287  -16.2871   24.2129 C.ar    1  UNL1        0.0336
      7 C          -5.5753  -17.3236   23.2804 C.ar    1  UNL1        0.1190
      8 N          -6.2988  -17.6502   22.0077 N.pl3   1  UNL1       -0.2104
      9 H          -5.7915  -17.7959   21.1766 H       1  UNL1        0.1739
     10 S          -7.7951  -17.7548   22.0011 S.O2    1  UNL1        0.0737
     11 O          -7.6997  -19.1525   22.5373 O.2     1  UNL1       -0.1499
     12 O          -7.8905  -16.3572   21.4649 O.2     1  UNL1       -0.1499
     13 C          -9.2914  -17.8595   21.9946 C.ar    1  UNL1        0.1261
     14 C          -9.9509  -19.1581   21.6362 C.ar    1  UNL1        0.0211
     15 C         -11.4472  -19.2628   21.6296 C.ar    1  UNL1        0.0136
     16 C         -12.2841  -18.0687   21.9815 C.ar    1  UNL1        0.0683
     17 CL        -13.7804  -18.1733   21.9749 Cl      1  UNL1       -0.0814
     18 C         -11.6246  -16.7699   22.3399 C.ar    1  UNL1        0.0695
     19 CL        -12.4615  -15.5759   22.6917 Cl      1  UNL1       -0.0813
     20 C         -10.1283  -16.6653   22.3464 C.ar    1  UNL1        0.0324
     21 O          -3.7451  -19.0699   22.6883 O.3     1  UNL1       -0.4338
     22 C          -4.2614  -20.4315   20.0654 C.3     1  UNL1        0.0554
     23 C          -3.2468  -19.3300   20.1517 C.ar    1  UNL1        0.0938
     24 N          -2.4904  -18.9093   18.9266 N.ar    1  UNL1       -0.2451
     25 C          -1.4759  -17.8079   19.0129 C.ar    1  UNL1        0.0987
     26 C          -1.2177  -17.1271   20.3243 C.ar    1  UNL1        0.0238
     27 C          -1.9741  -17.5477   21.5494 C.ar    1  UNL1        0.0404
     28 C          -2.9887  -18.6492   21.4631 C.ar    1  UNL1        0.1607
@<TRIPOS>BOND
     1    22    23    1
     2    23    24   ar
     3    24    25   ar
     4    25    26   ar
     5    26    27   ar
     6    27    28   ar
     7    28    21    1
     8    21     1    1
     9     1     2   ar
    10     2     3   ar
    11     3     4   ar
    12     4     5    1
    13     4     6   ar
    14     6     7   ar
    15     7     8    1
    16     8    10    1
    17    10    11    2
    18    10    12    2
    19    10    13    1
    20    13    14   ar
    21    14    15   ar
    22    15    16   ar
    23    16    17    1
    24    16    18   ar
    25    18    19    1
    26    18    20   ar
    27    28    23   ar
    28     7     1   ar
    29    20    13   ar
    30     8     9    1
@<TRIPOS>MOLECULE
*****
 28 30 0 0 0
SMALL
GASTEIGER

@<TRIPOS>ATOM
      1 C          -8.2684  -19.6572   20.0784 C.ar    1  UNL1        0.2446
      2 N          -7.6166  -20.9330   19.6340 N.ar    1  UNL1       -0.2078
      3 C          -6.1447  -21.1348   19.8405 C.ar    1  UNL1        0.1135
      4 C          -5.3245  -20.0607   20.4914 C.ar    1  UNL1        0.0783
      5 CL         -3.8526  -20.2624   20.6979 Cl      1  UNL1       -0.0806
      6 C          -5.9762  -18.7849   20.9358 C.ar    1  UNL1        0.0336
      7 C          -7.4483  -18.5831   20.7293 C.ar    1  UNL1        0.1190
      8 N          -8.1000  -17.3073   21.1737 N.pl3   1  UNL1       -0.2104
      9 H          -8.6743  -16.8052   20.5514 H       1  UNL1        0.1739
     10 S          -7.8767  -16.7965   22.5663 S.O2    1  UNL1        0.0737
     11 O          -8.1770  -18.1601   23.1146 O.2     1  UNL1       -0.1499
     12 O          -7.5765  -15.4330   22.0180 O.2     1  UNL1       -0.1499
     13 C          -7.6535  -16.2858   23.9589 C.ar    1  UNL1        0.1261
     14 C          -8.7961  -16.2286   24.9290 C.ar    1  UNL1        0.0211
     15 C          -8.5728  -15.7178   26.3215 C.ar    1  UNL1        0.0136
     16 C          -7.2069  -15.2642   26.7440 C.ar    1  UNL1        0.0683
     17 CL         -6.9837  -14.7534   28.1366 Cl      1  UNL1       -0.0814
     18 C          -6.0642  -15.3213   25.7739 C.ar    1  UNL1        0.0695
     19 CL         -4.6983  -14.8677   26.1964 Cl      1  UNL1       -0.0813
     20 C          -6.2875  -15.8321   24.3813 C.ar    1  UNL1        0.0324
     21 O          -9.7404  -19.4554   19.8719 O.3     1  UNL1       -0.4338
     22 C         -11.4284  -16.9802   19.7172 C.3     1  UNL1        0.0554
     23 C         -11.4581  -17.8323   20.9513 C.ar    1  UNL1        0.0938
     24 N         -12.3318  -17.4469   22.1080 N.ar    1  UNL1       -0.2451
     25 C         -12.3615  -18.2990   23.3421 C.ar    1  UNL1        0.0987
     26 C         -11.5176  -19.5366   23.4195 C.ar    1  UNL1        0.0238
     27 C         -10.6439  -19.9221   22.2628 C.ar    1  UNL1        0.0404
     28 C         -10.6141  -19.0699   21.0287 C.ar    1  UNL1        0.1607
@<TRIPOS>BOND
     1    22    23    1
     2    23    24   ar
     3    24    25   ar
     4    25    26   ar
     5    26    27   ar
     6    27    28   ar
     7    28    21    1
     8    21     1    1
     9     1     2   ar
    10     2     3   ar
    11     3     4   ar
    12     4     5    1
    13     4     6   ar
    14     6     7   ar
    15     7     8    1
    16     8    10    1
    17    10    11    2
    18    10    12    2
    19    10    13    1
    20    13    14   ar
    21    14    15   ar
    22    15    16   ar
    23    16    17    1
    24    16    18   ar
    25    18    19    1
    26    18    20   ar
    27    28    23   ar
    28     7     1   ar
    29    20    13   ar
    30     8     9    1
@<TRIPOS>MOLECULE
*****
 28 30 0 0 0
SMALL
GASTEIGER

@<TRIPOS>ATOM
      1 C          -9.4897  -19.0142   21.7942 C.ar    1  UNL1        0.2446
      2 N         -10.6446  -18.8826   20.8461 N.ar    1  UNL1       -0.2078
      3 C         -10.5291  -19.4079   19.4459 C.ar    1  UNL1        0.1135
      4 C          -9.2586  -20.0648   18.9937 C.ar    1  UNL1        0.0783
      5 CL         -9.1431  -20.5901   17.5935 Cl      1  UNL1       -0.0806
      6 C          -8.1037  -20.1964   19.9417 C.ar    1  UNL1        0.0336
      7 C          -8.2192  -19.6710   21.3420 C.ar    1  UNL1        0.1190
      8 N          -7.0643  -19.8026   22.2900 N.pl3   1  UNL1       -0.2104
      9 H          -7.1900  -20.2445   23.1607 H       1  UNL1        0.1739
     10 S          -5.7177  -19.2608   21.9114 S.O2    1  UNL1        0.0737
     11 O          -5.3987  -20.5461   21.2069 O.2     1  UNL1       -0.1499
     12 O          -6.0368  -17.9756   22.6160 O.2     1  UNL1       -0.1499
     13 C          -4.3712  -18.7191   21.5329 C.ar    1  UNL1        0.1261
     14 C          -3.4972  -18.0866   22.5750 C.ar    1  UNL1        0.0211
     15 C          -2.1507  -17.5448   22.1964 C.ar    1  UNL1        0.0136
     16 C          -1.6781  -17.6356   20.7757 C.ar    1  UNL1        0.0683
     17 CL         -0.3316  -17.0938   20.3972 Cl      1  UNL1       -0.0814
     18 C          -2.5521  -18.2681   19.7335 C.ar    1  UNL1        0.0695
     19 CL         -2.0796  -18.3588   18.3128 Cl      1  UNL1       -0.0813
     20 C          -3.8987  -18.8098   20.1121 C.ar    1  UNL1        0.0324
     21 O          -9.6052  -18.4889   23.1944 O.3     1  UNL1       -0.4338
     22 C          -9.3065  -17.7433   26.0849 C.3     1  UNL1        0.0554
     23 C          -8.7799  -16.8312   25.0168 C.ar    1  UNL1        0.0938
     24 N          -8.1040  -15.5463   25.3939 N.ar    1  UNL1       -0.2451
     25 C          -7.5775  -14.6342   24.3258 C.ar    1  UNL1        0.0987
     26 C          -7.7268  -15.0070   22.8806 C.ar    1  UNL1        0.0238
     27 C          -8.4027  -16.2919   22.5035 C.ar    1  UNL1        0.0404
     28 C          -8.9293  -17.2039   23.5716 C.ar    1  UNL1        0.1607
@<TRIPOS>BOND
     1    22    23    1
     2    23    24   ar
     3    24    25   ar
     4    25    26   ar
     5    26    27   ar
     6    27    28   ar
     7    28    21    1
     8    21     1    1
     9     1     2   ar
    10     2     3   ar
    11     3     4   ar
    12     4     5    1
    13     4     6   ar
    14     6     7   ar
    15     7     8    1
    16     8    10    1
    17    10    11    2
    18    10    12    2
    19    10    13    1
    20    13    14   ar
    21    14    15   ar
    22    15    16   ar
    23    16    17    1
    24    16    18   ar
    25    18    19    1
    26    18    20   ar
    27    28    23   ar
    28     7     1   ar
    29    20    13   ar
    30     8     9    1
@<TRIPOS>MOLECULE
*****
 28 30 0 0 0
SMALL
GASTEIGER

@<TRIPOS>ATOM
      1 C         -11.5930   -4.3707   18.9872 C.ar    1  UNL1        0.2446
      2 N         -10.1778   -4.7759   19.2755 N.ar    1  UNL1       -0.2078
      3 C          -9.6711   -6.1104   18.8148 C.ar    1  UNL1        0.1135
      4 C         -10.5795   -7.0397   18.0657 C.ar    1  UNL1        0.0783
      5 CL        -10.0727   -8.3742   17.6050 Cl      1  UNL1       -0.0806
      6 C         -11.9946   -6.6346   17.7774 C.ar    1  UNL1        0.0336
      7 C         -12.5014   -5.3000   18.2381 C.ar    1  UNL1        0.1190
      8 N         -13.9165   -4.8949   17.9497 N.pl3   1  UNL1       -0.2104
      9 H         -14.1019   -4.0357   17.5063 H       1  UNL1        0.1739
     10 S         -15.0492   -5.7988   18.3368 S.O2    1  UNL1        0.0737
     11 O         -15.3401   -6.0550   16.8878 O.2     1  UNL1       -0.1499
     12 O         -14.7583   -5.5427   19.7859 O.2     1  UNL1       -0.1499
     13 C         -16.1819   -6.7028   18.7240 C.ar    1  UNL1        0.1261
     14 C         -17.3995   -6.1357   19.3916 C.ar    1  UNL1        0.0211
     15 C         -18.5322   -7.0397   19.7787 C.ar    1  UNL1        0.0136
     16 C         -18.4473   -8.5107   19.4983 C.ar    1  UNL1        0.0683
     17 CL        -19.5799   -9.4147   19.8854 Cl      1  UNL1       -0.0814
     18 C         -17.2296   -9.0779   18.8306 C.ar    1  UNL1        0.0695
     19 CL        -17.1447  -10.5490   18.5501 Cl      1  UNL1       -0.0813
     20 C         -16.0969   -8.1739   18.4435 C.ar    1  UNL1        0.0324
     21 O         -12.0998   -3.0362   19.4478 O.3     1  UNL1       -0.4338
     22 C         -14.5468   -1.3362   19.0982 C.3     1  UNL1        0.0554
     23 C         -13.2929   -1.0103   18.3422 C.ar    1  UNL1        0.0938
     24 N         -13.2624    0.1655   17.4114 N.ar    1  UNL1       -0.2451
     25 C         -12.0085    0.4914   16.6554 C.ar    1  UNL1        0.0987
     26 C         -10.7851   -0.3585   16.8302 C.ar    1  UNL1        0.0238
     27 C         -10.8155   -1.5344   17.7610 C.ar    1  UNL1        0.0404
     28 C         -12.0694   -1.8603   18.5170 C.ar    1  UNL1        0.1607
@<TRIPOS>BOND
     1    22    23    1
     2    23    24   ar
     3    24    25   ar
     4    25    26   ar
     5    26    27   ar
     6    27    28   ar
     7    28    21    1
     8    21     1    1
     9     1     2   ar
    10     2     3   ar
    11     3     4   ar
    12     4     5    1
    13     4     6   ar
    14     6     7   ar
    15     7     8    1
    16     8    10    1
    17    10    11    2
    18    10    12    2
    19    10    13    1
    20    13    14   ar
    21    14    15   ar
    22    15    16   ar
    23    16    17    1
    24    16    18   ar
    25    18    19    1
    26    18    20   ar
    27    28    23   ar
    28     7     1   ar
    29    20    13   ar
    30     8     9    1
@<TRIPOS>MOLECULE
*****
 28 30 0 0 0
SMALL
GASTEIGER

@<TRIPOS>ATOM
      1 C         -16.7559   -5.5967   19.4074 C.ar    1  UNL1        0.2446
      2 N         -18.0624   -5.8889   18.7308 N.ar    1  UNL1       -0.2078
      3 C         -19.1391   -4.8451   18.6962 C.ar    1  UNL1        0.1135
      4 C         -18.9093   -3.5090   19.3383 C.ar    1  UNL1        0.0783
      5 CL        -19.9860   -2.4652   19.3037 Cl      1  UNL1       -0.0806
      6 C         -17.6029   -3.2168   20.0148 C.ar    1  UNL1        0.0336
      7 C         -16.5262   -4.2606   20.0494 C.ar    1  UNL1        0.1190
      8 N         -15.2197   -3.9684   20.7260 N.pl3   1  UNL1       -0.2104
      9 H         -15.2013   -3.7419   21.6839 H       1  UNL1        0.1739
     10 S         -13.9413   -4.0213   19.9431 S.O2    1  UNL1        0.0737
     11 O         -14.4227   -2.8922   19.0809 O.2     1  UNL1       -0.1499
     12 O         -13.4600   -5.1503   20.8054 O.2     1  UNL1       -0.1499
     13 C         -12.6629   -4.0741   19.1603 C.ar    1  UNL1        0.1261
     14 C         -12.1471   -2.8396   18.4822 C.ar    1  UNL1        0.0211
     15 C         -10.8687   -2.8925   17.6993 C.ar    1  UNL1        0.0136
     16 C         -10.1061   -4.1799   17.5945 C.ar    1  UNL1        0.0683
     17 CL         -8.8277   -4.2327   16.8116 Cl      1  UNL1       -0.0814
     18 C         -10.6219   -5.4145   18.2726 C.ar    1  UNL1        0.0695
     19 CL         -9.8594   -6.7019   18.1678 Cl      1  UNL1       -0.0813
     20 C         -11.9003   -5.3616   19.0555 C.ar    1  UNL1        0.0324
     21 O         -15.6793   -6.6405   19.4419 O.3     1  UNL1       -0.4338
     22 C         -13.8895   -8.3346   17.7311 C.3     1  UNL1        0.0554
     23 C         -15.1268   -8.9267   18.3382 C.ar    1  UNL1        0.0938
     24 N         -15.4692  -10.3658   18.0899 N.ar    1  UNL1       -0.2451
     25 C         -16.7065  -10.9579   18.6970 C.ar    1  UNL1        0.0987
     26 C         -17.6013  -10.1109   19.5524 C.ar    1  UNL1        0.0238
     27 C         -17.2589   -8.6718   19.8007 C.ar    1  UNL1        0.0404
     28 C         -16.0217   -8.0797   19.1936 C.ar    1  UNL1        0.1607
@<TRIPOS>BOND
     1    22    23    1
     2    23    24   ar
     3    24    25   ar
     4    25    26   ar
     5    26    27   ar
     6    27    28   ar
     7    28    21    1
     8    21     1    1
     9     1     2   ar
    10     2     3   ar
    11     3     4   ar
    12     4     5    1
    13     4     6   ar
    14     6     7   ar
    15     7     8    1
    16     8    10    1
    17    10    11    2
    18    10    12    2
    19    10    13    1
    20    13    14   ar
    21    14    15   ar
    22    15    16   ar
    23    16    17    1
    24    16    18   ar
    25    18    19    1
    26    18    20   ar
    27    28    23   ar
    28     7     1   ar
    29    20    13   ar
    30     8     9    1
@<TRIPOS>MOLECULE
*****
 28 30 0 0 0
SMALL
GASTEIGER

@<TRIPOS>ATOM
      1 C          -1.6708    3.3246   20.7469 C.ar    1  UNL1        0.2446
      2 N          -1.6654    4.8087   20.9653 N.ar    1  UNL1       -0.2078
      3 C          -0.3641    5.5414   21.1056 C.ar    1  UNL1        0.1135
      4 C           0.9319    4.7900   21.0274 C.ar    1  UNL1        0.0783
      5 CL          2.2332    5.5227   21.1676 Cl      1  UNL1       -0.0806
      6 C           0.9264    3.3061   20.8090 C.ar    1  UNL1        0.0336
      7 C          -0.3749    2.5733   20.6688 C.ar    1  UNL1        0.1190
      8 N          -0.3803    1.0893   20.4504 N.pl3   1  UNL1       -0.2104
      9 H          -1.1920    0.5664   20.6429 H       1  UNL1        0.1739
     10 S           0.8509    0.4020   19.9388 S.O2    1  UNL1        0.0737
     11 O           1.1855   -0.0367   21.3336 O.2     1  UNL1       -0.1499
     12 O           0.5162    0.8408   18.5440 O.2     1  UNL1       -0.1499
     13 C           2.0821   -0.2852   19.4272 C.ar    1  UNL1        0.1261
     14 C           2.7691    0.2254   18.1955 C.ar    1  UNL1        0.0211
     15 C           4.0003   -0.4618   17.6839 C.ar    1  UNL1        0.0136
     16 C           4.5445   -1.6598   18.4040 C.ar    1  UNL1        0.0683
     17 CL          5.7758   -2.3471   17.8924 Cl      1  UNL1       -0.0814
     18 C           3.8575   -2.1706   19.6358 C.ar    1  UNL1        0.0695
     19 CL          4.4017   -3.3686   20.3559 Cl      1  UNL1       -0.0813
     20 C           2.6263   -1.4833   20.1474 C.ar    1  UNL1        0.0324
     21 O          -2.9722    2.5920   20.6067 O.3     1  UNL1       -0.4338
     22 C          -5.0045    3.7114   18.7050 C.3     1  UNL1        0.0554
     23 C          -5.2531    3.7617   20.1834 C.ar    1  UNL1        0.0938
     24 N          -6.5179    4.3716   20.7109 N.ar    1  UNL1       -0.2451
     25 C          -6.7664    4.4219   22.1894 C.ar    1  UNL1        0.0987
     26 C          -5.7503    3.8622   23.1402 C.ar    1  UNL1        0.0238
     27 C          -4.4856    3.2523   22.6126 C.ar    1  UNL1        0.0404
     28 C          -4.2370    3.2020   21.1342 C.ar    1  UNL1        0.1607
@<TRIPOS>BOND
     1    22    23    1
     2    23    24   ar
     3    24    25   ar
     4    25    26   ar
     5    26    27   ar
     6    27    28   ar
     7    28    21    1
     8    21     1    1
     9     1     2   ar
    10     2     3   ar
    11     3     4   ar
    12     4     5    1
    13     4     6   ar
    14     6     7   ar
    15     7     8    1
    16     8    10    1
    17    10    11    2
    18    10    12    2
    19    10    13    1
    20    13    14   ar
    21    14    15   ar
    22    15    16   ar
    23    16    17    1
    24    16    18   ar
    25    18    19    1
    26    18    20   ar
    27    28    23   ar
    28     7     1   ar
    29    20    13   ar
    30     8     9    1
