@<TRIPOS>MOLECULE
*****
 27 31 0 0 0
SMALL
GASTEIGER

@<TRIPOS>ATOM
      1 C          -5.8362  -19.4171   21.5795 C.2     1  UNL1        0.1186
      2 C          -6.7021  -18.5576   22.4520 C.2     1  UNL1        0.0359
      3 C          -8.1368  -18.3206   22.0841 C.2     1  UNL1        0.0041
      4 C          -8.7056  -18.9433   20.8437 C.2     1  UNL1        0.0117
      5 C         -10.0735  -18.8894   20.2302 C.2     1  UNL1       -0.0009
      6 C         -10.0529  -19.7158   18.9785 C.2     1  UNL1        0.0942
      7 N          -8.6724  -20.2803   18.8184 N.2     1  UNL1       -0.2480
      8 C          -7.8398  -19.8029   19.9712 C.2     1  UNL1        0.0667
      9 C          -6.4051  -20.0398   20.3391 C.3     1  UNL1        0.1127
     10 C         -11.8220  -17.4042   21.6093 C.3     1  UNL1        0.0399
     11 C         -12.1788  -18.1017   22.7165 C.3     1  UNL1        0.0765
     12 N         -12.4253  -18.4866   23.4014 N.3     1  UNL1       -0.2724
     13 C         -13.0094  -17.1280   23.1503 C.3     1  UNL1        0.0721
     14 C         -12.6149  -16.3566   21.9259 C.3     1  UNL1        0.0177
     15 C         -11.6363  -16.9437   20.9525 C.3     1  UNL1        0.0082
     16 C         -11.0521  -18.3023   21.2036 C.3     1  UNL1        0.0177
     17 C         -11.4467  -19.0737   22.4280 C.3     1  UNL1        0.0721
     18 N          -4.4014  -19.6541   21.9474 N.pl3   1  UNL1       -0.2022
     19 H          -4.0956  -20.5612   22.1776 H       1  UNL1        0.2982
     20 N          -3.3085  -17.6499   23.1879 N.2     1  UNL1       -0.0985
     21 C          -3.4326  -18.5091   21.9646 C.2     1  UNL1        0.3222
     22 H          -3.8630  -17.8376   23.9795 H       1  UNL1        0.3633
     23 C          -2.5878  -18.2232   20.7585 C.ar    1  UNL1        0.1113
     24 C          -3.0728  -18.1437   19.3413 C.ar    1  UNL1        0.0144
     25 C          -1.8945  -17.8380   18.4647 C.ar    1  UNL1        0.0077
     26 C          -0.6814  -17.7285   19.3403 C.ar    1  UNL1        0.0357
     27 S          -1.1100  -17.9666   20.7579 S.2     1  UNL1       -0.0792
@<TRIPOS>BOND
     1    20    21    2
     2    21    18    1
     3    18     1    1
     4     1     2    2
     5     2     3    1
     6     3     4    2
     7     4     5    1
     8     5    10    1
     9    10    11    1
    10    11    12    1
    11    12    13    1
    12    13    14    1
    13    14    15    1
    14    15    16    1
    15    16    17    1
    16     5     6    2
    17     6     7    1
    18     7     8    2
    19     8     9    1
    20    21    23    1
    21    23    24   ar
    22    24    25   ar
    23    25    26   ar
    24    26    27   ar
    25     9     1    1
    26    27    23   ar
    27     8     4    1
    28    15    10    1
    29    17    12    1
    30    20    22    1
    31    18    19    1
@<TRIPOS>MOLECULE
*****
 27 31 0 0 0
SMALL
GASTEIGER

@<TRIPOS>ATOM
      1 C          -7.8663  -18.4155   23.0813 C.2     1  UNL1        0.1186
      2 C          -6.7100  -17.4858   22.8608 C.2     1  UNL1        0.0359
      3 C          -5.5888  -17.8866   21.9487 C.2     1  UNL1        0.0041
      4 C          -5.6237  -19.2171   21.2570 C.2     1  UNL1        0.0117
      5 C          -4.6699  -19.8805   20.3081 C.2     1  UNL1       -0.0009
      6 C          -5.2367  -21.2202   19.9422 C.2     1  UNL1        0.0942
      7 N          -6.5408  -21.3848   20.6649 N.2     1  UNL1       -0.2480
      8 C          -6.7800  -20.1469   21.4775 C.2     1  UNL1        0.0667
      9 C          -7.9012  -19.7461   22.3896 C.3     1  UNL1        0.1127
     10 C          -2.5027  -18.4127   19.7474 C.3     1  UNL1        0.0399
     11 C          -1.5973  -18.6118   20.7375 C.3     1  UNL1        0.0765
     12 N          -1.0167  -18.7010   21.3145 N.3     1  UNL1       -0.2724
     13 C          -0.6920  -17.7809   20.1752 C.3     1  UNL1        0.0721
     14 C          -1.6932  -17.5608   19.0802 C.3     1  UNL1        0.0177
     15 C          -3.0192  -18.2606   19.1244 C.3     1  UNL1        0.0082
     16 C          -3.3439  -19.1806   20.2638 C.3     1  UNL1        0.0177
     17 C          -2.3427  -19.4008   21.3588 C.3     1  UNL1        0.0721
     18 N          -8.9876  -18.0147   23.9935 N.pl3   1  UNL1       -0.2022
     19 H          -9.1778  -18.5439   24.8016 H       1  UNL1        0.2982
     20 N          -9.5253  -15.4969   24.3416 N.2     1  UNL1       -0.0985
     21 C          -9.8191  -16.8078   23.6744 C.2     1  UNL1        0.3222
     22 H          -8.7867  -15.4286   24.9889 H       1  UNL1        0.3633
     23 C         -10.9445  -16.9118   22.6881 C.ar    1  UNL1        0.1113
     24 C         -12.1343  -17.8183   22.8004 C.ar    1  UNL1        0.0144
     25 C         -13.0028  -17.5943   21.5981 C.ar    1  UNL1        0.0077
     26 C         -12.3497  -16.5492   20.7427 C.ar    1  UNL1        0.0357
     27 S         -11.0777  -16.1275   21.4164 S.2     1  UNL1       -0.0792
@<TRIPOS>BOND
     1    20    21    2
     2    21    18    1
     3    18     1    1
     4     1     2    2
     5     2     3    1
     6     3     4    2
     7     4     5    1
     8     5    10    1
     9    10    11    1
    10    11    12    1
    11    12    13    1
    12    13    14    1
    13    14    15    1
    14    15    16    1
    15    16    17    1
    16     5     6    2
    17     6     7    1
    18     7     8    2
    19     8     9    1
    20    21    23    1
    21    23    24   ar
    22    24    25   ar
    23    25    26   ar
    24    26    27   ar
    25     9     1    1
    26    27    23   ar
    27     8     4    1
    28    15    10    1
    29    17    12    1
    30    20    22    1
    31    18    19    1
@<TRIPOS>MOLECULE
*****
 27 31 0 0 0
SMALL
GASTEIGER

@<TRIPOS>ATOM
      1 C          -9.5461  -16.1558   23.4293 C.2     1  UNL1        0.1186
      2 C          -8.6271  -16.7988   22.4333 C.2     1  UNL1        0.0359
      3 C          -7.1596  -16.9035   22.7255 C.2     1  UNL1        0.0041
      4 C          -6.6111  -16.3652   24.0136 C.2     1  UNL1        0.0117
      5 C          -5.2200  -16.3259   24.5736 C.2     1  UNL1       -0.0009
      6 C          -5.2793  -15.6586   25.9156 C.2     1  UNL1        0.0942
      7 N          -6.7070  -15.2855   26.1851 N.2     1  UNL1       -0.2480
      8 C          -7.5300  -15.7223   25.0096 C.2     1  UNL1        0.0667
      9 C          -8.9975  -15.6176   24.7175 C.3     1  UNL1        0.1127
     10 C          -3.3758  -17.4215   22.9723 C.3     1  UNL1        0.0399
     11 C          -2.8541  -16.4347   22.2018 C.3     1  UNL1        0.0765
     12 N          -2.5077  -15.8703   21.7125 N.3     1  UNL1       -0.2724
     13 C          -2.0170  -17.2796   21.5601 C.3     1  UNL1        0.0721
     14 C          -2.5941  -18.3709   22.4121 C.3     1  UNL1        0.0177
     15 C          -3.6617  -18.0531   23.4166 C.3     1  UNL1        0.0082
     16 C          -4.1523  -16.6438   23.5691 C.3     1  UNL1        0.0177
     17 C          -3.5753  -15.5525   22.7170 C.3     1  UNL1        0.0721
     18 N         -11.0137  -16.0511   23.1372 N.pl3   1  UNL1       -0.2022
     19 H         -11.4654  -15.1781   23.1918 H       1  UNL1        0.2982
     20 N         -13.0399  -17.6326   23.5157 N.2     1  UNL1       -0.0985
     21 C         -11.7930  -17.2766   22.7618 C.2     1  UNL1        0.3222
     22 H         -13.3468  -17.0620   24.2569 H       1  UNL1        0.3633
     23 C         -11.3254  -18.1460   21.6324 C.ar    1  UNL1        0.1113
     24 C         -10.8660  -19.5693   21.7474 C.ar    1  UNL1        0.0144
     25 C         -10.4917  -20.0478   20.3758 C.ar    1  UNL1        0.0077
     26 C         -10.7199  -18.9202   19.4132 C.ar    1  UNL1        0.0357
     27 S         -11.2351  -17.7448   20.1899 S.2     1  UNL1       -0.0792
@<TRIPOS>BOND
     1    20    21    2
     2    21    18    1
     3    18     1    1
     4     1     2    2
     5     2     3    1
     6     3     4    2
     7     4     5    1
     8     5    10    1
     9    10    11    1
    10    11    12    1
    11    12    13    1
    12    13    14    1
    13    14    15    1
    14    15    16    1
    15    16    17    1
    16     5     6    2
    17     6     7    1
    18     7     8    2
    19     8     9    1
    20    21    23    1
    21    23    24   ar
    22    24    25   ar
    23    25    26   ar
    24    26    27   ar
    25     9     1    1
    26    27    23   ar
    27     8     4    1
    28    15    10    1
    29    17    12    1
    30    20    22    1
    31    18    19    1
@<TRIPOS>MOLECULE
*****
 27 31 0 0 0
SMALL
GASTEIGER

@<TRIPOS>ATOM
      1 C          -9.2798  -16.0277   23.3113 C.2     1  UNL1        0.1186
      2 C          -8.3923  -16.5549   22.2231 C.2     1  UNL1        0.0359
      3 C          -6.9126  -16.6587   22.4464 C.2     1  UNL1        0.0041
      4 C          -6.3206  -16.2352   23.7579 C.2     1  UNL1        0.0117
      5 C          -4.9086  -16.2226   24.2644 C.2     1  UNL1       -0.0009
      6 C          -4.9236  -15.6875   25.6656 C.2     1  UNL1        0.0942
      7 N          -6.3448  -15.3695   26.0252 N.2     1  UNL1       -0.2480
      8 C          -7.2081  -15.7079   24.8462 C.2     1  UNL1        0.0667
      9 C          -8.6877  -15.6042   24.6228 C.3     1  UNL1        0.1127
     10 C          -3.1144  -17.1248   22.4946 C.3     1  UNL1        0.0399
     11 C          -3.2906  -18.4637   22.3686 C.3     1  UNL1        0.0765
     12 N          -3.3598  -19.2768   22.2588 N.3     1  UNL1       -0.2724
     13 C          -2.2930  -18.5828   21.4649 C.3     1  UNL1        0.0721
     14 C          -2.0980  -17.1021   21.6043 C.3     1  UNL1        0.0177
     15 C          -2.9699  -16.3153   22.5374 C.3     1  UNL1        0.0082
     16 C          -4.0367  -17.0093   23.3312 C.3     1  UNL1        0.0177
     17 C          -4.2317  -18.4900   23.1919 C.3     1  UNL1        0.0721
     18 N         -10.7595  -15.9239   23.0880 N.pl3   1  UNL1       -0.2022
     19 H         -11.1723  -15.0451   22.9250 H       1  UNL1        0.2982
     20 N         -13.0505  -17.0863   22.7003 N.2     1  UNL1       -0.0985
     21 C         -11.6102  -17.1590   23.1132 C.2     1  UNL1        0.3222
     22 H         -13.4374  -16.2278   22.4129 H       1  UNL1        0.3633
     23 C         -11.0207  -18.4670   23.5511 C.ar    1  UNL1        0.1113
     24 C         -10.6046  -18.8229   24.9476 C.ar    1  UNL1        0.0144
     25 C         -10.0705  -20.2245   24.9291 C.ar    1  UNL1        0.0077
     26 C         -10.1567  -20.7348   23.5212 C.ar    1  UNL1        0.0357
     27 S         -10.7440  -19.6486   22.6696 S.2     1  UNL1       -0.0792
@<TRIPOS>BOND
     1    20    21    2
     2    21    18    1
     3    18     1    1
     4     1     2    2
     5     2     3    1
     6     3     4    2
     7     4     5    1
     8     5    10    1
     9    10    11    1
    10    11    12    1
    11    12    13    1
    12    13    14    1
    13    14    15    1
    14    15    16    1
    15    16    17    1
    16     5     6    2
    17     6     7    1
    18     7     8    2
    19     8     9    1
    20    21    23    1
    21    23    24   ar
    22    24    25   ar
    23    25    26   ar
    24    26    27   ar
    25     9     1    1
    26    27    23   ar
    27     8     4    1
    28    15    10    1
    29    17    12    1
    30    20    22    1
    31    18    19    1
@<TRIPOS>MOLECULE
*****
 27 31 0 0 0
SMALL
GASTEIGER

@<TRIPOS>ATOM
      1 C          -9.8375  -18.3400   23.8860 C.2     1  UNL1        0.1186
      2 C          -9.1047  -19.3627   23.0693 C.2     1  UNL1        0.0359
      3 C          -7.6663  -19.1417   22.7059 C.2     1  UNL1        0.0041
      4 C          -6.9607  -17.8981   23.1592 C.2     1  UNL1        0.0117
      5 C          -5.5569  -17.4100   22.9561 C.2     1  UNL1       -0.0009
      6 C          -5.4221  -16.0856   23.6473 C.2     1  UNL1        0.0942
      7 N          -6.7426  -15.7552   24.2776 N.2     1  UNL1       -0.2480
      8 C          -7.6935  -16.8754   23.9759 C.2     1  UNL1        0.0667
      9 C          -9.1319  -17.0963   24.3393 C.3     1  UNL1        0.1127
     10 C          -4.0297  -19.0709   21.5158 C.3     1  UNL1        0.0399
     11 C          -2.7469  -18.9222   21.9304 C.3     1  UNL1        0.0765
     12 N          -1.9548  -18.8667   22.1482 N.3     1  UNL1       -0.2724
     13 C          -2.2817  -19.8419   21.0564 C.3     1  UNL1        0.0721
     14 C          -3.7004  -20.0064   20.5978 C.3     1  UNL1        0.0177
     15 C          -4.7922  -19.1958   21.2310 C.3     1  UNL1        0.0082
     16 C          -4.4652  -18.2206   22.3228 C.3     1  UNL1        0.0177
     17 C          -3.0465  -18.0561   22.7814 C.3     1  UNL1        0.0721
     18 N         -11.2760  -18.5609   24.2494 N.pl3   1  UNL1       -0.2022
     19 H         -11.5064  -19.0443   25.0755 H       1  UNL1        0.2982
     20 N         -13.7829  -18.0165   23.8383 N.2     1  UNL1       -0.0985
     21 C         -12.3635  -18.0452   23.3542 C.2     1  UNL1        0.3222
     22 H         -14.0008  -18.3360   24.7436 H       1  UNL1        0.3633
     23 C         -12.0315  -17.5584   21.9747 C.ar    1  UNL1        0.1113
     24 C         -11.6594  -18.4171   20.8025 C.ar    1  UNL1        0.0144
     25 C         -11.4113  -17.5168   19.6286 C.ar    1  UNL1        0.0077
     26 C         -11.6301  -16.1017   20.0754 C.ar    1  UNL1        0.0357
     27 S         -12.0134  -16.1274   21.5254 S.2     1  UNL1       -0.0792
@<TRIPOS>BOND
     1    20    21    2
     2    21    18    1
     3    18     1    1
     4     1     2    2
     5     2     3    1
     6     3     4    2
     7     4     5    1
     8     5    10    1
     9    10    11    1
    10    11    12    1
    11    12    13    1
    12    13    14    1
    13    14    15    1
    14    15    16    1
    15    16    17    1
    16     5     6    2
    17     6     7    1
    18     7     8    2
    19     8     9    1
    20    21    23    1
    21    23    24   ar
    22    24    25   ar
    23    25    26   ar
    24    26    27   ar
    25     9     1    1
    26    27    23   ar
    27     8     4    1
    28    15    10    1
    29    17    12    1
    30    20    22    1
    31    18    19    1
@<TRIPOS>MOLECULE
*****
 27 31 0 0 0
SMALL
GASTEIGER

@<TRIPOS>ATOM
      1 C          -8.0376  -18.6066   22.4953 C.2     1  UNL1        0.1186
      2 C          -6.8680  -17.6875   22.6878 C.2     1  UNL1        0.0359
      3 C          -5.5377  -18.0302   22.0853 C.2     1  UNL1        0.0041
      4 C          -5.3772  -19.2921   21.2904 C.2     1  UNL1        0.0117
      5 C          -4.1970  -19.8891   20.5826 C.2     1  UNL1       -0.0009
      6 C          -4.6374  -21.1772   19.9527 C.2     1  UNL1        0.0942
      7 N          -6.0896  -21.3763   20.2712 N.2     1  UNL1       -0.2480
      8 C          -6.5468  -20.2112   21.0979 C.2     1  UNL1        0.0667
      9 C          -7.8770  -19.8685   21.7004 C.3     1  UNL1        0.1127
     10 C          -1.9633  -18.4268   20.7767 C.3     1  UNL1        0.0399
     11 C          -1.5467  -18.1339   19.5197 C.3     1  UNL1        0.0765
     12 N          -1.2551  -17.9310   18.7769 N.3     1  UNL1       -0.2724
     13 C          -0.4751  -17.4378   19.9595 C.3     1  UNL1        0.0721
     14 C          -0.9358  -17.7617   21.3497 C.3     1  UNL1        0.0177
     15 C          -2.1764  -18.5788   21.5575 C.3     1  UNL1        0.0082
     16 C          -2.9564  -19.0720   20.3749 C.3     1  UNL1        0.0177
     17 C          -2.4957  -18.7481   18.9846 C.3     1  UNL1        0.0721
     18 N          -9.3679  -18.2639   23.0978 N.pl3   1  UNL1       -0.2022
     19 H         -10.0954  -18.9272   23.0944 H       1  UNL1        0.2982
     20 N         -10.3664  -15.8696   22.9548 N.2     1  UNL1       -0.0985
     21 C          -9.5898  -16.9106   23.7053 C.2     1  UNL1        0.3222
     22 H         -10.7304  -16.0747   22.0633 H       1  UNL1        0.3633
     23 C          -9.0351  -16.5981   25.0636 C.ar    1  UNL1        0.1113
     24 C          -9.1498  -17.4638   26.2832 C.ar    1  UNL1        0.0144
     25 C          -8.4539  -16.7659   27.4141 C.ar    1  UNL1        0.0077
     26 C          -7.9093  -15.4688   26.8933 C.ar    1  UNL1        0.0357
     27 S          -8.2685  -15.3652   25.4406 S.2     1  UNL1       -0.0792
@<TRIPOS>BOND
     1    20    21    2
     2    21    18    1
     3    18     1    1
     4     1     2    2
     5     2     3    1
     6     3     4    2
     7     4     5    1
     8     5    10    1
     9    10    11    1
    10    11    12    1
    11    12    13    1
    12    13    14    1
    13    14    15    1
    14    15    16    1
    15    16    17    1
    16     5     6    2
    17     6     7    1
    18     7     8    2
    19     8     9    1
    20    21    23    1
    21    23    24   ar
    22    24    25   ar
    23    25    26   ar
    24    26    27   ar
    25     9     1    1
    26    27    23   ar
    27     8     4    1
    28    15    10    1
    29    17    12    1
    30    20    22    1
    31    18    19    1
@<TRIPOS>MOLECULE
*****
 27 31 0 0 0
SMALL
GASTEIGER

@<TRIPOS>ATOM
      1 C          -8.6469  -18.5931   21.6988 C.2     1  UNL1        0.1186
      2 C          -7.5136  -19.0934   20.8529 C.2     1  UNL1        0.0359
      3 C          -6.1048  -18.6885   21.1710 C.2     1  UNL1        0.0041
      4 C          -5.8292  -17.7833   22.3350 C.2     1  UNL1        0.0117
      5 C          -4.5540  -17.2186   22.8873 C.2     1  UNL1       -0.0009
      6 C          -4.8992  -16.3693   24.0746 C.2     1  UNL1        0.0942
      7 N          -6.3877  -16.4092   24.2559 N.2     1  UNL1       -0.2480
      8 C          -6.9624  -17.2831   23.1808 C.2     1  UNL1        0.0667
      9 C          -8.3712  -17.6880   22.8627 C.3     1  UNL1        0.1127
     10 C          -2.3645  -17.9684   21.5422 C.3     1  UNL1        0.0399
     11 C          -2.3004  -19.3229   21.5728 C.3     1  UNL1        0.0765
     12 N          -2.2190  -20.1422   21.5644 N.3     1  UNL1       -0.2724
     13 C          -1.1578  -19.3570   20.8521 C.3     1  UNL1        0.0721
     14 C          -1.2286  -17.8591   20.8182 C.3     1  UNL1        0.0177
     15 C          -2.3607  -17.1462   21.4966 C.3     1  UNL1        0.0082
     16 C          -3.4219  -17.9314   22.2089 C.3     1  UNL1        0.0177
     17 C          -3.3510  -19.4293   22.2427 C.3     1  UNL1        0.0721
     18 N         -10.0558  -18.9980   21.3807 N.pl3   1  UNL1       -0.2022
     19 H         -10.2428  -19.9017   21.0378 H       1  UNL1        0.2982
     20 N         -11.3994  -16.9156   20.6008 N.2     1  UNL1       -0.0985
     21 C         -11.1797  -18.0259   21.5851 C.2     1  UNL1        0.3222
     22 H         -10.8058  -16.8247   19.8206 H       1  UNL1        0.3633
     23 C         -12.0842  -18.1643   22.7738 C.ar    1  UNL1        0.1113
     24 C         -13.5178  -17.7291   22.8461 C.ar    1  UNL1        0.0144
     25 C         -14.0334  -18.0579   24.2159 C.ar    1  UNL1        0.0077
     26 C         -12.9184  -18.6963   24.9900 C.ar    1  UNL1        0.0357
     27 S         -11.7137  -18.7620   24.0987 S.2     1  UNL1       -0.0792
@<TRIPOS>BOND
     1    20    21    2
     2    21    18    1
     3    18     1    1
     4     1     2    2
     5     2     3    1
     6     3     4    2
     7     4     5    1
     8     5    10    1
     9    10    11    1
    10    11    12    1
    11    12    13    1
    12    13    14    1
    13    14    15    1
    14    15    16    1
    15    16    17    1
    16     5     6    2
    17     6     7    1
    18     7     8    2
    19     8     9    1
    20    21    23    1
    21    23    24   ar
    22    24    25   ar
    23    25    26   ar
    24    26    27   ar
    25     9     1    1
    26    27    23   ar
    27     8     4    1
    28    15    10    1
    29    17    12    1
    30    20    22    1
    31    18    19    1
@<TRIPOS>MOLECULE
*****
 27 31 0 0 0
SMALL
GASTEIGER

@<TRIPOS>ATOM
      1 C           5.1631   -2.8601   23.8427 C.2     1  UNL1        0.1186
      2 C           4.6283   -1.4907   23.5453 C.2     1  UNL1        0.0359
      3 C           4.0192   -1.1978   22.2062 C.2     1  UNL1        0.0041
      4 C           3.9450   -2.2745   21.1644 C.2     1  UNL1        0.0117
      5 C           3.4046   -2.2817   19.7651 C.2     1  UNL1       -0.0009
      6 C           3.6054   -3.6556   19.1977 C.2     1  UNL1        0.0942
      7 N           4.2700   -4.4975   20.2463 N.2     1  UNL1       -0.2480
      8 C           4.4799   -3.6440   21.4618 C.2     1  UNL1        0.0667
      9 C           5.0889   -3.9368   22.8009 C.3     1  UNL1        0.1127
     10 C           2.3830    0.0667   18.9860 C.3     1  UNL1        0.0399
     11 C           1.1692    0.2085   19.5742 C.3     1  UNL1        0.0765
     12 N           0.4280    0.3393   19.9081 N.3     1  UNL1       -0.2724
     13 C           0.9534    1.4145   19.0038 C.3     1  UNL1        0.0721
     14 C           2.2958    1.2576   18.3532 C.3     1  UNL1        0.0177
     15 C           3.1129    0.0256   18.6070 C.3     1  UNL1        0.0082
     16 C           2.5875   -1.0496   19.5113 C.3     1  UNL1        0.0177
     17 C           1.2451   -0.8928   20.1619 C.3     1  UNL1        0.0721
     18 N           5.7722   -3.1530   25.1819 N.pl3   1  UNL1       -0.2022
     19 H           5.2649   -2.9663   26.0048 H       1  UNL1        0.2982
     20 N           8.3486   -2.8236   25.2383 N.2     1  UNL1       -0.0985
     21 C           7.1540   -3.7302   25.2673 C.2     1  UNL1        0.3222
     22 H           8.2258   -1.8497   25.1633 H       1  UNL1        0.3633
     23 C           7.3412   -5.2142   25.3816 C.ar    1  UNL1        0.1113
     24 C           7.9945   -6.1013   24.3637 C.ar    1  UNL1        0.0144
     25 C           7.9651   -7.5069   24.8869 C.ar    1  UNL1        0.0077
     26 C           7.2934   -7.4883   26.2281 C.ar    1  UNL1        0.0357
     27 S           6.9079   -6.0713   26.5338 S.2     1  UNL1       -0.0792
@<TRIPOS>BOND
     1    20    21    2
     2    21    18    1
     3    18     1    1
     4     1     2    2
     5     2     3    1
     6     3     4    2
     7     4     5    1
     8     5    10    1
     9    10    11    1
    10    11    12    1
    11    12    13    1
    12    13    14    1
    13    14    15    1
    14    15    16    1
    15    16    17    1
    16     5     6    2
    17     6     7    1
    18     7     8    2
    19     8     9    1
    20    21    23    1
    21    23    24   ar
    22    24    25   ar
    23    25    26   ar
    24    26    27   ar
    25     9     1    1
    26    27    23   ar
    27     8     4    1
    28    15    10    1
    29    17    12    1
    30    20    22    1
    31    18    19    1
@<TRIPOS>MOLECULE
*****
 27 31 0 0 0
SMALL
GASTEIGER

@<TRIPOS>ATOM
      1 C          -9.2632  -18.7081   20.5097 C.2     1  UNL1        0.1186
      2 C          -8.3790  -17.7281   21.2222 C.2     1  UNL1        0.0359
      3 C          -6.9124  -18.0079   21.3658 C.2     1  UNL1        0.0041
      4 C          -6.3299  -19.2676   20.7968 C.2     1  UNL1        0.0117
      5 C          -4.9314  -19.8101   20.7834 C.2     1  UNL1       -0.0009
      6 C          -4.9514  -21.1254   20.0626 C.2     1  UNL1        0.0942
      7 N          -6.3622  -21.3958   19.6305 N.2     1  UNL1       -0.2480
      8 C          -7.2141  -20.2477   20.0843 C.2     1  UNL1        0.0667
      9 C          -8.6808  -19.9679   19.9407 C.3     1  UNL1        0.1127
     10 C          -3.1455  -18.2329   22.0033 C.3     1  UNL1        0.0399
     11 C          -2.4414  -17.5816   21.0443 C.3     1  UNL1        0.0765
     12 N          -1.9879  -17.1636   20.4989 N.3     1  UNL1       -0.2724
     13 C          -1.6841  -16.9207   21.9476 C.3     1  UNL1        0.0721
     14 C          -2.4628  -17.6410   23.0082 C.3     1  UNL1        0.0177
     15 C          -3.5452  -18.6041   22.6202 C.3     1  UNL1        0.0082
     16 C          -3.8490  -18.8470   21.1715 C.3     1  UNL1        0.0177
     17 C          -3.0703  -18.1267   20.1109 C.3     1  UNL1        0.0721
     18 N         -10.7299  -18.4284   20.3662 N.pl3   1  UNL1       -0.2022
     19 H         -11.1264  -18.3269   19.4707 H       1  UNL1        0.2982
     20 N         -13.0105  -17.8312   21.4580 N.2     1  UNL1       -0.0985
     21 C         -11.5926  -18.3033   21.5869 C.2     1  UNL1        0.3222
     22 H         -13.3749  -17.6034   20.5723 H       1  UNL1        0.3633
     23 C         -11.0373  -18.6503   22.9365 C.ar    1  UNL1        0.1113
     24 C         -10.6083  -17.6736   23.9910 C.ar    1  UNL1        0.0144
     25 C         -10.1194  -18.4546   25.1747 C.ar    1  UNL1        0.0077
     26 C         -10.2463  -19.9139   24.8517 C.ar    1  UNL1        0.0357
     27 S         -10.8136  -20.0349   23.4684 S.2     1  UNL1       -0.0792
@<TRIPOS>BOND
     1    20    21    2
     2    21    18    1
     3    18     1    1
     4     1     2    2
     5     2     3    1
     6     3     4    2
     7     4     5    1
     8     5    10    1
     9    10    11    1
    10    11    12    1
    11    12    13    1
    12    13    14    1
    13    14    15    1
    14    15    16    1
    15    16    17    1
    16     5     6    2
    17     6     7    1
    18     7     8    2
    19     8     9    1
    20    21    23    1
    21    23    24   ar
    22    24    25   ar
    23    25    26   ar
    24    26    27   ar
    25     9     1    1
    26    27    23   ar
    27     8     4    1
    28    15    10    1
    29    17    12    1
    30    20    22    1
    31    18    19    1
