@<TRIPOS>MOLECULE
*****
 32 36 0 0 0
SMALL
GASTEIGER

@<TRIPOS>ATOM
      1 C          -6.0028    5.9749   26.8276 C.ar    1  UNL1        0.1056
      2 C          -6.4226    6.2162   25.4079 C.ar    1  UNL1        0.0214
      3 C          -5.5693    5.7195   24.2788 C.ar    1  UNL1        0.0379
      4 C          -4.2960    4.9815   24.5693 C.ar    1  UNL1        0.1342
      5 C          -3.8762    4.7402   25.9890 C.ar    1  UNL1        0.0132
      6 C          -4.7296    5.2370   27.1182 C.ar    1  UNL1        0.0171
      7 C          -2.6031    4.0022   26.2795 C.3     1  UNL1        0.0330
      8 C          -1.7497    3.5055   25.1503 C.3     1  UNL1        0.0449
      9 C          -2.1695    3.7468   23.7306 C.3     1  UNL1        0.1367
     10 C          -0.8963    3.0088   24.0211 C.3     1  UNL1        0.0616
     11 C          -0.0430    2.5121   22.8920 C.3     1  UNL1        0.0985
     12 N          -0.4628    2.7533   21.4723 N.am    1  UNL1       -0.2640
     13 C           0.3906    2.2566   20.3431 C.2     1  UNL1        0.3039
     14 O          -0.0292    2.4978   18.9234 O.2     1  UNL1       -0.2526
     15 N           1.6637    1.5186   20.6336 N.am    1  UNL1       -0.2901
     16 C          -1.7360    3.4913   21.1817 C.3     1  UNL1        0.0985
     17 C          -2.5893    3.9880   22.3109 C.3     1  UNL1        0.0616
     18 O          -3.4427    4.4848   23.4401 O.3     1  UNL1       -0.4828
     19 H           1.9392    1.3603   21.5654 H       1  UNL1        0.1509
     20 C          -7.7095    6.9684   29.0860 C.3     1  UNL1        0.1816
     21 S          -6.8561    6.4717   27.9568 S.O2    1  UNL1        0.0104
     22 O          -5.6252    6.7240   28.7760 O.2     1  UNL1       -0.1686
     23 O          -8.0870    6.2193   27.1376 O.2     1  UNL1       -0.1686
     24 C           2.5171    1.0218   19.5044 C.3     1  UNL1        0.0774
     25 C           3.2022    1.2605   18.1915 C.3     1  UNL1        0.0259
     26 C           3.3101   -0.0772   18.8615 C.3     1  UNL1        0.0420
     27 C           3.8302   -1.4840   18.8772 C.ar    1  UNL1       -0.0208
     28 C           5.0856   -1.8278   18.1316 C.ar    1  UNL1       -0.0042
     29 C           5.6058   -3.2346   18.1473 C.ar    1  UNL1       -0.0003
     30 C           4.8705   -4.2977   18.9085 C.ar    1  UNL1       -0.0000
     31 C           3.6151   -3.9539   19.6541 C.ar    1  UNL1       -0.0003
     32 C           3.0950   -2.5470   19.6384 C.ar    1  UNL1       -0.0042
@<TRIPOS>BOND
     1    20    21    1
     2    21    22    2
     3    21    23    2
     4    21     1    1
     5     1     2   ar
     6     2     3   ar
     7     3     4   ar
     8     4     5   ar
     9     5     6   ar
    10     5     7    1
    11     7     8    1
    12     8     9    1
    13     9    10    1
    14    10    11    1
    15    11    12    1
    16    12    13   am
    17    13    14    2
    18    13    15   am
    19    24    15    1
    20    24    25    1
    21    25    26    1
    22    26    27    1
    23    27    28   ar
    24    28    29   ar
    25    29    30   ar
    26    30    31   ar
    27    31    32   ar
    28    12    16    1
    29    16    17    1
    30     9    18    1
    31     6     1   ar
    32    17     9    1
    33    18     4    1
    34    26    24    1
    35    32    27   ar
    36    15    19    1
@<TRIPOS>MOLECULE
*****
 32 36 0 0 0
SMALL
GASTEIGER

@<TRIPOS>ATOM
      1 C           4.9808    0.1209   34.8849 C.ar    1  UNL1        0.1056
      2 C           6.3113   -0.3935   34.4213 C.ar    1  UNL1        0.0214
      3 C           6.5095   -0.7720   32.9834 C.ar    1  UNL1        0.0379
      4 C           5.3770   -0.6362   32.0092 C.ar    1  UNL1        0.1342
      5 C           4.0464   -0.1217   32.4728 C.ar    1  UNL1        0.0132
      6 C           3.8483    0.2568   33.9107 C.ar    1  UNL1        0.0171
      7 C           2.9140    0.0141   31.4986 C.3     1  UNL1        0.0330
      8 C           3.1121   -0.3644   30.0607 C.3     1  UNL1        0.0449
      9 C           4.4427   -0.8788   29.5971 C.3     1  UNL1        0.1367
     10 C           3.3102   -0.7430   28.6229 C.3     1  UNL1        0.0616
     11 C           3.5083   -1.1215   27.1851 C.3     1  UNL1        0.0985
     12 N           4.8389   -1.6359   26.7214 N.am    1  UNL1       -0.2640
     13 C           5.0370   -2.0145   25.2835 C.2     1  UNL1        0.3039
     14 O           6.3676   -2.5289   24.8198 O.2     1  UNL1       -0.2526
     15 N           3.9046   -1.8786   24.3093 N.am    1  UNL1       -0.2901
     16 C           5.9714   -1.7718   27.6956 C.3     1  UNL1        0.0985
     17 C           5.7732   -1.3932   29.1334 C.3     1  UNL1        0.0616
     18 O           5.5751   -1.0147   30.5713 O.3     1  UNL1       -0.4828
     19 H           3.0313   -1.5409   24.6136 H       1  UNL1        0.1509
     20 C           4.5845    0.8781   37.7606 C.3     1  UNL1        0.1816
     21 S           4.7827    0.4995   36.3227 S.O2    1  UNL1        0.0104
     22 O           5.8014   -0.5225   36.7322 O.2     1  UNL1       -0.1686
     23 O           3.7639    1.5214   35.9133 O.2     1  UNL1       -0.1686
     24 C           4.1027   -2.2571   22.8714 C.3     1  UNL1        0.0774
     25 C           4.7078   -3.1594   21.8371 C.3     1  UNL1        0.0259
     26 C           3.8406   -2.0105   21.4152 C.3     1  UNL1        0.0420
     27 C           3.1886   -1.2049   20.3309 C.ar    1  UNL1       -0.0208
     28 C           1.7731   -0.7358   20.4930 C.ar    1  UNL1       -0.0042
     29 C           1.1212    0.0699   19.4087 C.ar    1  UNL1       -0.0003
     30 C           1.8847    0.4065   18.1621 C.ar    1  UNL1       -0.0000
     31 C           3.3002   -0.0626   18.0000 C.ar    1  UNL1       -0.0003
     32 C           3.9522   -0.8683   19.0844 C.ar    1  UNL1       -0.0042
@<TRIPOS>BOND
     1    20    21    1
     2    21    22    2
     3    21    23    2
     4    21     1    1
     5     1     2   ar
     6     2     3   ar
     7     3     4   ar
     8     4     5   ar
     9     5     6   ar
    10     5     7    1
    11     7     8    1
    12     8     9    1
    13     9    10    1
    14    10    11    1
    15    11    12    1
    16    12    13   am
    17    13    14    2
    18    13    15   am
    19    24    15    1
    20    24    25    1
    21    25    26    1
    22    26    27    1
    23    27    28   ar
    24    28    29   ar
    25    29    30   ar
    26    30    31   ar
    27    31    32   ar
    28    12    16    1
    29    16    17    1
    30     9    18    1
    31     6     1   ar
    32    17     9    1
    33    18     4    1
    34    26    24    1
    35    32    27   ar
    36    15    19    1
@<TRIPOS>MOLECULE
*****
 32 36 0 0 0
SMALL
GASTEIGER

@<TRIPOS>ATOM
      1 C           3.7036    1.3191   36.3830 C.ar    1  UNL1        0.1056
      2 C           4.7330    0.2299   36.4462 C.ar    1  UNL1        0.0214
      3 C           5.1659   -0.4666   35.1903 C.ar    1  UNL1        0.0379
      4 C           4.5695   -0.0740   33.8711 C.ar    1  UNL1        0.1342
      5 C           3.5401    1.0152   33.8079 C.ar    1  UNL1        0.0132
      6 C           3.1071    1.7117   35.0639 C.ar    1  UNL1        0.0171
      7 C           2.9436    1.4078   32.4889 C.3     1  UNL1        0.0330
      8 C           3.3765    0.7112   31.2329 C.3     1  UNL1        0.0449
      9 C           4.4059   -0.3780   31.2961 C.3     1  UNL1        0.1367
     10 C           3.8095    0.0146   29.9770 C.3     1  UNL1        0.0616
     11 C           4.2424   -0.6819   28.7211 C.3     1  UNL1        0.0985
     12 N           5.2718   -1.7711   28.7843 N.am    1  UNL1       -0.2640
     13 C           5.7047   -2.4677   27.5283 C.2     1  UNL1        0.3039
     14 O           6.7341   -3.5569   27.5915 O.2     1  UNL1       -0.2526
     15 N           5.1083   -2.0751   26.2092 N.am    1  UNL1       -0.2901
     16 C           5.8683   -2.1637   30.1034 C.3     1  UNL1        0.0985
     17 C           5.4353   -1.4672   31.3593 C.3     1  UNL1        0.0616
     18 O           5.0024   -0.7706   32.6152 O.3     1  UNL1       -0.4828
     19 H           4.4326   -1.3602   26.1678 H       1  UNL1        0.1509
     20 C           2.8376    2.7123   38.8948 C.3     1  UNL1        0.1816
     21 S           3.2706    2.0157   37.6389 S.O2    1  UNL1        0.0104
     22 O           4.5000    1.5174   38.3391 O.2     1  UNL1       -0.1686
     23 O           2.0413    2.5140   36.9387 O.2     1  UNL1       -0.1686
     24 C           5.5412   -2.7716   24.9532 C.3     1  UNL1        0.0774
     25 C           6.4780   -3.7011   24.2402 C.3     1  UNL1        0.0259
     26 C           5.3542   -3.0486   23.4909 C.3     1  UNL1        0.0420
     27 C           4.5975   -2.8319   22.2141 C.ar    1  UNL1       -0.0208
     28 C           4.6482   -3.8647   21.1276 C.ar    1  UNL1       -0.0042
     29 C           3.8915   -3.6480   19.8508 C.ar    1  UNL1       -0.0003
     30 C           3.0839   -2.3982   19.6604 C.ar    1  UNL1       -0.0000
     31 C           3.0332   -1.3653   20.7470 C.ar    1  UNL1       -0.0003
     32 C           3.7900   -1.5822   22.0238 C.ar    1  UNL1       -0.0042
@<TRIPOS>BOND
     1    20    21    1
     2    21    22    2
     3    21    23    2
     4    21     1    1
     5     1     2   ar
     6     2     3   ar
     7     3     4   ar
     8     4     5   ar
     9     5     6   ar
    10     5     7    1
    11     7     8    1
    12     8     9    1
    13     9    10    1
    14    10    11    1
    15    11    12    1
    16    12    13   am
    17    13    14    2
    18    13    15   am
    19    24    15    1
    20    24    25    1
    21    25    26    1
    22    26    27    1
    23    27    28   ar
    24    28    29   ar
    25    29    30   ar
    26    30    31   ar
    27    31    32   ar
    28    12    16    1
    29    16    17    1
    30     9    18    1
    31     6     1   ar
    32    17     9    1
    33    18     4    1
    34    26    24    1
    35    32    27   ar
    36    15    19    1
@<TRIPOS>MOLECULE
*****
 32 36 0 0 0
SMALL
GASTEIGER

@<TRIPOS>ATOM
      1 C           6.6652   -3.9439   22.9423 C.ar    1  UNL1        0.1056
      2 C           6.4161   -3.0743   24.1388 C.ar    1  UNL1        0.0214
      3 C           5.3250   -2.0456   24.1042 C.ar    1  UNL1        0.0379
      4 C           4.4830   -1.8864   22.8730 C.ar    1  UNL1        0.1342
      5 C           4.7322   -2.7560   21.6764 C.ar    1  UNL1        0.0132
      6 C           5.8233   -3.7848   21.7111 C.ar    1  UNL1        0.0171
      7 C           3.8903   -2.5969   20.4453 C.3     1  UNL1        0.0330
      8 C           2.7991   -1.5681   20.4106 C.3     1  UNL1        0.0449
      9 C           2.5500   -0.6985   21.6071 C.3     1  UNL1        0.1367
     10 C           1.7081   -0.5394   20.3759 C.3     1  UNL1        0.0616
     11 C           0.6170    0.4893   20.3413 C.3     1  UNL1        0.0985
     12 N           0.3679    1.3589   21.5379 N.am    1  UNL1       -0.2640
     13 C          -0.7233    2.3877   21.5032 C.2     1  UNL1        0.3039
     14 O          -0.9724    3.2573   22.6997 O.2     1  UNL1       -0.2526
     15 N          -1.5652    2.5468   20.2720 N.am    1  UNL1       -0.2901
     16 C           1.2098    1.1998   22.7690 C.3     1  UNL1        0.0985
     17 C           2.3008    0.1711   22.8037 C.3     1  UNL1        0.0616
     18 O           3.3920   -0.8577   22.8383 O.3     1  UNL1       -0.4828
     19 H          -1.4016    1.9761   19.4867 H       1  UNL1        0.1509
     20 C           8.8474   -6.0014   23.0115 C.3     1  UNL1        0.1816
     21 S           7.7563   -4.9726   22.9769 S.O2    1  UNL1        0.0104
     22 O           7.7708   -4.9068   24.4753 O.2     1  UNL1       -0.1686
     23 O           7.7418   -5.0385   21.4784 O.2     1  UNL1       -0.1686
     24 C          -2.6563    3.5756   20.2373 C.3     1  UNL1        0.0774
     25 C          -3.3263    4.7364   19.5638 C.3     1  UNL1        0.0259
     26 C          -3.8762    4.1966   20.8508 C.3     1  UNL1        0.0420
     27 C          -4.8979    4.2435   21.9479 C.ar    1  UNL1       -0.0208
     28 C          -6.3161    4.6199   21.6365 C.ar    1  UNL1       -0.0042
     29 C          -7.3378    4.6668   22.7337 C.ar    1  UNL1       -0.0003
     30 C          -6.9414    4.3373   24.1424 C.ar    1  UNL1       -0.0000
     31 C          -5.5231    3.9609   24.4538 C.ar    1  UNL1       -0.0003
     32 C          -4.5014    3.9140   23.3565 C.ar    1  UNL1       -0.0042
@<TRIPOS>BOND
     1    20    21    1
     2    21    22    2
     3    21    23    2
     4    21     1    1
     5     1     2   ar
     6     2     3   ar
     7     3     4   ar
     8     4     5   ar
     9     5     6   ar
    10     5     7    1
    11     7     8    1
    12     8     9    1
    13     9    10    1
    14    10    11    1
    15    11    12    1
    16    12    13   am
    17    13    14    2
    18    13    15   am
    19    24    15    1
    20    24    25    1
    21    25    26    1
    22    26    27    1
    23    27    28   ar
    24    28    29   ar
    25    29    30   ar
    26    30    31   ar
    27    31    32   ar
    28    12    16    1
    29    16    17    1
    30     9    18    1
    31     6     1   ar
    32    17     9    1
    33    18     4    1
    34    26    24    1
    35    32    27   ar
    36    15    19    1
@<TRIPOS>MOLECULE
*****
 32 36 0 0 0
SMALL
GASTEIGER

@<TRIPOS>ATOM
      1 C          -1.8404    3.5474   22.8543 C.ar    1  UNL1        0.1056
      2 C          -0.5652    2.9497   22.3380 C.ar    1  UNL1        0.0214
      3 C           0.3801    2.2685   23.2825 C.ar    1  UNL1        0.0379
      4 C           0.0503    2.1849   24.7435 C.ar    1  UNL1        0.1342
      5 C          -1.2249    2.7826   25.2598 C.ar    1  UNL1        0.0132
      6 C          -2.1703    3.4639   24.3152 C.ar    1  UNL1        0.0171
      7 C          -1.5548    2.6991   26.7207 C.3     1  UNL1        0.0330
      8 C          -0.6094    2.0179   27.6653 C.3     1  UNL1        0.0449
      9 C           0.6658    1.4202   27.1490 C.3     1  UNL1        0.1367
     10 C           0.3359    1.3367   28.6098 C.3     1  UNL1        0.0616
     11 C           1.2813    0.6555   29.5544 C.3     1  UNL1        0.0985
     12 N           2.5565    0.0578   29.0381 N.am    1  UNL1       -0.2640
     13 C           3.5019   -0.6235   29.9827 C.2     1  UNL1        0.3039
     14 O           4.7771   -1.2212   29.4664 O.2     1  UNL1       -0.2526
     15 N           3.1720   -0.7070   31.4436 N.am    1  UNL1       -0.2901
     16 C           2.8864    0.1413   27.5772 C.3     1  UNL1        0.0985
     17 C           1.9410    0.8225   26.6327 C.3     1  UNL1        0.0616
     18 O           0.9956    1.5037   25.6880 O.3     1  UNL1       -0.4828
     19 H           2.3350   -0.3147   31.7824 H       1  UNL1        0.1509
     20 C          -3.7312    4.9099   20.9652 C.3     1  UNL1        0.1816
     21 S          -2.7858    4.2286   21.9098 S.O2    1  UNL1        0.0104
     22 O          -3.0389    2.9209   21.2200 O.2     1  UNL1       -0.1686
     23 O          -2.5327    5.5363   22.5996 O.2     1  UNL1       -0.1686
     24 C           4.1174   -1.3883   32.3882 C.3     1  UNL1        0.0774
     25 C           4.8820   -2.6095   32.8050 C.3     1  UNL1        0.0259
     26 C           4.9901   -1.3469   33.6075 C.3     1  UNL1        0.0420
     27 C           5.5564   -0.5940   34.7747 C.ar    1  UNL1       -0.0208
     28 C           7.0019   -0.1936   34.7789 C.ar    1  UNL1       -0.0042
     29 C           7.5682    0.5593   35.9461 C.ar    1  UNL1       -0.0003
     30 C           6.6889    0.9118   37.1092 C.ar    1  UNL1       -0.0000
     31 C           5.2434    0.5114   37.1050 C.ar    1  UNL1       -0.0003
     32 C           4.6771   -0.2415   35.9377 C.ar    1  UNL1       -0.0042
@<TRIPOS>BOND
     1    20    21    1
     2    21    22    2
     3    21    23    2
     4    21     1    1
     5     1     2   ar
     6     2     3   ar
     7     3     4   ar
     8     4     5   ar
     9     5     6   ar
    10     5     7    1
    11     7     8    1
    12     8     9    1
    13     9    10    1
    14    10    11    1
    15    11    12    1
    16    12    13   am
    17    13    14    2
    18    13    15   am
    19    24    15    1
    20    24    25    1
    21    25    26    1
    22    26    27    1
    23    27    28   ar
    24    28    29   ar
    25    29    30   ar
    26    30    31   ar
    27    31    32   ar
    28    12    16    1
    29    16    17    1
    30     9    18    1
    31     6     1   ar
    32    17     9    1
    33    18     4    1
    34    26    24    1
    35    32    27   ar
    36    15    19    1
@<TRIPOS>MOLECULE
*****
 32 36 0 0 0
SMALL
GASTEIGER

@<TRIPOS>ATOM
      1 C           3.2945    1.5800   34.1290 C.ar    1  UNL1        0.1056
      2 C           2.2816    2.3231   33.3093 C.ar    1  UNL1        0.0214
      3 C           2.1655    2.0556   31.8379 C.ar    1  UNL1        0.0379
      4 C           3.0622    1.0451   31.1862 C.ar    1  UNL1        0.1342
      5 C           4.0751    0.3020   32.0059 C.ar    1  UNL1        0.0132
      6 C           4.1913    0.5695   33.4773 C.ar    1  UNL1        0.0171
      7 C           4.9719   -0.7085   31.3543 C.3     1  UNL1        0.0330
      8 C           4.8558   -0.9760   29.8828 C.3     1  UNL1        0.0449
      9 C           3.8429   -0.2329   29.0631 C.3     1  UNL1        0.1367
     10 C           4.7396   -1.2434   28.4115 C.3     1  UNL1        0.0616
     11 C           4.6235   -1.5108   26.9401 C.3     1  UNL1        0.0985
     12 N           3.6106   -0.7678   26.1204 N.am    1  UNL1       -0.2640
     13 C           3.4945   -1.0353   24.6490 C.2     1  UNL1        0.3039
     14 O           2.4816   -0.2922   23.8293 O.2     1  UNL1       -0.2526
     15 N           4.3912   -2.0458   23.9973 N.am    1  UNL1       -0.2901
     16 C           2.7138    0.2427   26.7721 C.3     1  UNL1        0.0985
     17 C           2.8300    0.5102   28.2434 C.3     1  UNL1        0.0616
     18 O           2.9461    0.7776   29.7148 O.3     1  UNL1       -0.4828
     19 H           5.0560   -2.5335   24.5353 H       1  UNL1        0.1509
     20 C           3.5269    2.1149   37.0718 C.3     1  UNL1        0.1816
     21 S           3.4107    1.8474   35.6003 S.O2    1  UNL1        0.0104
     22 O           2.0668    2.5135   35.5854 O.2     1  UNL1       -0.1686
     23 O           4.7545    1.1814   35.6153 O.2     1  UNL1       -0.1686
     24 C           4.2751   -2.3133   22.5259 C.3     1  UNL1        0.0774
     25 C           4.5922   -3.1628   21.3310 C.3     1  UNL1        0.0259
     26 C           3.7569   -1.9271   21.1723 C.3     1  UNL1        0.0420
     27 C           2.9754   -0.9907   20.2991 C.ar    1  UNL1       -0.0208
     28 C           3.6501   -0.2922   19.1559 C.ar    1  UNL1       -0.0042
     29 C           2.8686    0.6442   18.2828 C.ar    1  UNL1       -0.0003
     30 C           1.4123    0.8822   18.5528 C.ar    1  UNL1       -0.0000
     31 C           0.7377    0.1836   19.6960 C.ar    1  UNL1       -0.0003
     32 C           1.5192   -0.7528   20.5692 C.ar    1  UNL1       -0.0042
@<TRIPOS>BOND
     1    20    21    1
     2    21    22    2
     3    21    23    2
     4    21     1    1
     5     1     2   ar
     6     2     3   ar
     7     3     4   ar
     8     4     5   ar
     9     5     6   ar
    10     5     7    1
    11     7     8    1
    12     8     9    1
    13     9    10    1
    14    10    11    1
    15    11    12    1
    16    12    13   am
    17    13    14    2
    18    13    15   am
    19    24    15    1
    20    24    25    1
    21    25    26    1
    22    26    27    1
    23    27    28   ar
    24    28    29   ar
    25    29    30   ar
    26    30    31   ar
    27    31    32   ar
    28    12    16    1
    29    16    17    1
    30     9    18    1
    31     6     1   ar
    32    17     9    1
    33    18     4    1
    34    26    24    1
    35    32    27   ar
    36    15    19    1
@<TRIPOS>MOLECULE
*****
 32 36 0 0 0
SMALL
GASTEIGER

@<TRIPOS>ATOM
      1 C          -0.6793    2.4725   20.8085 C.ar    1  UNL1        0.1056
      2 C          -0.4896    2.8233   22.2545 C.ar    1  UNL1        0.0214
      3 C           0.4934    2.0573   23.0893 C.ar    1  UNL1        0.0379
      4 C           1.2867    0.9405   22.4782 C.ar    1  UNL1        0.1342
      5 C           1.0970    0.5897   21.0322 C.ar    1  UNL1        0.0132
      6 C           0.1139    1.3558   20.1973 C.ar    1  UNL1        0.0171
      7 C           1.8902   -0.5270   20.4210 C.3     1  UNL1        0.0330
      8 C           2.8733   -1.2930   21.2559 C.3     1  UNL1        0.0449
      9 C           3.0630   -0.9423   22.7019 C.3     1  UNL1        0.1367
     10 C           3.8562   -2.0590   22.0907 C.3     1  UNL1        0.0616
     11 C           4.8392   -2.8250   22.9256 C.3     1  UNL1        0.0985
     12 N           5.0289   -2.4742   24.3716 N.am    1  UNL1       -0.2640
     13 C           6.0119   -3.2402   25.2064 C.2     1  UNL1        0.3039
     14 O           6.2017   -2.8894   26.6524 O.2     1  UNL1       -0.2526
     15 N           6.8052   -4.3570   24.5953 N.am    1  UNL1       -0.2901
     16 C           4.2357   -1.3574   24.9827 C.3     1  UNL1        0.0985
     17 C           3.2527   -0.5915   24.1479 C.3     1  UNL1        0.0616
     18 O           2.2696    0.1746   23.3130 O.3     1  UNL1       -0.4828
     19 H           6.6807   -4.5872   23.6462 H       1  UNL1        0.1509
     20 C          -2.6453    4.0045   19.1387 C.3     1  UNL1        0.1816
     21 S          -1.6623    3.2385   19.9736 S.O2    1  UNL1        0.0104
     22 O          -2.7711    2.8153   20.8909 O.2     1  UNL1       -0.1686
     23 O          -0.5535    3.6617   19.0564 O.2     1  UNL1       -0.1686
     24 C           7.7882   -5.1230   25.4301 C.3     1  UNL1        0.0774
     25 C           8.9362   -6.0831   25.5315 C.3     1  UNL1        0.0259
     26 C           8.3429   -5.4897   26.7747 C.3     1  UNL1        0.0420
     27 C           8.3204   -5.3588   28.2688 C.ar    1  UNL1       -0.0208
     28 C           7.0834   -5.7226   29.0351 C.ar    1  UNL1       -0.0042
     29 C           7.0610   -5.5917   30.5292 C.ar    1  UNL1       -0.0003
     30 C           8.2757   -5.0969   31.2570 C.ar    1  UNL1       -0.0000
     31 C           9.5128   -4.7331   30.4907 C.ar    1  UNL1       -0.0003
     32 C           9.5351   -4.8640   28.9966 C.ar    1  UNL1       -0.0042
@<TRIPOS>BOND
     1    20    21    1
     2    21    22    2
     3    21    23    2
     4    21     1    1
     5     1     2   ar
     6     2     3   ar
     7     3     4   ar
     8     4     5   ar
     9     5     6   ar
    10     5     7    1
    11     7     8    1
    12     8     9    1
    13     9    10    1
    14    10    11    1
    15    11    12    1
    16    12    13   am
    17    13    14    2
    18    13    15   am
    19    24    15    1
    20    24    25    1
    21    25    26    1
    22    26    27    1
    23    27    28   ar
    24    28    29   ar
    25    29    30   ar
    26    30    31   ar
    27    31    32   ar
    28    12    16    1
    29    16    17    1
    30     9    18    1
    31     6     1   ar
    32    17     9    1
    33    18     4    1
    34    26    24    1
    35    32    27   ar
    36    15    19    1
@<TRIPOS>MOLECULE
*****
 32 36 0 0 0
SMALL
GASTEIGER

@<TRIPOS>ATOM
      1 C           7.0728   -4.2786   22.5270 C.ar    1  UNL1        0.1056
      2 C           6.1064   -3.8616   23.5958 C.ar    1  UNL1        0.0214
      3 C           5.0012   -2.8999   23.2739 C.ar    1  UNL1        0.0379
      4 C           4.8623   -2.3551   21.8832 C.ar    1  UNL1        0.1342
      5 C           5.8287   -2.7721   20.8144 C.ar    1  UNL1        0.0132
      6 C           6.9339   -3.7339   21.1363 C.ar    1  UNL1        0.0171
      7 C           5.6899   -2.2274   19.4237 C.3     1  UNL1        0.0330
      8 C           4.5846   -1.2657   19.1018 C.3     1  UNL1        0.0449
      9 C           3.6183   -0.8487   20.1706 C.3     1  UNL1        0.1367
     10 C           3.4795   -0.3040   18.7799 C.3     1  UNL1        0.0616
     11 C           2.3743    0.6577   18.4580 C.3     1  UNL1        0.0985
     12 N           1.4079    1.0747   19.5268 N.am    1  UNL1       -0.2640
     13 C           0.3027    2.0365   19.2048 C.2     1  UNL1        0.3039
     14 O          -0.6637    2.4534   20.2736 O.2     1  UNL1       -0.2526
     15 N           0.1638    2.5812   17.8142 N.am    1  UNL1       -0.2901
     16 C           1.5467    0.5300   20.9174 C.3     1  UNL1        0.0985
     17 C           2.6519   -0.4317   21.2393 C.3     1  UNL1        0.0616
     18 O           3.7572   -1.3935   21.5613 O.3     1  UNL1       -0.4828
     19 H           0.7981    2.3075   17.1127 H       1  UNL1        0.1509
     20 C           9.2832   -6.2020   23.1707 C.3     1  UNL1        0.1816
     21 S           8.1779   -5.2403   22.8489 S.O2    1  UNL1        0.0104
     22 O           8.0927   -4.8540   24.2957 O.2     1  UNL1       -0.1686
     23 O           8.2632   -5.6266   21.4020 O.2     1  UNL1       -0.1686
     24 C          -0.9414    3.5429   17.4922 C.3     1  UNL1        0.0774
     25 C          -1.4801    4.6736   16.6669 C.3     1  UNL1        0.0259
     26 C          -2.3169    4.0779   17.7600 C.3     1  UNL1        0.0420
     27 C          -3.5942    4.0429   18.5456 C.ar    1  UNL1       -0.0208
     28 C          -4.8789    3.6611   17.8720 C.ar    1  UNL1       -0.0042
     29 C          -6.1561    3.6260   18.6576 C.ar    1  UNL1       -0.0003
     30 C          -6.1488    3.9728   20.1170 C.ar    1  UNL1       -0.0000
     31 C          -4.8641    4.3546   20.7907 C.ar    1  UNL1       -0.0003
     32 C          -3.5868    4.3897   20.0049 C.ar    1  UNL1       -0.0042
@<TRIPOS>BOND
     1    20    21    1
     2    21    22    2
     3    21    23    2
     4    21     1    1
     5     1     2   ar
     6     2     3   ar
     7     3     4   ar
     8     4     5   ar
     9     5     6   ar
    10     5     7    1
    11     7     8    1
    12     8     9    1
    13     9    10    1
    14    10    11    1
    15    11    12    1
    16    12    13   am
    17    13    14    2
    18    13    15   am
    19    24    15    1
    20    24    25    1
    21    25    26    1
    22    26    27    1
    23    27    28   ar
    24    28    29   ar
    25    29    30   ar
    26    30    31   ar
    27    31    32   ar
    28    12    16    1
    29    16    17    1
    30     9    18    1
    31     6     1   ar
    32    17     9    1
    33    18     4    1
    34    26    24    1
    35    32    27   ar
    36    15    19    1
@<TRIPOS>MOLECULE
*****
 32 36 0 0 0
SMALL
GASTEIGER

@<TRIPOS>ATOM
      1 C           7.6874   -5.3228   26.2305 C.ar    1  UNL1        0.1056
      2 C           7.5563   -3.8927   25.7975 C.ar    1  UNL1        0.0214
      3 C           7.2101   -2.8337   26.8017 C.ar    1  UNL1        0.0379
      4 C           6.9948   -3.2048   28.2391 C.ar    1  UNL1        0.1342
      5 C           7.1258   -4.6350   28.6722 C.ar    1  UNL1        0.0132
      6 C           7.4721   -5.6940   27.6678 C.ar    1  UNL1        0.0171
      7 C           6.9106   -5.0061   30.1094 C.3     1  UNL1        0.0330
      8 C           6.5643   -3.9471   31.1138 C.3     1  UNL1        0.0449
      9 C           6.4333   -2.5170   30.6808 C.3     1  UNL1        0.1367
     10 C           6.2180   -2.8881   32.1181 C.3     1  UNL1        0.0616
     11 C           5.8717   -1.8291   33.1223 C.3     1  UNL1        0.0985
     12 N           5.7407   -0.3990   32.6893 N.am    1  UNL1       -0.2640
     13 C           5.3944    0.6600   33.6936 C.2     1  UNL1        0.3039
     14 O           5.2633    2.0902   33.2606 O.2     1  UNL1       -0.2526
     15 N           5.1791    0.2889   35.1309 N.am    1  UNL1       -0.2901
     16 C           5.9559   -0.0278   31.2520 C.3     1  UNL1        0.0985
     17 C           6.3022   -1.0868   30.2477 C.3     1  UNL1        0.0616
     18 O           6.6485   -2.1458   29.2434 O.3     1  UNL1       -0.4828
     19 H           5.2651   -0.6498   35.4151 H       1  UNL1        0.1509
     20 C           8.3800   -7.4409   24.2220 C.3     1  UNL1        0.1816
     21 S           8.0337   -6.3818   25.2262 S.O2    1  UNL1        0.0104
     22 O           7.4398   -5.5412   24.1351 O.2     1  UNL1       -0.1686
     23 O           8.6276   -7.2224   26.3174 O.2     1  UNL1       -0.1686
     24 C           4.8328    1.3479   36.1353 C.3     1  UNL1        0.0774
     25 C           5.1290    2.6653   36.7885 C.3     1  UNL1        0.0259
     26 C           3.9369    1.8647   37.2216 C.3     1  UNL1        0.0420
     27 C           2.7313    1.7008   38.0989 C.ar    1  UNL1       -0.0208
     28 C           2.4918    0.4017   38.8095 C.ar    1  UNL1       -0.0042
     29 C           1.2862    0.2378   39.6867 C.ar    1  UNL1       -0.0003
     30 C           0.3200    1.3731   39.8535 C.ar    1  UNL1       -0.0000
     31 C           0.5595    2.6722   39.1429 C.ar    1  UNL1       -0.0003
     32 C           1.7652    2.8360   38.2656 C.ar    1  UNL1       -0.0042
@<TRIPOS>BOND
     1    20    21    1
     2    21    22    2
     3    21    23    2
     4    21     1    1
     5     1     2   ar
     6     2     3   ar
     7     3     4   ar
     8     4     5   ar
     9     5     6   ar
    10     5     7    1
    11     7     8    1
    12     8     9    1
    13     9    10    1
    14    10    11    1
    15    11    12    1
    16    12    13   am
    17    13    14    2
    18    13    15   am
    19    24    15    1
    20    24    25    1
    21    25    26    1
    22    26    27    1
    23    27    28   ar
    24    28    29   ar
    25    29    30   ar
    26    30    31   ar
    27    31    32   ar
    28    12    16    1
    29    16    17    1
    30     9    18    1
    31     6     1   ar
    32    17     9    1
    33    18     4    1
    34    26    24    1
    35    32    27   ar
    36    15    19    1
