@<TRIPOS>MOLECULE
*****
 22 25 0 0 0
SMALL
GASTEIGER

@<TRIPOS>ATOM
      1 C          -3.1176  -17.1462   23.3749 C.3     1  UNL1        0.0742
      2 C          -2.9953  -18.3038   22.4289 C.ar    1  UNL1        0.1473
      3 N          -1.7165  -18.9583   21.9972 N.ar    1  UNL1       -0.1333
      4 N          -2.0611  -20.0691   21.0499 N.ar    1  UNL1       -0.1333
      5 C          -3.5529  -20.1012   20.8962 C.ar    1  UNL1        0.1472
      6 N          -4.1302  -19.0101   21.7484 N.ar    1  UNL1       -0.2788
      7 C          -5.6148  -18.8007   21.7948 C.ar    1  UNL1        0.0896
      8 C          -6.1922  -17.7097   22.6470 C.ar    1  UNL1        0.1558
      9 F          -5.2849  -16.8280   23.4529 F       1  UNL1       -0.2026
     10 C          -7.6768  -17.5004   22.6933 C.ar    1  UNL1        0.0312
     11 C          -8.5840  -18.3820   21.8874 C.ar    1  UNL1        0.0036
     12 C          -8.0067  -19.4731   21.0352 C.ar    1  UNL1       -0.0026
     13 C          -6.5220  -19.6825   20.9888 C.ar    1  UNL1       -0.0034
     14 C          -5.9447  -20.7735   20.1367 C.3     1  UNL1        0.0359
     15 C          -4.4602  -20.9829   20.0903 C.3     1  UNL1        0.0709
     16 C         -10.0686  -18.1727   21.9338 C.ar    1  UNL1        0.0215
     17 C         -10.8074  -17.7634   20.6941 C.ar    1  UNL1        0.0990
     18 N         -12.2919  -17.5540   20.7404 N.ar    1  UNL1       -0.2400
     19 C         -13.0378  -17.7539   22.0263 C.ar    1  UNL1        0.1284
     20 C         -12.2991  -18.1631   23.2660 C.ar    1  UNL1        0.1592
     21 F         -13.0449  -18.3629   24.5520 F       1  UNL1       -0.2025
     22 C         -10.8144  -18.3725   23.2198 C.ar    1  UNL1        0.0328
@<TRIPOS>BOND
     1     1     2    1
     2     2     3   ar
     3     3     4   ar
     4     4     5   ar
     5     5     6   ar
     6     6     7    1
     7     7     8   ar
     8     8     9    1
     9     8    10   ar
    10    10    11   ar
    11    11    16    1
    12    16    17   ar
    13    17    18   ar
    14    18    19   ar
    15    19    20   ar
    16    20    21    1
    17    20    22   ar
    18    11    12   ar
    19    12    13   ar
    20    13    14    1
    21    14    15    1
    22     6     2   ar
    23    13     7   ar
    24    15     5    1
    25    22    16   ar
@<TRIPOS>MOLECULE
*****
 22 25 0 0 0
SMALL
GASTEIGER

@<TRIPOS>ATOM
      1 C          -3.8854  -21.0466   19.7937 C.3     1  UNL1        0.0742
      2 C          -3.3633  -20.0643   20.7999 C.ar    1  UNL1        0.1473
      3 N          -1.9231  -19.8570   21.1646 N.ar    1  UNL1       -0.1333
      4 N          -1.8593  -18.7815   22.2082 N.ar    1  UNL1       -0.1333
      5 C          -3.2601  -18.3240   22.4885 C.ar    1  UNL1        0.1472
      6 N          -4.1895  -19.1168   21.6182 N.ar    1  UNL1       -0.2788
      7 C          -5.6683  -18.8736   21.6831 C.ar    1  UNL1        0.0896
      8 C          -6.5978  -19.6664   20.8128 C.ar    1  UNL1        0.1558
      9 F          -6.0486  -20.7025   19.8774 F       1  UNL1       -0.2026
     10 C          -8.0765  -19.4231   20.8778 C.ar    1  UNL1        0.0312
     11 C          -8.6257  -18.3871   21.8132 C.ar    1  UNL1        0.0036
     12 C          -7.6963  -17.5942   22.6836 C.ar    1  UNL1       -0.0026
     13 C          -6.2175  -17.8375   22.6186 C.ar    1  UNL1       -0.0034
     14 C          -5.2880  -17.0447   23.4889 C.3     1  UNL1        0.0359
     15 C          -3.8093  -17.2880   23.4239 C.3     1  UNL1        0.0709
     16 C         -10.1044  -18.1438   21.8782 C.ar    1  UNL1        0.0215
     17 C         -10.8428  -17.6815   20.6571 C.ar    1  UNL1        0.0990
     18 N         -12.3215  -17.4383   20.7220 N.ar    1  UNL1       -0.2400
     19 C         -13.0619  -17.6573   22.0080 C.ar    1  UNL1        0.1284
     20 C         -12.3235  -18.1196   23.2291 C.ar    1  UNL1        0.1592
     21 F         -13.0639  -18.3387   24.5152 F       1  UNL1       -0.2025
     22 C         -10.8448  -18.3629   23.1642 C.ar    1  UNL1        0.0328
@<TRIPOS>BOND
     1     1     2    1
     2     2     3   ar
     3     3     4   ar
     4     4     5   ar
     5     5     6   ar
     6     6     7    1
     7     7     8   ar
     8     8     9    1
     9     8    10   ar
    10    10    11   ar
    11    11    16    1
    12    16    17   ar
    13    17    18   ar
    14    18    19   ar
    15    19    20   ar
    16    20    21    1
    17    20    22   ar
    18    11    12   ar
    19    12    13   ar
    20    13    14    1
    21    14    15    1
    22     6     2   ar
    23    13     7   ar
    24    15     5    1
    25    22    16   ar
@<TRIPOS>MOLECULE
*****
 22 25 0 0 0
SMALL
GASTEIGER

@<TRIPOS>ATOM
      1 C          -3.9943  -21.0477   19.8266 C.3     1  UNL1        0.0742
      2 C          -3.3678  -20.0744   20.7805 C.ar    1  UNL1        0.1473
      3 N          -1.8984  -19.9070   21.0310 N.ar    1  UNL1       -0.1333
      4 N          -1.7231  -18.8267   22.0568 N.ar    1  UNL1       -0.1333
      5 C          -3.0842  -18.3264   22.4403 C.ar    1  UNL1        0.1472
      6 N          -4.1007  -19.0975   21.6515 N.ar    1  UNL1       -0.2788
      7 C          -5.5623  -18.8106   21.8283 C.ar    1  UNL1        0.0896
      8 C          -6.5789  -19.5817   21.0396 C.ar    1  UNL1        0.1558
      9 F          -6.1337  -20.6398   20.0740 F       1  UNL1       -0.2026
     10 C          -8.0404  -19.2947   21.2164 C.ar    1  UNL1        0.0312
     11 C          -8.4856  -18.2366   22.1820 C.ar    1  UNL1        0.0036
     12 C          -7.4691  -17.4655   22.9708 C.ar    1  UNL1       -0.0026
     13 C          -6.0074  -17.7525   22.7939 C.ar    1  UNL1       -0.0034
     14 C          -4.9910  -16.9814   23.5826 C.3     1  UNL1        0.0359
     15 C          -3.5293  -17.2683   23.4059 C.3     1  UNL1        0.0709
     16 C          -9.9472  -17.9497   22.3588 C.ar    1  UNL1        0.0215
     17 C         -10.6712  -18.4623   23.5684 C.ar    1  UNL1        0.0990
     18 N         -12.1328  -18.1754   23.7452 N.ar    1  UNL1       -0.2400
     19 C         -12.8706  -17.3759   22.7125 C.ar    1  UNL1        0.1284
     20 C         -12.1466  -16.8633   21.5029 C.ar    1  UNL1        0.1592
     21 F         -12.8843  -16.0638   20.4700 F       1  UNL1       -0.2025
     22 C         -10.6849  -17.1502   21.3260 C.ar    1  UNL1        0.0328
@<TRIPOS>BOND
     1     1     2    1
     2     2     3   ar
     3     3     4   ar
     4     4     5   ar
     5     5     6   ar
     6     6     7    1
     7     7     8   ar
     8     8     9    1
     9     8    10   ar
    10    10    11   ar
    11    11    16    1
    12    16    17   ar
    13    17    18   ar
    14    18    19   ar
    15    19    20   ar
    16    20    21    1
    17    20    22   ar
    18    11    12   ar
    19    12    13   ar
    20    13    14    1
    21    14    15    1
    22     6     2   ar
    23    13     7   ar
    24    15     5    1
    25    22    16   ar
@<TRIPOS>MOLECULE
*****
 22 25 0 0 0
SMALL
GASTEIGER

@<TRIPOS>ATOM
      1 C         -10.7103   -7.6413   17.8528 C.3     1  UNL1        0.0742
      2 C         -10.6298   -6.1819   18.1903 C.ar    1  UNL1        0.1473
      3 N          -9.3977   -5.3289   18.1269 N.ar    1  UNL1       -0.1333
      4 N          -9.7737   -3.9392   18.5478 N.ar    1  UNL1       -0.1333
      5 C         -11.2384   -3.9333   18.8715 C.ar    1  UNL1        0.1472
      6 N         -11.7675   -5.3194   18.6505 N.ar    1  UNL1       -0.2788
      7 C         -13.2168   -5.6171   18.8969 C.ar    1  UNL1        0.0896
      8 C         -13.7460   -7.0032   18.6759 C.ar    1  UNL1        0.1558
      9 F         -12.8257   -8.0916   18.2086 F       1  UNL1       -0.2026
     10 C         -15.1954   -7.3007   18.9223 C.ar    1  UNL1        0.0312
     11 C         -16.1156   -6.2123   19.3897 C.ar    1  UNL1        0.0036
     12 C         -15.5866   -4.8262   19.6107 C.ar    1  UNL1       -0.0026
     13 C         -14.1371   -4.5286   19.3643 C.ar    1  UNL1       -0.0034
     14 C         -13.6080   -3.1426   19.5852 C.3     1  UNL1        0.0359
     15 C         -12.1587   -2.8449   19.3388 C.3     1  UNL1        0.0709
     16 C         -17.5650   -6.5100   19.6361 C.ar    1  UNL1        0.0215
     17 C         -18.5869   -5.4195   19.5082 C.ar    1  UNL1        0.0990
     18 N         -20.0363   -5.7170   19.7546 N.ar    1  UNL1       -0.2400
     19 C         -20.4638   -7.1053   20.1288 C.ar    1  UNL1        0.1284
     20 C         -19.4419   -8.1959   20.2567 C.ar    1  UNL1        0.1592
     21 F         -19.8694   -9.5841   20.6309 F       1  UNL1       -0.2025
     22 C         -17.9925   -7.8983   20.0103 C.ar    1  UNL1        0.0328
@<TRIPOS>BOND
     1     1     2    1
     2     2     3   ar
     3     3     4   ar
     4     4     5   ar
     5     5     6   ar
     6     6     7    1
     7     7     8   ar
     8     8     9    1
     9     8    10   ar
    10    10    11   ar
    11    11    16    1
    12    16    17   ar
    13    17    18   ar
    14    18    19   ar
    15    19    20   ar
    16    20    21    1
    17    20    22   ar
    18    11    12   ar
    19    12    13   ar
    20    13    14    1
    21    14    15    1
    22     6     2   ar
    23    13     7   ar
    24    15     5    1
    25    22    16   ar
@<TRIPOS>MOLECULE
*****
 22 25 0 0 0
SMALL
GASTEIGER

@<TRIPOS>ATOM
      1 C         -10.5207   -7.4803   17.5319 C.3     1  UNL1        0.0742
      2 C         -10.7574   -6.1346   18.1508 C.ar    1  UNL1        0.1473
      3 N          -9.7357   -5.0493   18.3187 N.ar    1  UNL1       -0.1333
      4 N         -10.4042   -3.8818   18.9822 N.ar    1  UNL1       -0.1333
      5 C         -11.8391   -4.2456   19.2244 C.ar    1  UNL1        0.1472
      6 N         -12.0574   -5.6379   18.7105 N.ar    1  UNL1       -0.2788
      7 C         -13.4117   -6.2735   18.8187 C.ar    1  UNL1        0.0896
      8 C         -13.6301   -7.6658   18.3049 C.ar    1  UNL1        0.1558
      9 F         -12.4941   -8.4224   17.6829 F       1  UNL1       -0.2026
     10 C         -14.9845   -8.3013   18.4131 C.ar    1  UNL1        0.0312
     11 C         -16.1205   -7.5447   19.0351 C.ar    1  UNL1        0.0036
     12 C         -15.9022   -6.1525   19.5490 C.ar    1  UNL1       -0.0026
     13 C         -14.5478   -5.5168   19.4408 C.ar    1  UNL1       -0.0034
     14 C         -14.3295   -4.1247   19.9546 C.3     1  UNL1        0.0359
     15 C         -12.9752   -3.4890   19.8464 C.3     1  UNL1        0.0709
     16 C         -17.4748   -8.1804   19.1433 C.ar    1  UNL1        0.0215
     17 C         -18.0118   -8.9995   18.0072 C.ar    1  UNL1        0.0990
     18 N         -19.3661   -9.6352   18.1153 N.ar    1  UNL1       -0.2400
     19 C         -20.1836   -9.4518   19.3596 C.ar    1  UNL1        0.1284
     20 C         -19.6466   -8.6327   20.4957 C.ar    1  UNL1        0.1592
     21 F         -20.4640   -8.4492   21.7400 F       1  UNL1       -0.2025
     22 C         -18.2922   -7.9969   20.3876 C.ar    1  UNL1        0.0328
@<TRIPOS>BOND
     1     1     2    1
     2     2     3   ar
     3     3     4   ar
     4     4     5   ar
     5     5     6   ar
     6     6     7    1
     7     7     8   ar
     8     8     9    1
     9     8    10   ar
    10    10    11   ar
    11    11    16    1
    12    16    17   ar
    13    17    18   ar
    14    18    19   ar
    15    19    20   ar
    16    20    21    1
    17    20    22   ar
    18    11    12   ar
    19    12    13   ar
    20    13    14    1
    21    14    15    1
    22     6     2   ar
    23    13     7   ar
    24    15     5    1
    25    22    16   ar
@<TRIPOS>MOLECULE
*****
 22 25 0 0 0
SMALL
GASTEIGER

@<TRIPOS>ATOM
      1 C         -10.4019   -4.4791   15.9827 C.3     1  UNL1        0.0742
      2 C         -10.8773   -3.5826   17.0874 C.ar    1  UNL1        0.1473
      3 N         -10.3311   -2.2254   17.4183 N.ar    1  UNL1       -0.1333
      4 N         -11.0987   -1.6899   18.5905 N.ar    1  UNL1       -0.1333
      5 C         -12.1194   -2.7162   18.9841 C.ar    1  UNL1        0.1472
      6 N         -11.9826   -3.8859   18.0551 N.ar    1  UNL1       -0.2788
      7 C         -12.8821   -5.0762   18.2103 C.ar    1  UNL1        0.0896
      8 C         -12.7454   -6.2460   17.2814 C.ar    1  UNL1        0.1558
      9 F         -11.7090   -6.2255   16.1971 F       1  UNL1       -0.2026
     10 C         -13.6449   -7.4362   17.4367 C.ar    1  UNL1        0.0312
     11 C         -14.6812   -7.4567   18.5209 C.ar    1  UNL1        0.0036
     12 C         -14.8181   -6.2870   19.4499 C.ar    1  UNL1       -0.0026
     13 C         -13.9185   -5.0966   19.2946 C.ar    1  UNL1       -0.0034
     14 C         -14.0552   -3.9269   20.2235 C.3     1  UNL1        0.0359
     15 C         -13.1557   -2.7367   20.0683 C.3     1  UNL1        0.0709
     16 C         -15.5808   -8.6470   18.6762 C.ar    1  UNL1        0.0215
     17 C         -15.1467   -9.9873   18.1614 C.ar    1  UNL1        0.0990
     18 N         -16.0461  -11.1776   18.3166 N.ar    1  UNL1       -0.2400
     19 C         -17.3798  -11.0276   18.9866 C.ar    1  UNL1        0.1284
     20 C         -17.8139   -9.6873   19.5015 C.ar    1  UNL1        0.1592
     21 F         -19.1475   -9.5372   20.1715 F       1  UNL1       -0.2025
     22 C         -16.9144   -8.4969   19.3462 C.ar    1  UNL1        0.0328
@<TRIPOS>BOND
     1     1     2    1
     2     2     3   ar
     3     3     4   ar
     4     4     5   ar
     5     5     6   ar
     6     6     7    1
     7     7     8   ar
     8     8     9    1
     9     8    10   ar
    10    10    11   ar
    11    11    16    1
    12    16    17   ar
    13    17    18   ar
    14    18    19   ar
    15    19    20   ar
    16    20    21    1
    17    20    22   ar
    18    11    12   ar
    19    12    13   ar
    20    13    14    1
    21    14    15    1
    22     6     2   ar
    23    13     7   ar
    24    15     5    1
    25    22    16   ar
@<TRIPOS>MOLECULE
*****
 22 25 0 0 0
SMALL
GASTEIGER

@<TRIPOS>ATOM
      1 C          -2.0134  -16.0676   22.1308 C.3     1  UNL1        0.0742
      2 C          -1.8649  -17.2784   21.2578 C.ar    1  UNL1        0.1473
      3 N          -0.6311  -17.6748   20.5025 N.ar    1  UNL1       -0.1333
      4 N          -0.9278  -18.9467   19.7648 N.ar    1  UNL1       -0.1333
      5 C          -2.3450  -19.3364   20.0641 C.ar    1  UNL1        0.1472
      6 N          -2.9242  -18.3053   20.9869 N.ar    1  UNL1       -0.2788
      7 C          -4.3413  -18.4347   21.4612 C.ar    1  UNL1        0.0896
      8 C          -4.9205  -17.4036   22.3840 C.ar    1  UNL1        0.1558
      9 F          -4.0826  -16.2431   22.8324 F       1  UNL1       -0.2026
     10 C          -6.3377  -17.5331   22.8582 C.ar    1  UNL1        0.0312
     11 C          -7.1756  -18.6936   22.4098 C.ar    1  UNL1        0.0036
     12 C          -6.5965  -19.7246   21.4870 C.ar    1  UNL1       -0.0026
     13 C          -5.1792  -19.5952   21.0127 C.ar    1  UNL1       -0.0034
     14 C          -4.6001  -20.6262   20.0900 C.3     1  UNL1        0.0359
     15 C          -3.1830  -20.4968   19.6157 C.3     1  UNL1        0.0709
     16 C          -8.5928  -18.8229   22.8841 C.ar    1  UNL1        0.0215
     17 C          -9.0829  -17.9775   24.0220 C.ar    1  UNL1        0.0990
     18 N         -10.5000  -18.1068   24.4964 N.ar    1  UNL1       -0.2400
     19 C         -11.4271  -19.0816   23.8328 C.ar    1  UNL1        0.1284
     20 C         -10.9369  -19.9271   22.6949 C.ar    1  UNL1        0.1592
     21 F         -11.8639  -20.9020   22.0313 F       1  UNL1       -0.2025
     22 C          -9.5197  -19.7978   22.2205 C.ar    1  UNL1        0.0328
@<TRIPOS>BOND
     1     1     2    1
     2     2     3   ar
     3     3     4   ar
     4     4     5   ar
     5     5     6   ar
     6     6     7    1
     7     7     8   ar
     8     8     9    1
     9     8    10   ar
    10    10    11   ar
    11    11    16    1
    12    16    17   ar
    13    17    18   ar
    14    18    19   ar
    15    19    20   ar
    16    20    21    1
    17    20    22   ar
    18    11    12   ar
    19    12    13   ar
    20    13    14    1
    21    14    15    1
    22     6     2   ar
    23    13     7   ar
    24    15     5    1
    25    22    16   ar
@<TRIPOS>MOLECULE
*****
 22 25 0 0 0
SMALL
GASTEIGER

@<TRIPOS>ATOM
      1 C         -10.3640   -4.4635   18.7099 C.3     1  UNL1        0.0742
      2 C         -11.2120   -3.2265   18.7377 C.ar    1  UNL1        0.1473
      3 N         -10.7149   -1.8144   18.6433 N.ar    1  UNL1       -0.1333
      4 N         -11.9017   -0.8996   18.7121 N.ar    1  UNL1       -0.1333
      5 C         -13.1323   -1.7463   18.8491 C.ar    1  UNL1        0.1472
      6 N         -12.7060   -3.1844   18.8649 N.ar    1  UNL1       -0.2788
      7 C         -13.7333   -4.2698   18.9931 C.ar    1  UNL1        0.0896
      8 C         -13.3071   -5.7080   19.0090 C.ar    1  UNL1        0.1558
      9 F         -11.8535   -6.0606   18.8966 F       1  UNL1       -0.2026
     10 C         -14.3345   -6.7933   19.1372 C.ar    1  UNL1        0.0312
     11 C         -15.7881   -6.4406   19.2496 C.ar    1  UNL1        0.0036
     12 C         -16.2144   -5.0025   19.2337 C.ar    1  UNL1       -0.0026
     13 C         -15.1870   -3.9171   19.1055 C.ar    1  UNL1       -0.0034
     14 C         -15.6132   -2.4791   19.0897 C.3     1  UNL1        0.0359
     15 C         -14.5859   -1.3937   18.9614 C.3     1  UNL1        0.0709
     16 C         -16.8155   -7.5260   19.3778 C.ar    1  UNL1        0.0215
     17 C         -18.2291   -7.1814   19.7422 C.ar    1  UNL1        0.0990
     18 N         -19.2565   -8.2667   19.8704 N.ar    1  UNL1       -0.2400
     19 C         -18.8703   -9.6968   19.6342 C.ar    1  UNL1        0.1284
     20 C         -17.4566  -10.0414   19.2698 C.ar    1  UNL1        0.1592
     21 F         -17.0703  -11.4714   19.0335 F       1  UNL1       -0.2025
     22 C         -16.4292   -8.9560   19.1415 C.ar    1  UNL1        0.0328
@<TRIPOS>BOND
     1     1     2    1
     2     2     3   ar
     3     3     4   ar
     4     4     5   ar
     5     5     6   ar
     6     6     7    1
     7     7     8   ar
     8     8     9    1
     9     8    10   ar
    10    10    11   ar
    11    11    16    1
    12    16    17   ar
    13    17    18   ar
    14    18    19   ar
    15    19    20   ar
    16    20    21    1
    17    20    22   ar
    18    11    12   ar
    19    12    13   ar
    20    13    14    1
    21    14    15    1
    22     6     2   ar
    23    13     7   ar
    24    15     5    1
    25    22    16   ar
@<TRIPOS>MOLECULE
*****
 22 25 0 0 0
SMALL
GASTEIGER

@<TRIPOS>ATOM
      1 C         -13.3526   -1.7504   18.6130 C.3     1  UNL1        0.0742
      2 C         -12.2358   -2.7510   18.6516 C.ar    1  UNL1        0.1473
      3 N         -10.7693   -2.4371   18.6215 N.ar    1  UNL1       -0.1333
      4 N         -10.0165   -3.7332   18.6784 N.ar    1  UNL1       -0.1333
      5 C         -11.0177   -4.8483   18.7437 C.ar    1  UNL1        0.1472
      6 N         -12.3893   -4.2412   18.7271 N.ar    1  UNL1       -0.2788
      7 C         -13.6008   -5.1237   18.7829 C.ar    1  UNL1        0.0896
      8 C         -14.9725   -4.5167   18.7664 C.ar    1  UNL1        0.1558
      9 F         -15.1325   -3.0270   18.6940 F       1  UNL1       -0.2026
     10 C         -16.1840   -5.3994   18.8222 C.ar    1  UNL1        0.0312
     11 C         -16.0240   -6.8890   18.8946 C.ar    1  UNL1        0.0036
     12 C         -14.6524   -7.4961   18.9112 C.ar    1  UNL1       -0.0026
     13 C         -13.4408   -6.6135   18.8553 C.ar    1  UNL1       -0.0034
     14 C         -12.0693   -7.2205   18.8719 C.3     1  UNL1        0.0359
     15 C         -10.8577   -6.3379   18.8161 C.3     1  UNL1        0.0709
     16 C         -17.2355   -7.7716   18.9504 C.ar    1  UNL1        0.0215
     17 C         -18.1852   -7.6694   20.1069 C.ar    1  UNL1        0.0990
     18 N         -19.3968   -8.5520   20.1628 N.ar    1  UNL1       -0.2400
     19 C         -19.6588   -9.5368   19.0621 C.ar    1  UNL1        0.1284
     20 C         -18.7091   -9.6390   17.9055 C.ar    1  UNL1        0.1592
     21 F         -18.9710  -10.6237   16.8048 F       1  UNL1       -0.2025
     22 C         -17.4974   -8.7564   17.8496 C.ar    1  UNL1        0.0328
@<TRIPOS>BOND
     1     1     2    1
     2     2     3   ar
     3     3     4   ar
     4     4     5   ar
     5     5     6   ar
     6     6     7    1
     7     7     8   ar
     8     8     9    1
     9     8    10   ar
    10    10    11   ar
    11    11    16    1
    12    16    17   ar
    13    17    18   ar
    14    18    19   ar
    15    19    20   ar
    16    20    21    1
    17    20    22   ar
    18    11    12   ar
    19    12    13   ar
    20    13    14    1
    21    14    15    1
    22     6     2   ar
    23    13     7   ar
    24    15     5    1
    25    22    16   ar
