@<TRIPOS>MOLECULE
*****
 21 23 0 0 0
SMALL
GASTEIGER

@<TRIPOS>ATOM
      1 C          -7.8651  -18.2046   22.0456 C.2     1  UNL1       -0.0420
      2 C          -8.4968  -16.8868   22.3837 C.2     1  UNL1       -0.0240
      3 C          -9.9735  -17.0068   22.1494 C.ar    1  UNL1       -0.0078
      4 C         -11.0985  -16.0284   22.3134 C.ar    1  UNL1       -0.0006
      5 C         -12.5046  -16.4420   21.9944 C.ar    1  UNL1       -0.0000
      6 C         -12.7857  -17.8340   21.5114 C.ar    1  UNL1       -0.0003
      7 C         -11.6606  -18.8124   21.3474 C.ar    1  UNL1       -0.0040
      8 C         -10.2546  -18.3988   21.6664 C.ar    1  UNL1       -0.0184
      9 C          -8.9515  -19.1391   21.6022 C.3     1  UNL1        0.0480
     10 C          -6.4038  -18.5307   22.1350 C.3     1  UNL1        0.0394
     11 C          -5.7261  -19.2527   21.0084 C.3     1  UNL1        0.0765
     12 C          -3.6137  -18.9724   19.5220 C.3     1  UNL1        0.0897
     13 N          -4.2336  -19.1939   20.8699 N.3     1  UNL1       -0.2700
     14 C          -3.3612  -19.3566   22.0791 C.3     1  UNL1        0.0897
     15 C          -7.7779  -15.6637   22.8707 C.3     1  UNL1        0.0730
     16 C          -7.3886  -15.5476   24.3147 C.ar    1  UNL1        0.0825
     17 C          -8.4134  -15.7674   25.3878 C.ar    1  UNL1        0.1139
     18 N          -8.0241  -15.6514   26.8317 N.ar    1  UNL1       -0.2394
     19 C          -6.6100  -15.3156   27.2026 C.ar    1  UNL1        0.1195
     20 C          -5.5852  -15.0958   26.1295 C.ar    1  UNL1        0.1191
     21 N          -5.9745  -15.2118   24.6856 N.ar    1  UNL1       -0.2446
@<TRIPOS>BOND
     1    12    13    1
     2    13    14    1
     3    13    11    1
     4    11    10    1
     5    10     1    1
     6     1     2    2
     7     2    15    1
     8    15    16    1
     9    16    17   ar
    10    17    18   ar
    11    18    19   ar
    12    19    20   ar
    13    20    21   ar
    14     2     3    1
    15     3     4   ar
    16     4     5   ar
    17     5     6   ar
    18     6     7   ar
    19     7     8   ar
    20     8     9    1
    21     9     1    1
    22    21    16   ar
    23     8     3   ar
@<TRIPOS>MOLECULE
*****
 21 23 0 0 0
SMALL
GASTEIGER

@<TRIPOS>ATOM
      1 C          -9.7231  -18.2492   24.0685 C.2     1  UNL1       -0.0420
      2 C          -8.6132  -17.4024   23.5199 C.2     1  UNL1       -0.0240
      3 C          -8.0085  -16.6360   24.6587 C.ar    1  UNL1       -0.0078
      4 C          -6.8827  -15.6465   24.7171 C.ar    1  UNL1       -0.0006
      5 C          -6.4930  -15.0303   26.0279 C.ar    1  UNL1       -0.0000
      6 C          -7.2292  -15.4035   27.2804 C.ar    1  UNL1       -0.0003
      7 C          -8.3550  -16.3930   27.2221 C.ar    1  UNL1       -0.0040
      8 C          -8.7446  -17.0092   25.9112 C.ar    1  UNL1       -0.0184
      9 C          -9.8043  -18.0062   25.5464 C.3     1  UNL1        0.0480
     10 C         -10.5980  -19.1763   23.2779 C.3     1  UNL1        0.0394
     11 C         -11.6794  -18.6203   22.3997 C.3     1  UNL1        0.0765
     12 C         -13.6767  -17.8728   23.8838 C.3     1  UNL1        0.0897
     13 N         -12.5816  -17.5382   22.9147 N.3     1  UNL1       -0.2700
     14 C         -12.3889  -16.1217   22.4606 C.3     1  UNL1        0.0897
     15 C          -8.1834  -17.3339   22.0844 C.3     1  UNL1        0.0730
     16 C          -7.2045  -18.3349   21.5459 C.ar    1  UNL1        0.0825
     17 C          -7.6658  -19.3969   20.5923 C.ar    1  UNL1        0.1139
     18 N          -6.6871  -20.3980   20.0539 N.ar    1  UNL1       -0.2394
     19 C          -5.2470  -20.3370   20.4691 C.ar    1  UNL1        0.1195
     20 C          -4.7857  -19.2750   21.4226 C.ar    1  UNL1        0.1191
     21 N          -5.7644  -18.2739   21.9611 N.ar    1  UNL1       -0.2446
@<TRIPOS>BOND
     1    12    13    1
     2    13    14    1
     3    13    11    1
     4    11    10    1
     5    10     1    1
     6     1     2    2
     7     2    15    1
     8    15    16    1
     9    16    17   ar
    10    17    18   ar
    11    18    19   ar
    12    19    20   ar
    13    20    21   ar
    14     2     3    1
    15     3     4   ar
    16     4     5   ar
    17     5     6   ar
    18     6     7   ar
    19     7     8   ar
    20     8     9    1
    21     9     1    1
    22    21    16   ar
    23     8     3   ar
@<TRIPOS>MOLECULE
*****
 21 23 0 0 0
SMALL
GASTEIGER

@<TRIPOS>ATOM
      1 C          -6.2106  -18.3721   22.2941 C.2     1  UNL1       -0.0420
      2 C          -6.1732  -19.2943   21.1117 C.2     1  UNL1       -0.0240
      3 C          -7.5494  -19.3415   20.5168 C.ar    1  UNL1       -0.0078
      4 C          -8.1086  -20.0822   19.3384 C.ar    1  UNL1       -0.0006
      5 C          -9.5558  -19.9299   18.9749 C.ar    1  UNL1       -0.0000
      6 C         -10.4438  -19.0368   19.7896 C.ar    1  UNL1       -0.0003
      7 C          -9.8846  -18.2961   20.9680 C.ar    1  UNL1       -0.0040
      8 C          -8.4374  -18.4484   21.3316 C.ar    1  UNL1       -0.0184
      9 C          -7.6100  -17.8493   22.4300 C.3     1  UNL1        0.0480
     10 C          -5.0522  -18.0324   23.1844 C.3     1  UNL1        0.0394
     11 C          -4.7361  -16.5982   23.4895 C.3     1  UNL1        0.0765
     12 C          -6.7380  -15.0585   24.0995 C.3     1  UNL1        0.0897
     13 N          -5.5379  -15.8558   24.5171 N.3     1  UNL1       -0.2700
     14 C          -5.1396  -15.9104   25.9622 C.3     1  UNL1        0.0897
     15 C          -4.9706  -20.0387   20.6119 C.3     1  UNL1        0.0730
     16 C          -3.7130  -19.2931   20.2763 C.ar    1  UNL1        0.0825
     17 C          -2.4213  -19.6625   20.9435 C.ar    1  UNL1        0.1139
     18 N          -1.1638  -18.9170   20.6079 N.ar    1  UNL1       -0.2394
     19 C          -1.1979  -17.8020   19.6052 C.ar    1  UNL1        0.1195
     20 C          -2.4895  -17.4325   18.9380 C.ar    1  UNL1        0.1191
     21 N          -3.7471  -18.1780   19.2736 N.ar    1  UNL1       -0.2446
@<TRIPOS>BOND
     1    12    13    1
     2    13    14    1
     3    13    11    1
     4    11    10    1
     5    10     1    1
     6     1     2    2
     7     2    15    1
     8    15    16    1
     9    16    17   ar
    10    17    18   ar
    11    18    19   ar
    12    19    20   ar
    13    20    21   ar
    14     2     3    1
    15     3     4   ar
    16     4     5   ar
    17     5     6   ar
    18     6     7   ar
    19     7     8   ar
    20     8     9    1
    21     9     1    1
    22    21    16   ar
    23     8     3   ar
@<TRIPOS>MOLECULE
*****
 21 23 0 0 0
SMALL
GASTEIGER

@<TRIPOS>ATOM
      1 C          -7.4027  -16.9361   22.7566 C.2     1  UNL1       -0.0420
      2 C          -7.4884  -18.2813   22.0986 C.2     1  UNL1       -0.0240
      3 C          -8.7767  -18.3415   21.3327 C.ar    1  UNL1       -0.0078
      4 C          -9.3947  -19.4183   20.4910 C.ar    1  UNL1       -0.0006
      5 C         -10.7231  -19.1871   19.8339 C.ar    1  UNL1       -0.0000
      6 C         -11.4336  -17.8790   20.0185 C.ar    1  UNL1       -0.0003
      7 C         -10.8157  -16.8021   20.8602 C.ar    1  UNL1       -0.0040
      8 C          -9.4872  -17.0334   21.5173 C.ar    1  UNL1       -0.0184
      9 C          -8.6380  -16.1648   22.3973 C.3     1  UNL1        0.0480
     10 C          -6.2789  -16.4479   23.6220 C.3     1  UNL1        0.0394
     11 C          -6.4871  -15.2710   24.5284 C.3     1  UNL1        0.0765
     12 C          -6.3397  -15.5845   27.1033 C.3     1  UNL1        0.0897
     13 N          -7.1618  -15.4563   25.8552 N.3     1  UNL1       -0.2700
     14 C          -8.6586  -15.5133   25.9339 C.3     1  UNL1        0.0897
     15 C          -6.4655  -19.3746   22.1904 C.3     1  UNL1        0.0730
     16 C          -5.1261  -19.2053   21.5365 C.ar    1  UNL1        0.0825
     17 C          -3.8715  -19.4035   22.3344 C.ar    1  UNL1        0.1139
     18 N          -2.5322  -19.2342   21.6806 N.ar    1  UNL1       -0.2394
     19 C          -2.4475  -18.8668   20.2287 C.ar    1  UNL1        0.1195
     20 C          -3.7021  -18.6686   19.4308 C.ar    1  UNL1        0.1191
     21 N          -5.0414  -18.8378   20.0847 N.ar    1  UNL1       -0.2446
@<TRIPOS>BOND
     1    12    13    1
     2    13    14    1
     3    13    11    1
     4    11    10    1
     5    10     1    1
     6     1     2    2
     7     2    15    1
     8    15    16    1
     9    16    17   ar
    10    17    18   ar
    11    18    19   ar
    12    19    20   ar
    13    20    21   ar
    14     2     3    1
    15     3     4   ar
    16     4     5   ar
    17     5     6   ar
    18     6     7   ar
    19     7     8   ar
    20     8     9    1
    21     9     1    1
    22    21    16   ar
    23     8     3   ar
@<TRIPOS>MOLECULE
*****
 21 23 0 0 0
SMALL
GASTEIGER

@<TRIPOS>ATOM
      1 C          -8.2122  -18.3407   21.7579 C.2     1  UNL1       -0.0420
      2 C          -6.7567  -18.5184   22.0742 C.2     1  UNL1       -0.0240
      3 C          -6.3471  -17.4171   23.0066 C.ar    1  UNL1       -0.0078
      4 C          -5.0346  -17.0851   23.6524 C.ar    1  UNL1       -0.0006
      5 C          -4.9245  -15.8946   24.5583 C.ar    1  UNL1       -0.0000
      6 C          -6.1268  -15.0362   24.8183 C.ar    1  UNL1       -0.0003
      7 C          -7.4393  -15.3683   24.1725 C.ar    1  UNL1       -0.0040
      8 C          -7.5494  -16.5588   23.2666 C.ar    1  UNL1       -0.0184
      9 C          -8.7021  -17.1296   22.4949 C.3     1  UNL1        0.0480
     10 C          -9.0335  -19.2198   20.8620 C.3     1  UNL1        0.0394
     11 C         -10.4991  -19.3993   21.1260 C.3     1  UNL1        0.0765
     12 C         -11.2996  -17.3511   19.7424 C.3     1  UNL1        0.0897
     13 N         -11.4418  -18.2480   20.9363 N.3     1  UNL1       -0.2700
     14 C         -12.5267  -17.9937   21.9405 C.3     1  UNL1        0.0897
     15 C          -5.8670  -19.6065   21.5501 C.3     1  UNL1        0.0730
     16 C          -4.4988  -19.2728   21.0335 C.ar    1  UNL1        0.0825
     17 C          -3.2822  -19.7296   21.7827 C.ar    1  UNL1        0.1139
     18 N          -1.9141  -19.3960   21.2662 N.ar    1  UNL1       -0.2394
     19 C          -1.7625  -18.6056   20.0004 C.ar    1  UNL1        0.1195
     20 C          -2.9790  -18.1488   19.2512 C.ar    1  UNL1        0.1191
     21 N          -4.3472  -18.4824   19.7677 N.ar    1  UNL1       -0.2446
@<TRIPOS>BOND
     1    12    13    1
     2    13    14    1
     3    13    11    1
     4    11    10    1
     5    10     1    1
     6     1     2    2
     7     2    15    1
     8    15    16    1
     9    16    17   ar
    10    17    18   ar
    11    18    19   ar
    12    19    20   ar
    13    20    21   ar
    14     2     3    1
    15     3     4   ar
    16     4     5   ar
    17     5     6   ar
    18     6     7   ar
    19     7     8   ar
    20     8     9    1
    21     9     1    1
    22    21    16   ar
    23     8     3   ar
@<TRIPOS>MOLECULE
*****
 21 23 0 0 0
SMALL
GASTEIGER

@<TRIPOS>ATOM
      1 C          -7.4530  -17.5638   23.1584 C.2     1  UNL1       -0.0420
      2 C          -7.8726  -18.6897   22.2605 C.2     1  UNL1       -0.0240
      3 C          -6.6387  -19.2657   21.6316 C.ar    1  UNL1       -0.0078
      4 C          -6.4389  -20.3918   20.6611 C.ar    1  UNL1       -0.0006
      5 C          -5.0568  -20.7479   20.1998 C.ar    1  UNL1       -0.0000
      6 C          -3.8744  -19.9780   20.7090 C.ar    1  UNL1       -0.0003
      7 C          -4.0742  -18.8519   21.6795 C.ar    1  UNL1       -0.0040
      8 C          -5.4563  -18.4958   22.1408 C.ar    1  UNL1       -0.0184
      9 C          -5.9596  -17.4439   23.0844 C.3     1  UNL1        0.0480
     10 C          -8.3663  -16.7079   23.9851 C.3     1  UNL1        0.0394
     11 C          -7.8558  -15.4348   24.5919 C.3     1  UNL1        0.0765
     12 C          -8.1754  -15.5258   27.1687 C.3     1  UNL1        0.0897
     13 N          -7.2723  -15.4437   25.9738 N.3     1  UNL1       -0.2700
     14 C          -5.7858  -15.3707   26.1607 C.3     1  UNL1        0.0897
     15 C          -9.2793  -19.1575   22.0317 C.3     1  UNL1        0.0730
     16 C         -10.3131  -18.2011   21.5149 C.ar    1  UNL1        0.0825
     17 C         -11.7710  -18.4965   21.7077 C.ar    1  UNL1        0.1139
     18 N         -12.8048  -17.5403   21.1911 N.ar    1  UNL1       -0.2394
     19 C         -12.3805  -16.2886   20.4816 C.ar    1  UNL1        0.1195
     20 C         -10.9226  -15.9932   20.2888 C.ar    1  UNL1        0.1191
     21 N          -9.8888  -16.9494   20.8055 N.ar    1  UNL1       -0.2446
@<TRIPOS>BOND
     1    12    13    1
     2    13    14    1
     3    13    11    1
     4    11    10    1
     5    10     1    1
     6     1     2    2
     7     2    15    1
     8    15    16    1
     9    16    17   ar
    10    17    18   ar
    11    18    19   ar
    12    19    20   ar
    13    20    21   ar
    14     2     3    1
    15     3     4   ar
    16     4     5   ar
    17     5     6   ar
    18     6     7   ar
    19     7     8   ar
    20     8     9    1
    21     9     1    1
    22    21    16   ar
    23     8     3   ar
@<TRIPOS>MOLECULE
*****
 21 23 0 0 0
SMALL
GASTEIGER

@<TRIPOS>ATOM
      1 C          -4.0614  -17.3129   23.2134 C.2     1  UNL1       -0.0420
      2 C          -4.4132  -18.3618   22.2004 C.2     1  UNL1       -0.0240
      3 C          -3.3988  -18.2994   21.0971 C.ar    1  UNL1       -0.0078
      4 C          -3.2399  -19.0923   19.8338 C.ar    1  UNL1       -0.0006
      5 C          -2.1023  -18.7978   18.9016 C.ar    1  UNL1       -0.0000
      6 C          -1.1236  -17.7104   19.2327 C.ar    1  UNL1       -0.0003
      7 C          -1.2825  -16.9175   20.4961 C.ar    1  UNL1       -0.0040
      8 C          -2.4201  -17.2120   21.4282 C.ar    1  UNL1       -0.0184
      9 C          -2.8296  -16.6023   22.7361 C.3     1  UNL1        0.0480
     10 C          -4.8100  -17.0252   24.4810 C.3     1  UNL1        0.0394
     11 C          -5.2885  -15.6332   24.7700 C.3     1  UNL1        0.0765
     12 C          -6.5843  -15.4824   27.0168 C.3     1  UNL1        0.0897
     13 N          -6.5712  -15.4212   25.5180 N.3     1  UNL1       -0.2700
     14 C          -7.8408  -15.1481   24.7674 C.3     1  UNL1        0.0897
     15 C          -5.5753  -19.3071   22.2772 C.3     1  UNL1        0.0730
     16 C          -6.9775  -18.7797   22.1993 C.ar    1  UNL1        0.0825
     17 C          -8.1322  -19.6616   22.5720 C.ar    1  UNL1        0.1139
     18 N          -9.5343  -19.1344   22.4941 N.ar    1  UNL1       -0.2394
     19 C          -9.7817  -17.7252   22.0435 C.ar    1  UNL1        0.1195
     20 C          -8.6269  -16.8433   21.6708 C.ar    1  UNL1        0.1191
     21 N          -7.2248  -17.3705   21.7487 N.ar    1  UNL1       -0.2446
@<TRIPOS>BOND
     1    12    13    1
     2    13    14    1
     3    13    11    1
     4    11    10    1
     5    10     1    1
     6     1     2    2
     7     2    15    1
     8    15    16    1
     9    16    17   ar
    10    17    18   ar
    11    18    19   ar
    12    19    20   ar
    13    20    21   ar
    14     2     3    1
    15     3     4   ar
    16     4     5   ar
    17     5     6   ar
    18     6     7   ar
    19     7     8   ar
    20     8     9    1
    21     9     1    1
    22    21    16   ar
    23     8     3   ar
@<TRIPOS>MOLECULE
*****
 21 23 0 0 0
SMALL
GASTEIGER

@<TRIPOS>ATOM
      1 C          -7.8241  -17.8907   22.7229 C.2     1  UNL1       -0.0420
      2 C          -7.9666  -18.8758   21.6007 C.2     1  UNL1       -0.0240
      3 C          -6.5956  -19.3593   21.2314 C.ar    1  UNL1       -0.0078
      4 C          -6.1206  -20.3358   20.1966 C.ar    1  UNL1       -0.0006
      5 C          -4.6557  -20.6260   20.0557 C.ar    1  UNL1       -0.0000
      6 C          -3.6658  -19.9397   20.9497 C.ar    1  UNL1       -0.0003
      7 C          -4.1408  -18.9632   21.9844 C.ar    1  UNL1       -0.0040
      8 C          -5.6057  -18.6730   22.1253 C.ar    1  UNL1       -0.0184
      9 C          -6.3650  -17.7654   23.0471 C.3     1  UNL1        0.0480
     10 C          -8.9442  -17.1594   23.4016 C.3     1  UNL1        0.0394
     11 C          -9.5312  -17.6992   24.6720 C.3     1  UNL1        0.0765
     12 C          -9.8581  -20.2747   24.5720 C.3     1  UNL1        0.0897
     13 N         -10.4387  -18.8928   24.6310 N.3     1  UNL1       -0.2700
     14 C         -11.9267  -18.7047   24.6489 C.3     1  UNL1        0.0897
     15 C          -9.2542  -19.3025   20.9603 C.3     1  UNL1        0.0730
     16 C         -10.3789  -18.3213   20.8109 C.ar    1  UNL1        0.0825
     17 C         -11.7486  -18.6680   21.3146 C.ar    1  UNL1        0.1139
     18 N         -12.8733  -17.6868   21.1652 N.ar    1  UNL1       -0.2394
     19 C         -12.6282  -16.3589   20.5121 C.ar    1  UNL1        0.1195
     20 C         -11.2585  -16.0122   20.0084 C.ar    1  UNL1        0.1191
     21 N         -10.1339  -16.9933   20.1578 N.ar    1  UNL1       -0.2446
@<TRIPOS>BOND
     1    12    13    1
     2    13    14    1
     3    13    11    1
     4    11    10    1
     5    10     1    1
     6     1     2    2
     7     2    15    1
     8    15    16    1
     9    16    17   ar
    10    17    18   ar
    11    18    19   ar
    12    19    20   ar
    13    20    21   ar
    14     2     3    1
    15     3     4   ar
    16     4     5   ar
    17     5     6   ar
    18     6     7   ar
    19     7     8   ar
    20     8     9    1
    21     9     1    1
    22    21    16   ar
    23     8     3   ar
@<TRIPOS>MOLECULE
*****
 21 23 0 0 0
SMALL
GASTEIGER

@<TRIPOS>ATOM
      1 C          -6.6718  -17.4933   22.8966 C.2     1  UNL1       -0.0420
      2 C          -7.0101  -18.5485   21.8856 C.2     1  UNL1       -0.0240
      3 C          -5.7279  -19.1725   21.4201 C.ar    1  UNL1       -0.0078
      4 C          -5.4439  -20.2639   20.4311 C.ar    1  UNL1       -0.0006
      5 C          -4.0292  -20.6857   20.1655 C.ar    1  UNL1       -0.0000
      6 C          -2.8985  -20.0162   20.8888 C.ar    1  UNL1       -0.0003
      7 C          -3.1825  -18.9249   21.8779 C.ar    1  UNL1       -0.0040
      8 C          -4.5972  -18.5030   22.1435 C.ar    1  UNL1       -0.0184
      9 C          -5.1806  -17.4652   23.0560 C.3     1  UNL1        0.0480
     10 C          -7.6526  -16.6196   23.6210 C.3     1  UNL1        0.0394
     11 C          -7.1849  -15.3603   24.2884 C.3     1  UNL1        0.0765
     12 C          -7.8878  -15.5150   26.7848 C.3     1  UNL1        0.0897
     13 N          -6.8181  -15.3740   25.7428 N.3     1  UNL1       -0.2700
     14 C          -5.3815  -15.2466   26.1552 C.3     1  UNL1        0.0897
     15 C          -8.3885  -18.9152   21.4214 C.3     1  UNL1        0.0730
     16 C          -9.5346  -18.8999   22.3892 C.ar    1  UNL1        0.0825
     17 C         -10.7426  -18.0564   22.1077 C.ar    1  UNL1        0.1139
     18 N         -11.8886  -18.0410   23.0753 N.ar    1  UNL1       -0.2394
     19 C         -11.8267  -18.8692   24.3244 C.ar    1  UNL1        0.1195
     20 C         -10.6187  -19.7127   24.6058 C.ar    1  UNL1        0.1191
     21 N          -9.4726  -19.7281   23.6383 N.ar    1  UNL1       -0.2446
@<TRIPOS>BOND
     1    12    13    1
     2    13    14    1
     3    13    11    1
     4    11    10    1
     5    10     1    1
     6     1     2    2
     7     2    15    1
     8    15    16    1
     9    16    17   ar
    10    17    18   ar
    11    18    19   ar
    12    19    20   ar
    13    20    21   ar
    14     2     3    1
    15     3     4   ar
    16     4     5   ar
    17     5     6   ar
    18     6     7   ar
    19     7     8   ar
    20     8     9    1
    21     9     1    1
    22    21    16   ar
    23     8     3   ar
