@<TRIPOS>MOLECULE
*****
 29 32 0 0 0
SMALL
GASTEIGER

@<TRIPOS>ATOM
      1 N           8.0065   -5.0120   27.8209 N.pl3   1  UNL1       -0.3017
      2 C           6.6643   -4.5159   28.2707 C.3     1  UNL1        0.1124
      3 C           6.5235   -3.8337   29.5991 C.3     1  UNL1        0.1152
      4 N           7.7249   -3.6475   30.4778 N.am    1  UNL1       -0.2714
      5 C           7.5841   -2.9652   31.8062 C.2     1  UNL1        0.2663
      6 O           8.7855   -2.7791   32.6847 O.2     1  UNL1       -0.2683
      7 C           9.0671   -4.1436   30.0280 C.3     1  UNL1        0.1152
      8 C           9.2079   -4.8259   28.6995 C.3     1  UNL1        0.1124
      9 C           8.3129   -7.1837   26.4281 C.ar    1  UNL1        0.1519
     10 C           8.4537   -7.8659   25.0997 C.ar    1  UNL1        0.0382
     11 C           8.4289   -7.0587   23.8356 C.ar    1  UNL1        0.0032
     12 C           8.2633   -5.5693   23.9000 C.ar    1  UNL1        0.0015
     13 C           8.1225   -4.8871   25.2284 C.ar    1  UNL1        0.0176
     14 C           8.1473   -5.6943   26.4925 C.ar    1  UNL1        0.0824
     15 C           8.4267   -9.4868   27.6252 C.3     1  UNL1        0.2525
     16 O           8.3377   -7.9909   27.6921 O.3     1  UNL1       -0.4702
     17 C           6.2419   -2.4691   32.2560 C.ar    1  UNL1        0.1288
     18 C           5.7555   -1.0521   32.1819 C.ar    1  UNL1        0.0439
     19 C           4.3634   -1.0101   32.7389 C.ar    1  UNL1        0.1023
     20 N           3.9894   -2.4012   33.1573 N.ar    1  UNL1       -0.1725
     21 N           5.1504   -3.3029   32.8588 N.ar    1  UNL1       -0.2714
     22 H           5.1891   -4.2718   33.0287 H       1  UNL1        0.1891
     23 C           3.4973    0.2089   32.8569 C.ar    1  UNL1        0.0194
     24 C           3.5043    1.0142   34.1224 C.ar    1  UNL1        0.0024
     25 C           2.6383    2.2332   34.2405 C.ar    1  UNL1        0.0114
     26 C           1.7653    2.6470   33.0929 C.ar    1  UNL1        0.0577
     27 CL          0.8993    3.8661   33.2110 Cl      1  UNL1       -0.0822
     28 C           1.7584    1.8417   31.8275 C.ar    1  UNL1        0.0114
     29 C           2.6244    0.6227   31.7094 C.ar    1  UNL1        0.0024
@<TRIPOS>BOND
     1    15    16    1
     2    16     9    1
     3     9    10   ar
     4    10    11   ar
     5    11    12   ar
     6    12    13   ar
     7    13    14   ar
     8    14     1    1
     9     1     2    1
    10     2     3    1
    11     3     4    1
    12     4     5   am
    13     5     6    2
    14     5    17    1
    15    17    18   ar
    16    18    19   ar
    17    19    23    1
    18    23    24   ar
    19    24    25   ar
    20    25    26   ar
    21    26    27    1
    22    26    28   ar
    23    28    29   ar
    24    19    20   ar
    25    20    21   ar
    26     4     7    1
    27     7     8    1
    28    14     9   ar
    29     8     1    1
    30    21    17   ar
    31    29    23   ar
    32    21    22    1
@<TRIPOS>MOLECULE
*****
 29 32 0 0 0
SMALL
GASTEIGER

@<TRIPOS>ATOM
      1 N           2.8617    0.2019   18.8312 N.pl3   1  UNL1       -0.3017
      2 C           1.3653    0.1889   18.9339 C.3     1  UNL1        0.1124
      3 C           0.5951    1.4716   18.8268 C.3     1  UNL1        0.1152
      4 N           1.3212    2.7673   18.6170 N.am    1  UNL1       -0.2714
      5 C           0.5510    4.0499   18.5099 C.2     1  UNL1        0.2663
      6 O           1.2772    5.3455   18.3001 O.2     1  UNL1       -0.2683
      7 C           2.8177    2.7802   18.5143 C.3     1  UNL1        0.1152
      8 C           3.5879    1.4975   18.6214 C.3     1  UNL1        0.1124
      9 C           4.7010   -1.3997   17.9356 C.ar    1  UNL1        0.1519
     10 C           5.4712   -2.6824   18.0428 C.ar    1  UNL1        0.0382
     11 C           5.1723   -3.6462   19.1526 C.ar    1  UNL1        0.0032
     12 C           4.1033   -3.3273   20.1553 C.ar    1  UNL1        0.0015
     13 C           3.3331   -2.0447   20.0482 C.ar    1  UNL1        0.0176
     14 C           3.6320   -1.0808   18.9383 C.ar    1  UNL1        0.0824
     15 C           6.3396    0.2350   16.7555 C.3     1  UNL1        0.2525
     16 O           4.9999   -0.4359   16.8258 O.3     1  UNL1       -0.4702
     17 C          -0.9454    4.0369   18.6126 C.ar    1  UNL1        0.1288
     18 C          -1.7426    4.0955   19.8819 C.ar    1  UNL1        0.0439
     19 C          -3.1973    4.0579   19.5178 C.ar    1  UNL1        0.1023
     20 N          -3.2992    3.9761   18.0235 N.ar    1  UNL1       -0.1725
     21 N          -1.9074    3.9632   17.4641 N.ar    1  UNL1       -0.2714
     22 H          -1.6675    3.9147   16.5105 H       1  UNL1        0.1891
     23 C          -4.3481    4.0955   20.4793 C.ar    1  UNL1        0.0194
     24 C          -5.5982    4.8441   20.1237 C.ar    1  UNL1        0.0024
     25 C          -6.7490    4.8818   21.0850 C.ar    1  UNL1        0.0114
     26 C          -6.6495    4.1707   22.4020 C.ar    1  UNL1        0.0577
     27 CL         -7.8004    4.2083   23.3635 Cl      1  UNL1       -0.0822
     28 C          -5.3993    3.4220   22.7576 C.ar    1  UNL1        0.0114
     29 C          -4.2486    3.3844   21.7963 C.ar    1  UNL1        0.0024
@<TRIPOS>BOND
     1    15    16    1
     2    16     9    1
     3     9    10   ar
     4    10    11   ar
     5    11    12   ar
     6    12    13   ar
     7    13    14   ar
     8    14     1    1
     9     1     2    1
    10     2     3    1
    11     3     4    1
    12     4     5   am
    13     5     6    2
    14     5    17    1
    15    17    18   ar
    16    18    19   ar
    17    19    23    1
    18    23    24   ar
    19    24    25   ar
    20    25    26   ar
    21    26    27    1
    22    26    28   ar
    23    28    29   ar
    24    19    20   ar
    25    20    21   ar
    26     4     7    1
    27     7     8    1
    28    14     9   ar
    29     8     1    1
    30    21    17   ar
    31    29    23   ar
    32    21    22    1
@<TRIPOS>MOLECULE
*****
 29 32 0 0 0
SMALL
GASTEIGER

@<TRIPOS>ATOM
      1 N           2.5621   -0.2020   19.8037 N.pl3   1  UNL1       -0.3017
      2 C           1.0766   -0.0398   19.9339 C.3     1  UNL1        0.1124
      3 C           0.4086    1.1977   19.4120 C.3     1  UNL1        0.1152
      4 N           1.2262    2.2731   18.7599 N.am    1  UNL1       -0.2714
      5 C           0.5582    3.5106   18.2381 C.2     1  UNL1        0.2663
      6 O           1.3758    4.5859   17.5861 O.2     1  UNL1       -0.2683
      7 C           2.7117    2.1110   18.6298 C.3     1  UNL1        0.1152
      8 C           3.3796    0.8734   19.1517 C.3     1  UNL1        0.1124
      9 C           3.6393   -1.5201   21.7664 C.ar    1  UNL1        0.1519
     10 C           4.3072   -2.7576   22.2883 C.ar    1  UNL1        0.0382
     11 C           4.5659   -3.9146   21.3693 C.ar    1  UNL1        0.0032
     12 C           4.1566   -3.8341   19.9285 C.ar    1  UNL1        0.0015
     13 C           3.4886   -2.5965   19.4067 C.ar    1  UNL1        0.0176
     14 C           3.2300   -1.4396   20.3256 C.ar    1  UNL1        0.0824
     15 C           3.1377   -0.6049   24.1456 C.3     1  UNL1        0.2525
     16 O           3.3807   -0.3631   22.6854 O.3     1  UNL1       -0.4702
     17 C          -0.9273    3.6727   18.3682 C.ar    1  UNL1        0.1288
     18 C          -1.6995    3.7231   19.6532 C.ar    1  UNL1        0.0439
     19 C          -3.1509    3.8945   19.3154 C.ar    1  UNL1        0.1023
     20 N          -3.2757    3.9500   17.8216 N.ar    1  UNL1       -0.1725
     21 N          -1.9015    3.8130   17.2363 N.ar    1  UNL1       -0.2714
     22 H          -1.6781    3.8147   16.2774 H       1  UNL1        0.1891
     23 C          -4.2794    3.9930   20.2987 C.ar    1  UNL1        0.0194
     24 C          -5.4956    4.8053   19.9656 C.ar    1  UNL1        0.0024
     25 C          -6.6240    4.9039   20.9488 C.ar    1  UNL1        0.0114
     26 C          -6.5362    4.1901   22.2652 C.ar    1  UNL1        0.0577
     27 CL         -7.6647    4.2887   23.2486 Cl      1  UNL1       -0.0822
     28 C          -5.3200    3.3779   22.5983 C.ar    1  UNL1        0.0114
     29 C          -4.1916    3.2793   21.6151 C.ar    1  UNL1        0.0024
@<TRIPOS>BOND
     1    15    16    1
     2    16     9    1
     3     9    10   ar
     4    10    11   ar
     5    11    12   ar
     6    12    13   ar
     7    13    14   ar
     8    14     1    1
     9     1     2    1
    10     2     3    1
    11     3     4    1
    12     4     5   am
    13     5     6    2
    14     5    17    1
    15    17    18   ar
    16    18    19   ar
    17    19    23    1
    18    23    24   ar
    19    24    25   ar
    20    25    26   ar
    21    26    27    1
    22    26    28   ar
    23    28    29   ar
    24    19    20   ar
    25    20    21   ar
    26     4     7    1
    27     7     8    1
    28    14     9   ar
    29     8     1    1
    30    21    17   ar
    31    29    23   ar
    32    21    22    1
@<TRIPOS>MOLECULE
*****
 29 32 0 0 0
SMALL
GASTEIGER

@<TRIPOS>ATOM
      1 N           4.4613   -1.8057   20.4288 N.pl3   1  UNL1       -0.3017
      2 C           4.9072   -1.6276   21.8499 C.3     1  UNL1        0.1124
      3 C           5.9618   -2.5270   22.4234 C.3     1  UNL1        0.1152
      4 N           6.5706   -3.6045   21.5757 N.am    1  UNL1       -0.2714
      5 C           7.6252   -4.5039   22.1492 C.2     1  UNL1        0.2663
      6 O           8.2339   -5.5814   21.3015 O.2     1  UNL1       -0.2683
      7 C           6.1247   -3.7826   20.1546 C.3     1  UNL1        0.1152
      8 C           5.0700   -2.8832   19.5812 C.3     1  UNL1        0.1124
      9 C           3.7789    0.1345   18.8414 C.ar    1  UNL1        0.1519
     10 C           2.7243    1.0339   18.2680 C.ar    1  UNL1        0.0382
     11 C           1.2974    0.8925   18.7086 C.ar    1  UNL1        0.0032
     12 C           0.9252   -0.1482   19.7227 C.ar    1  UNL1        0.0015
     13 C           1.9799   -1.0476   20.2960 C.ar    1  UNL1        0.0176
     14 C           3.4067   -0.9062   19.8554 C.ar    1  UNL1        0.0824
     15 C           5.5424    0.2795   16.9391 C.3     1  UNL1        0.2525
     16 O           5.2057    0.2758   18.4007 O.3     1  UNL1       -0.4702
     17 C           8.0711   -4.3259   23.5703 C.ar    1  UNL1        0.1288
     18 C           7.4065   -4.9081   24.7824 C.ar    1  UNL1        0.0439
     19 C           8.1845   -4.4764   25.9900 C.ar    1  UNL1        0.1023
     20 N           9.3300   -3.6273   25.5242 N.ar    1  UNL1       -0.1725
     21 N           9.2598   -3.5342   24.0287 N.ar    1  UNL1       -0.2714
     22 H           9.8844   -3.0403   23.4497 H       1  UNL1        0.1891
     23 C           7.8720   -4.8314   27.4135 C.ar    1  UNL1        0.0194
     24 C           7.0230   -3.9166   28.2455 C.ar    1  UNL1        0.0024
     25 C           6.7104   -4.2716   29.6689 C.ar    1  UNL1        0.0114
     26 C           7.2469   -5.5414   30.2603 C.ar    1  UNL1        0.0577
     27 CL          6.9343   -5.8965   31.6839 Cl      1  UNL1       -0.0822
     28 C           8.0959   -6.4562   29.4283 C.ar    1  UNL1        0.0114
     29 C           8.4085   -6.1013   28.0049 C.ar    1  UNL1        0.0024
@<TRIPOS>BOND
     1    15    16    1
     2    16     9    1
     3     9    10   ar
     4    10    11   ar
     5    11    12   ar
     6    12    13   ar
     7    13    14   ar
     8    14     1    1
     9     1     2    1
    10     2     3    1
    11     3     4    1
    12     4     5   am
    13     5     6    2
    14     5    17    1
    15    17    18   ar
    16    18    19   ar
    17    19    23    1
    18    23    24   ar
    19    24    25   ar
    20    25    26   ar
    21    26    27    1
    22    26    28   ar
    23    28    29   ar
    24    19    20   ar
    25    20    21   ar
    26     4     7    1
    27     7     8    1
    28    14     9   ar
    29     8     1    1
    30    21    17   ar
    31    29    23   ar
    32    21    22    1
@<TRIPOS>MOLECULE
*****
 29 32 0 0 0
SMALL
GASTEIGER

@<TRIPOS>ATOM
      1 N           2.7504   -0.9149   19.5850 N.pl3   1  UNL1       -0.3017
      2 C           1.9178   -0.5505   20.7782 C.3     1  UNL1        0.1124
      3 C           0.9995    0.6340   20.7185 C.3     1  UNL1        0.1152
      4 N           0.9138    1.4542   19.4654 N.am    1  UNL1       -0.2714
      5 C          -0.0045    2.6387   19.4057 C.2     1  UNL1        0.2663
      6 O          -0.0902    3.4587   18.1527 O.2     1  UNL1       -0.2683
      7 C           1.7464    1.0897   18.2721 C.3     1  UNL1        0.1152
      8 C           2.6647   -0.0949   18.3319 C.3     1  UNL1        0.1124
      9 C           5.0675   -1.9387   20.1620 C.ar    1  UNL1        0.1519
     10 C           5.9858   -3.1233   20.2218 C.ar    1  UNL1        0.0382
     11 C           5.5053   -4.4686   19.7643 C.ar    1  UNL1        0.0032
     12 C           4.1066   -4.6293   19.2470 C.ar    1  UNL1        0.0015
     13 C           3.1883   -3.4448   19.1872 C.ar    1  UNL1        0.0176
     14 C           3.6688   -2.0995   19.6447 C.ar    1  UNL1        0.0824
     15 C           6.1873    0.3471   19.6415 C.3     1  UNL1        0.2525
     16 O           5.5480   -0.5934   20.6196 O.3     1  UNL1       -0.4702
     17 C          -0.8372    3.0031   20.5990 C.ar    1  UNL1        0.1288
     18 C          -2.3283    3.1644   20.6176 C.ar    1  UNL1        0.0439
     19 C          -2.7376    3.5312   22.0133 C.ar    1  UNL1        0.1023
     20 N          -1.4993    3.5966   22.8573 N.ar    1  UNL1       -0.1725
     21 N          -0.3248    3.2702   21.9832 N.ar    1  UNL1       -0.2714
     22 H           0.6170    3.2371   22.2680 H       1  UNL1        0.1891
     23 C          -4.1390    3.7877   22.4825 C.ar    1  UNL1        0.0194
     24 C          -4.4551    3.7643   23.9486 C.ar    1  UNL1        0.0024
     25 C          -5.8565    4.0207   24.4179 C.ar    1  UNL1        0.0114
     26 C          -6.9418    4.3005   23.4210 C.ar    1  UNL1        0.0577
     27 CL         -8.3433    4.5569   23.8904 Cl      1  UNL1       -0.0822
     28 C          -6.6258    4.3238   21.9549 C.ar    1  UNL1        0.0114
     29 C          -5.2244    4.0674   21.4856 C.ar    1  UNL1        0.0024
@<TRIPOS>BOND
     1    15    16    1
     2    16     9    1
     3     9    10   ar
     4    10    11   ar
     5    11    12   ar
     6    12    13   ar
     7    13    14   ar
     8    14     1    1
     9     1     2    1
    10     2     3    1
    11     3     4    1
    12     4     5   am
    13     5     6    2
    14     5    17    1
    15    17    18   ar
    16    18    19   ar
    17    19    23    1
    18    23    24   ar
    19    24    25   ar
    20    25    26   ar
    21    26    27    1
    22    26    28   ar
    23    28    29   ar
    24    19    20   ar
    25    20    21   ar
    26     4     7    1
    27     7     8    1
    28    14     9   ar
    29     8     1    1
    30    21    17   ar
    31    29    23   ar
    32    21    22    1
@<TRIPOS>MOLECULE
*****
 29 32 0 0 0
SMALL
GASTEIGER

@<TRIPOS>ATOM
      1 N           7.8362   -4.3867   25.5099 N.pl3   1  UNL1       -0.3017
      2 C           6.5053   -4.0711   24.8941 C.3     1  UNL1        0.1124
      3 C           6.3982   -3.8435   23.4154 C.3     1  UNL1        0.1152
      4 N           7.6220   -3.9316   22.5524 N.am    1  UNL1       -0.2714
      5 C           7.5149   -3.7040   21.0736 C.2     1  UNL1        0.2663
      6 O           8.7387   -3.7920   20.2107 O.2     1  UNL1       -0.2683
      7 C           8.9529   -4.2471   23.1682 C.3     1  UNL1        0.1152
      8 C           9.0599   -4.4747   24.6470 C.3     1  UNL1        0.1124
      9 C           7.5485   -5.9374   27.5745 C.ar    1  UNL1        0.1519
     10 C           7.6556   -6.1649   29.0532 C.ar    1  UNL1        0.0382
     11 C           8.1574   -5.0692   29.9462 C.ar    1  UNL1        0.0032
     12 C           8.5522   -3.7459   29.3605 C.ar    1  UNL1        0.0015
     13 C           8.4451   -3.5184   27.8818 C.ar    1  UNL1        0.0176
     14 C           7.9433   -4.6142   26.9887 C.ar    1  UNL1        0.0824
     15 C           8.0110   -8.0139   26.0830 C.3     1  UNL1        0.2525
     16 O           7.0466   -7.0332   26.6815 O.3     1  UNL1       -0.4702
     17 C           6.1841   -3.3885   20.4578 C.ar    1  UNL1        0.1288
     18 C           5.5342   -2.0375   20.4069 C.ar    1  UNL1        0.0439
     19 C           4.2179   -2.1825   19.7024 C.ar    1  UNL1        0.1023
     20 N           4.0542   -3.6231   19.3179 N.ar    1  UNL1       -0.1725
     21 N           5.2694   -4.3684   19.7848 N.ar    1  UNL1       -0.2714
     22 H           5.4371   -5.3317   19.6697 H       1  UNL1        0.1891
     23 C           3.2375   -1.0804   19.4301 C.ar    1  UNL1        0.0194
     24 C           1.9012   -1.0802   20.1116 C.ar    1  UNL1        0.0024
     25 C           0.9207    0.0218   19.8394 C.ar    1  UNL1        0.0114
     26 C           1.2765    1.1237   18.8858 C.ar    1  UNL1        0.0577
     27 CL          0.2960    2.2258   18.6136 Cl      1  UNL1       -0.0822
     28 C           2.6128    1.1234   18.2044 C.ar    1  UNL1        0.0114
     29 C           3.5933    0.0214   18.4765 C.ar    1  UNL1        0.0024
@<TRIPOS>BOND
     1    15    16    1
     2    16     9    1
     3     9    10   ar
     4    10    11   ar
     5    11    12   ar
     6    12    13   ar
     7    13    14   ar
     8    14     1    1
     9     1     2    1
    10     2     3    1
    11     3     4    1
    12     4     5   am
    13     5     6    2
    14     5    17    1
    15    17    18   ar
    16    18    19   ar
    17    19    23    1
    18    23    24   ar
    19    24    25   ar
    20    25    26   ar
    21    26    27    1
    22    26    28   ar
    23    28    29   ar
    24    19    20   ar
    25    20    21   ar
    26     4     7    1
    27     7     8    1
    28    14     9   ar
    29     8     1    1
    30    21    17   ar
    31    29    23   ar
    32    21    22    1
@<TRIPOS>MOLECULE
*****
 29 32 0 0 0
SMALL
GASTEIGER

@<TRIPOS>ATOM
      1 N          -2.7147    4.0232   22.1002 N.pl3   1  UNL1       -0.3017
      2 C          -1.3921    3.3196   22.1747 C.3     1  UNL1        0.1124
      3 C          -0.6211    3.0371   20.9195 C.3     1  UNL1        0.1152
      4 N          -1.1727    3.4582   19.5896 N.am    1  UNL1       -0.2714
      5 C          -0.4018    3.1758   18.3344 C.2     1  UNL1        0.2663
      6 O          -0.9534    3.5969   17.0046 O.2     1  UNL1       -0.2683
      7 C          -2.4954    4.1619   19.5151 C.3     1  UNL1        0.1152
      8 C          -3.2664    4.4443   20.7705 C.3     1  UNL1        0.1124
      9 C          -3.1744    5.5275   24.1681 C.ar    1  UNL1        0.1519
     10 C          -3.9454    5.8099   25.4233 C.ar    1  UNL1        0.0382
     11 C          -5.0277    4.8705   25.8662 C.ar    1  UNL1        0.0032
     12 C          -5.3390    3.6487   25.0537 C.ar    1  UNL1        0.0015
     13 C          -4.5680    3.3662   23.7984 C.ar    1  UNL1        0.0176
     14 C          -3.4857    4.3057   23.3556 C.ar    1  UNL1        0.0824
     15 C          -2.4140    7.5944   22.7897 C.3     1  UNL1        0.2525
     16 O          -2.0921    6.4669   23.7252 O.3     1  UNL1       -0.4702
     17 C           0.9209    2.4721   18.4088 C.ar    1  UNL1        0.1288
     18 C           1.1260    0.9921   18.5407 C.ar    1  UNL1        0.0439
     19 C           2.6025    0.7302   18.5779 C.ar    1  UNL1        0.1023
     20 N           3.3099    2.0484   18.4690 N.ar    1  UNL1       -0.1725
     21 N           2.2706    3.1250   18.3646 N.ar    1  UNL1       -0.2714
     22 H           2.4439    4.0905   18.2815 H       1  UNL1        0.1891
     23 C           3.2567   -0.6139   18.7021 C.ar    1  UNL1        0.0194
     24 C           2.8595   -1.5416   19.8119 C.ar    1  UNL1        0.0024
     25 C           3.5137   -2.8856   19.9362 C.ar    1  UNL1        0.0114
     26 C           4.5650   -3.3020   18.9506 C.ar    1  UNL1        0.0577
     27 CL          5.2192   -4.6462   19.0749 Cl      1  UNL1       -0.0822
     28 C           4.9622   -2.3743   17.8409 C.ar    1  UNL1        0.0114
     29 C           4.3081   -1.0303   17.7166 C.ar    1  UNL1        0.0024
@<TRIPOS>BOND
     1    15    16    1
     2    16     9    1
     3     9    10   ar
     4    10    11   ar
     5    11    12   ar
     6    12    13   ar
     7    13    14   ar
     8    14     1    1
     9     1     2    1
    10     2     3    1
    11     3     4    1
    12     4     5   am
    13     5     6    2
    14     5    17    1
    15    17    18   ar
    16    18    19   ar
    17    19    23    1
    18    23    24   ar
    19    24    25   ar
    20    25    26   ar
    21    26    27    1
    22    26    28   ar
    23    28    29   ar
    24    19    20   ar
    25    20    21   ar
    26     4     7    1
    27     7     8    1
    28    14     9   ar
    29     8     1    1
    30    21    17   ar
    31    29    23   ar
    32    21    22    1
@<TRIPOS>MOLECULE
*****
 29 32 0 0 0
SMALL
GASTEIGER

@<TRIPOS>ATOM
      1 N          -3.9000    4.1741   21.2158 N.pl3   1  UNL1       -0.3017
      2 C          -2.6194    3.4627   21.5382 C.3     1  UNL1        0.1124
      3 C          -1.5703    3.2903   20.4801 C.3     1  UNL1        0.1152
      4 N          -1.8017    3.8293   19.0995 N.am    1  UNL1       -0.2714
      5 C          -0.7526    3.6570   18.0415 C.2     1  UNL1        0.2663
      6 O          -0.9841    4.1960   16.6610 O.2     1  UNL1       -0.2683
      7 C          -3.0823    4.5407   18.7771 C.3     1  UNL1        0.1152
      8 C          -4.1315    4.7131   19.8353 C.3     1  UNL1        0.1124
      9 C          -4.5526    4.7370   23.6668 C.ar    1  UNL1        0.1519
     10 C          -5.6017    4.9094   24.7248 C.ar    1  UNL1        0.0382
     11 C          -7.0475    4.6911   24.3901 C.ar    1  UNL1        0.0032
     12 C          -7.4441    4.3005   22.9972 C.ar    1  UNL1        0.0015
     13 C          -6.3950    4.1281   21.9392 C.ar    1  UNL1        0.0176
     14 C          -4.9492    4.3464   22.2739 C.ar    1  UNL1        0.0824
     15 C          -2.6824    5.1036   25.4326 C.3     1  UNL1        0.2525
     16 O          -3.1068    4.9553   24.0015 O.3     1  UNL1       -0.4702
     17 C           0.5280    2.9456   18.3639 C.ar    1  UNL1        0.1288
     18 C           0.7681    1.4690   18.2541 C.ar    1  UNL1        0.0439
     19 C           2.1819    1.1967   18.6751 C.ar    1  UNL1        0.1023
     20 N           2.8155    2.5050   19.0451 N.ar    1  UNL1       -0.1725
     21 N           1.7934    3.5858   18.8527 N.ar    1  UNL1       -0.2714
     22 H           1.9291    4.5468   19.0183 H       1  UNL1        0.1891
     23 C           2.8454   -0.1479   18.7185 C.ar    1  UNL1        0.0194
     24 C           3.8317   -0.5321   17.6556 C.ar    1  UNL1        0.0024
     25 C           4.4952   -1.8766   17.6989 C.ar    1  UNL1        0.0114
     26 C           4.1726   -2.8368   18.8052 C.ar    1  UNL1        0.0577
     27 CL          4.8362   -4.1814   18.8485 Cl      1  UNL1       -0.0822
     28 C           3.1864   -2.4526   19.8681 C.ar    1  UNL1        0.0114
     29 C           2.5228   -1.1081   19.8247 C.ar    1  UNL1        0.0024
@<TRIPOS>BOND
     1    15    16    1
     2    16     9    1
     3     9    10   ar
     4    10    11   ar
     5    11    12   ar
     6    12    13   ar
     7    13    14   ar
     8    14     1    1
     9     1     2    1
    10     2     3    1
    11     3     4    1
    12     4     5   am
    13     5     6    2
    14     5    17    1
    15    17    18   ar
    16    18    19   ar
    17    19    23    1
    18    23    24   ar
    19    24    25   ar
    20    25    26   ar
    21    26    27    1
    22    26    28   ar
    23    28    29   ar
    24    19    20   ar
    25    20    21   ar
    26     4     7    1
    27     7     8    1
    28    14     9   ar
    29     8     1    1
    30    21    17   ar
    31    29    23   ar
    32    21    22    1
@<TRIPOS>MOLECULE
*****
 29 32 0 0 0
SMALL
GASTEIGER

@<TRIPOS>ATOM
      1 N           2.3615   -0.4804   19.9930 N.pl3   1  UNL1       -0.3017
      2 C           1.0653   -0.4415   20.7468 C.3     1  UNL1        0.1124
      3 C           0.2020    0.7838   20.6914 C.3     1  UNL1        0.1152
      4 N           0.6348    1.9703   19.8821 N.am    1  UNL1       -0.2714
      5 C          -0.2286    3.1956   19.8267 C.2     1  UNL1        0.2663
      6 O           0.2042    4.3820   19.0173 O.2     1  UNL1       -0.2683
      7 C           1.9310    1.9314   19.1282 C.3     1  UNL1        0.1152
      8 C           2.7944    0.7060   19.1836 C.3     1  UNL1        0.1124
      9 C           4.1816   -1.8983   21.1876 C.ar    1  UNL1        0.1519
     10 C           5.0449   -3.1237   21.2430 C.ar    1  UNL1        0.0382
     11 C           4.9516   -4.1565   20.1592 C.ar    1  UNL1        0.0032
     12 C           3.9950   -3.9640   19.0201 C.ar    1  UNL1        0.0015
     13 C           3.1317   -2.7386   18.9646 C.ar    1  UNL1        0.0176
     14 C           3.2250   -1.7058   20.0484 C.ar    1  UNL1        0.0824
     15 C           3.4403   -1.0010   23.5104 C.3     1  UNL1        0.2525
     16 O           4.2748   -0.8655   22.2714 O.3     1  UNL1       -0.4702
     17 C          -1.5248    3.2345   20.5805 C.ar    1  UNL1        0.1288
     18 C          -1.7382    3.8385   21.9369 C.ar    1  UNL1        0.0439
     19 C          -3.1805    3.6535   22.3051 C.ar    1  UNL1        0.1023
     20 N          -3.8586    2.9352   21.1763 N.ar    1  UNL1       -0.1725
     21 N          -2.8353    2.6762   20.1105 N.ar    1  UNL1       -0.2714
     22 H          -2.9957    2.2199   19.2530 H       1  UNL1        0.1891
     23 C          -3.8306    4.1073   23.5785 C.ar    1  UNL1        0.0194
     24 C          -3.2561    3.6961   24.9016 C.ar    1  UNL1        0.0024
     25 C          -3.9060    4.1498   26.1750 C.ar    1  UNL1        0.0114
     26 C          -5.1306    5.0147   26.1252 C.ar    1  UNL1        0.0577
     27 CL         -5.7806    5.4684   27.3987 Cl      1  UNL1       -0.0822
     28 C          -5.7051    5.4258   24.8020 C.ar    1  UNL1        0.0114
     29 C          -5.0551    4.9722   23.5287 C.ar    1  UNL1        0.0024
@<TRIPOS>BOND
     1    15    16    1
     2    16     9    1
     3     9    10   ar
     4    10    11   ar
     5    11    12   ar
     6    12    13   ar
     7    13    14   ar
     8    14     1    1
     9     1     2    1
    10     2     3    1
    11     3     4    1
    12     4     5   am
    13     5     6    2
    14     5    17    1
    15    17    18   ar
    16    18    19   ar
    17    19    23    1
    18    23    24   ar
    19    24    25   ar
    20    25    26   ar
    21    26    27    1
    22    26    28   ar
    23    28    29   ar
    24    19    20   ar
    25    20    21   ar
    26     4     7    1
    27     7     8    1
    28    14     9   ar
    29     8     1    1
    30    21    17   ar
    31    29    23   ar
    32    21    22    1
