@<TRIPOS>MOLECULE
*****
 42 46 0 0 0
SMALL
GASTEIGER

@<TRIPOS>ATOM
      1 C           6.6917   -4.1539   31.2919 C.2     1  UNL1        0.2252
      2 O           6.8386   -5.5357   31.8567 O.2     1  UNL1       -0.2749
      3 N           6.5943   -3.9566   29.8081 N.am    1  UNL1       -0.2794
      4 C           6.6437   -5.1412   28.8892 C.3     1  UNL1        0.0953
      5 C           6.5463   -4.9439   27.4054 C.3     1  UNL1        0.0442
      6 C           6.3994   -3.5620   26.8405 C.3     1  UNL1        0.0933
      7 C           6.3500   -2.3776   27.7595 C.3     1  UNL1        0.0442
      8 C           6.4474   -2.5749   29.2433 C.3     1  UNL1        0.0953
      9 N           6.3020   -3.3648   25.3567 N.ar    1  UNL1       -0.2817
     10 C           5.3328   -2.4652   24.6487 C.ar    1  UNL1        0.3315
     11 O           4.2908   -1.6049   25.3000 O.2     1  UNL1       -0.2463
     12 N           5.5885   -2.5770   23.1749 N.ar    1  UNL1       -0.2799
     13 C           6.7157   -3.5456   22.9721 C.ar    1  UNL1        0.0819
     14 C           7.3976   -4.0472   21.7338 C.ar    1  UNL1        0.0484
     15 C           8.5204   -5.0357   21.8440 C.ar    1  UNL1        0.1417
     16 F           9.2023   -5.5373   20.6056 F       1  UNL1       -0.2041
     17 C           8.9613   -5.5226   23.1925 C.ar    1  UNL1        0.0312
     18 C           8.2795   -5.0210   24.4308 C.ar    1  UNL1        0.0211
     19 C           7.1567   -4.0325   24.3206 C.ar    1  UNL1        0.0798
     20 C           4.8471   -1.8481   22.0936 C.3     1  UNL1        0.1109
     21 C           4.0289   -2.6149   21.0972 C.3     1  UNL1        0.0334
     22 C           4.4544   -2.6684   19.6598 C.3     1  UNL1        0.1053
     23 C           4.5759   -3.9908   18.9625 C.3     1  UNL1        0.3978
     24 F           4.6973   -5.3133   18.2651 F       1  UNL1       -0.1700
     25 F           3.7026   -4.6215   20.0065 F       1  UNL1       -0.1700
     26 F           5.4491   -3.3602   17.9185 F       1  UNL1       -0.1700
     27 N           6.5434   -0.6003   34.0487 N.3     1  UNL1       -0.2689
     28 C           5.2899   -1.3655   33.7434 C.3     1  UNL1        0.0729
     29 C           5.3393   -2.5501   32.8245 C.3     1  UNL1        0.0264
     30 C           6.6423   -2.9693   32.2108 C.3     1  UNL1        0.0795
     31 C           7.8958   -2.2041   32.5161 C.3     1  UNL1        0.0264
     32 C           7.8464   -1.0196   33.4350 C.3     1  UNL1        0.0729
     33 C           6.4940    0.5843   34.9676 C.3     1  UNL1        0.0993
     34 N           3.0723    0.5401   38.8778 N.pl3   1  UNL1       -0.3426
     35 C           3.4746    1.0027   37.5087 C.ar    1  UNL1        0.1251
     36 C           4.7832    0.5622   36.9226 C.ar    1  UNL1        0.0310
     37 C           5.1855    1.0248   35.5536 C.ar    1  UNL1       -0.0018
     38 C           4.2792    1.9280   34.7707 C.ar    1  UNL1        0.0179
     39 C           2.9706    2.3685   35.3569 C.ar    1  UNL1        0.1000
     40 N           2.5683    1.9059   36.7259 N.ar    1  UNL1       -0.2296
     41 H           3.6671   -0.0527   39.3916 H       1  UNL1        0.1437
     42 H           2.2134    0.8293   39.2624 H       1  UNL1        0.1437
@<TRIPOS>BOND
     1    34    35    1
     2    35    36   ar
     3    36    37   ar
     4    37    33    1
     5    33    27    1
     6    27    28    1
     7    28    29    1
     8    29    30    1
     9    30     1    1
    10     1     2    2
    11     1     3   am
    12     3     4    1
    13     4     5    1
    14     5     6    1
    15     6     9    1
    16     9    10   ar
    17    10    11    2
    18    10    12   ar
    19    12    20    1
    20    20    21    1
    21    21    22    1
    22    22    23    1
    23    23    24    1
    24    23    25    1
    25    23    26    1
    26    12    13   ar
    27    13    14   ar
    28    14    15   ar
    29    15    16    1
    30    15    17   ar
    31    17    18   ar
    32    18    19   ar
    33     6     7    1
    34     7     8    1
    35    30    31    1
    36    31    32    1
    37    37    38   ar
    38    38    39   ar
    39    39    40   ar
    40    40    35   ar
    41    32    27    1
    42     8     3    1
    43    19     9   ar
    44    19    13   ar
    45    34    41    1
    46    34    42    1
@<TRIPOS>MOLECULE
*****
 42 46 0 0 0
SMALL
GASTEIGER

@<TRIPOS>ATOM
      1 C           6.6851   -3.8963   31.2902 C.2     1  UNL1        0.2252
      2 O           6.8722   -5.3068   31.7647 O.2     1  UNL1       -0.2749
      3 N           6.5579   -3.6091   29.8234 N.am    1  UNL1       -0.2794
      4 C           6.6180   -4.7325   28.8312 C.3     1  UNL1        0.0953
      5 C           6.4909   -4.4453   27.3645 C.3     1  UNL1        0.0442
      6 C           6.3037   -3.0347   26.8899 C.3     1  UNL1        0.0933
      7 C           6.2436   -1.9114   27.8820 C.3     1  UNL1        0.0442
      8 C           6.3707   -2.1985   29.3488 C.3     1  UNL1        0.0953
      9 N           6.1765   -2.7475   25.4231 N.ar    1  UNL1       -0.2817
     10 C           7.1241   -3.1981   24.3511 C.ar    1  UNL1        0.3315
     11 O           8.3651   -4.0149   24.5576 O.2     1  UNL1       -0.2463
     12 N           6.6127   -2.6884   23.0363 N.ar    1  UNL1       -0.2799
     13 C           5.3491   -1.9228   23.2957 C.ar    1  UNL1        0.0819
     14 C           4.4091   -1.1971   22.3793 C.ar    1  UNL1        0.0484
     15 C           3.1996   -0.5080   22.9380 C.ar    1  UNL1        0.1417
     16 F           2.2596    0.2177   22.0216 F       1  UNL1       -0.2041
     17 C           2.9301   -0.5446   24.4132 C.ar    1  UNL1        0.0312
     18 C           3.8700   -1.2703   25.3296 C.ar    1  UNL1        0.0211
     19 C           5.0795   -1.9593   24.7709 C.ar    1  UNL1        0.0798
     20 C           7.2525   -2.9060   21.6972 C.3     1  UNL1        0.1109
     21 C           6.7664   -4.0088   20.8040 C.3     1  UNL1        0.0334
     22 C           5.7351   -3.7231   19.7529 C.3     1  UNL1        0.1053
     23 C           4.4641   -4.5186   19.7135 C.3     1  UNL1        0.3978
     24 F           3.1930   -5.3140   19.6740 F       1  UNL1       -0.1700
     25 F           4.6104   -4.6788   18.2292 F       1  UNL1       -0.1700
     26 F           4.3177   -4.3583   21.1977 F       1  UNL1       -0.1700
     27 N           6.5049   -0.5261   34.2666 N.3     1  UNL1       -0.2689
     28 C           7.8105   -0.8902   33.6240 C.3     1  UNL1        0.0729
     29 C           7.8706   -2.0136   32.6318 C.3     1  UNL1        0.0264
     30 C           6.6250   -2.7729   32.2823 C.3     1  UNL1        0.0795
     31 C           5.3194   -2.4088   32.9249 C.3     1  UNL1        0.0264
     32 C           5.2594   -1.2854   33.9170 C.3     1  UNL1        0.0729
     33 C           6.4448    0.5973   35.2588 C.3     1  UNL1        0.0993
     34 N           2.8198    0.4664   38.9793 N.pl3   1  UNL1       -0.3426
     35 C           3.3086    0.9852   37.6595 C.ar    1  UNL1        0.1251
     36 C           4.6324    0.5318   37.1190 C.ar    1  UNL1        0.0310
     37 C           5.1211    1.0507   35.7992 C.ar    1  UNL1       -0.0018
     38 C           4.2860    2.0230   35.0198 C.ar    1  UNL1        0.0179
     39 C           2.9623    2.4764   35.5603 C.ar    1  UNL1        0.1000
     40 N           2.4736    1.9575   36.8802 N.ar    1  UNL1       -0.2296
     41 H           3.3679   -0.1718   39.4909 H       1  UNL1        0.1437
     42 H           1.9510    0.7640   39.3340 H       1  UNL1        0.1437
@<TRIPOS>BOND
     1    34    35    1
     2    35    36   ar
     3    36    37   ar
     4    37    33    1
     5    33    27    1
     6    27    28    1
     7    28    29    1
     8    29    30    1
     9    30     1    1
    10     1     2    2
    11     1     3   am
    12     3     4    1
    13     4     5    1
    14     5     6    1
    15     6     9    1
    16     9    10   ar
    17    10    11    2
    18    10    12   ar
    19    12    20    1
    20    20    21    1
    21    21    22    1
    22    22    23    1
    23    23    24    1
    24    23    25    1
    25    23    26    1
    26    12    13   ar
    27    13    14   ar
    28    14    15   ar
    29    15    16    1
    30    15    17   ar
    31    17    18   ar
    32    18    19   ar
    33     6     7    1
    34     7     8    1
    35    30    31    1
    36    31    32    1
    37    37    38   ar
    38    38    39   ar
    39    39    40   ar
    40    40    35   ar
    41    32    27    1
    42     8     3    1
    43    19     9   ar
    44    19    13   ar
    45    34    41    1
    46    34    42    1
@<TRIPOS>MOLECULE
*****
 42 46 0 0 0
SMALL
GASTEIGER

@<TRIPOS>ATOM
      1 C          -3.7334    4.8493   18.6325 C.2     1  UNL1        0.2252
      2 O          -4.2171    5.4370   17.3400 O.2     1  UNL1       -0.2749
      3 N          -2.4049    4.1552   18.6900 N.am    1  UNL1       -0.2794
      4 C          -1.5602    4.0487   17.4550 C.3     1  UNL1        0.0953
      5 C          -0.2318    3.3546   17.5125 C.3     1  UNL1        0.0442
      6 C           0.2521    2.7668   18.8051 C.3     1  UNL1        0.0933
      7 C          -0.5926    2.8733   20.0400 C.3     1  UNL1        0.0442
      8 C          -1.9211    3.5674   19.9825 C.3     1  UNL1        0.0953
      9 N           1.5806    2.0727   18.8625 N.ar    1  UNL1       -0.2817
     10 C           1.8197    0.6625   19.3145 C.ar    1  UNL1        0.3315
     11 O           0.7724   -0.3011   19.7884 O.2     1  UNL1       -0.2463
     12 N           3.2901    0.3852   19.2094 N.ar    1  UNL1       -0.2799
     13 C           3.9597    1.6239   18.6925 C.ar    1  UNL1        0.0819
     14 C           5.3950    1.9369   18.3893 C.ar    1  UNL1        0.0484
     15 C           5.7737    3.2929   17.8718 C.ar    1  UNL1        0.1417
     16 F           7.2090    3.6059   17.5686 F       1  UNL1       -0.2041
     17 C           4.7171    4.3358   17.6574 C.ar    1  UNL1        0.0312
     18 C           3.2819    4.0228   17.9605 C.ar    1  UNL1        0.0211
     19 C           2.9031    2.6668   18.4781 C.ar    1  UNL1        0.0798
     20 C           3.9713   -0.9045   19.5597 C.3     1  UNL1        0.1109
     21 C           3.7538   -2.1222   18.7112 C.3     1  UNL1        0.0334
     22 C           3.4382   -3.4392   19.3562 C.3     1  UNL1        0.1053
     23 C           4.1760   -4.6758   18.9361 C.3     1  UNL1        0.3978
     24 F           4.9138   -5.9124   18.5161 F       1  UNL1       -0.1700
     25 F           5.1388   -3.8348   18.1514 F       1  UNL1       -0.1700
     26 F           3.2132   -5.5168   19.7208 F       1  UNL1       -0.1700
     27 N          -6.2673    5.1686   22.3375 N.3     1  UNL1       -0.2689
     28 C          -5.3333    6.2832   21.9693 C.3     1  UNL1        0.0729
     29 C          -4.4886    6.1767   20.7343 C.3     1  UNL1        0.0264
     30 C          -4.5780    4.9558   19.8675 C.3     1  UNL1        0.0795
     31 C          -5.5120    3.8413   20.2357 C.3     1  UNL1        0.0264
     32 C          -6.3567    3.9477   21.4707 C.3     1  UNL1        0.0729
     33 C          -7.1120    5.2751   23.5725 C.3     1  UNL1        0.0993
     34 N          -3.3964    3.6152   26.8034 N.pl3   1  UNL1       -0.3426
     35 C          -4.6062    4.4622   26.5406 C.ar    1  UNL1        0.1251
     36 C          -5.2543    4.4452   25.1879 C.ar    1  UNL1        0.0310
     37 C          -6.4641    5.2921   24.9252 C.ar    1  UNL1       -0.0018
     38 C          -7.0258    6.1561   26.0151 C.ar    1  UNL1        0.0179
     39 C          -6.3778    6.1731   27.3678 C.ar    1  UNL1        0.1000
     40 N          -5.1680    5.3261   27.6305 N.ar    1  UNL1       -0.2296
     41 H          -3.0277    3.0481   26.0881 H       1  UNL1        0.1437
     42 H          -2.9711    3.6264   27.6913 H       1  UNL1        0.1437
@<TRIPOS>BOND
     1    34    35    1
     2    35    36   ar
     3    36    37   ar
     4    37    33    1
     5    33    27    1
     6    27    28    1
     7    28    29    1
     8    29    30    1
     9    30     1    1
    10     1     2    2
    11     1     3   am
    12     3     4    1
    13     4     5    1
    14     5     6    1
    15     6     9    1
    16     9    10   ar
    17    10    11    2
    18    10    12   ar
    19    12    20    1
    20    20    21    1
    21    21    22    1
    22    22    23    1
    23    23    24    1
    24    23    25    1
    25    23    26    1
    26    12    13   ar
    27    13    14   ar
    28    14    15   ar
    29    15    16    1
    30    15    17   ar
    31    17    18   ar
    32    18    19   ar
    33     6     7    1
    34     7     8    1
    35    30    31    1
    36    31    32    1
    37    37    38   ar
    38    38    39   ar
    39    39    40   ar
    40    40    35   ar
    41    32    27    1
    42     8     3    1
    43    19     9   ar
    44    19    13   ar
    45    34    41    1
    46    34    42    1
@<TRIPOS>MOLECULE
*****
 42 46 0 0 0
SMALL
GASTEIGER

@<TRIPOS>ATOM
      1 C           3.2448   -0.3423   30.5063 C.2     1  UNL1        0.2252
      2 O           1.8043    0.0726   30.4545 O.2     1  UNL1       -0.2749
      3 N           3.9163   -0.8754   29.2754 N.am    1  UNL1       -0.2794
      4 C           3.1473   -0.9935   27.9930 C.3     1  UNL1        0.0953
      5 C           3.8189   -1.5265   26.7622 C.3     1  UNL1        0.0442
      6 C           5.2595   -1.9415   26.8138 C.3     1  UNL1        0.0933
      7 C           6.0284   -1.8235   28.0963 C.3     1  UNL1        0.0442
      8 C           5.3568   -1.2904   29.3271 C.3     1  UNL1        0.0953
      9 N           5.9310   -2.4746   25.5830 N.ar    1  UNL1       -0.2817
     10 C           6.1076   -1.7405   24.2869 C.ar    1  UNL1        0.3315
     11 O           5.6436   -0.3445   23.9940 O.2     1  UNL1       -0.2463
     12 N           6.8296   -2.6476   23.3351 N.ar    1  UNL1       -0.2799
     13 C           7.0992   -3.9423   24.0430 C.ar    1  UNL1        0.0819
     14 C           7.7787   -5.2047   23.6020 C.ar    1  UNL1        0.0484
     15 C           7.9029   -6.3602   24.5503 C.ar    1  UNL1        0.1417
     16 F           8.5824   -7.6227   24.1093 F       1  UNL1       -0.2041
     17 C           7.3475   -6.2533   25.9396 C.ar    1  UNL1        0.0312
     18 C           6.6681   -4.9909   26.3806 C.ar    1  UNL1        0.0211
     19 C           6.5439   -3.8354   25.4323 C.ar    1  UNL1        0.0798
     20 C           7.2144   -2.3179   21.9233 C.3     1  UNL1        0.1109
     21 C           6.2033   -2.4414   20.8220 C.3     1  UNL1        0.0334
     22 C           6.0529   -3.7387   20.0841 C.3     1  UNL1        0.1053
     23 C           4.6851   -4.2736   19.7791 C.3     1  UNL1        0.3978
     24 F           3.3174   -4.8086   19.4741 F       1  UNL1       -0.1700
     25 F           4.3622   -4.2831   21.2439 F       1  UNL1       -0.1700
     26 F           5.0080   -4.2642   18.3143 F       1  UNL1       -0.1700
     27 N           5.5517    0.0118   34.3537 N.3     1  UNL1       -0.2689
     28 C           4.9124   -1.2927   33.9798 C.3     1  UNL1        0.0729
     29 C           4.1434   -1.4108   32.6973 C.3     1  UNL1        0.0264
     30 C           4.0137   -0.2243   31.7887 C.3     1  UNL1        0.0795
     31 C           4.6530    1.0802   32.1625 C.3     1  UNL1        0.0264
     32 C           5.4220    1.1982   33.4450 C.3     1  UNL1        0.0729
     33 C           6.3206    0.1299   35.6361 C.3     1  UNL1        0.0993
     34 N           2.2309    0.6451   38.7997 N.pl3   1  UNL1       -0.3426
     35 C           3.6352    1.0124   38.4216 C.ar    1  UNL1        0.1251
     36 C           4.2758    0.3875   37.2179 C.ar    1  UNL1        0.0310
     37 C           5.6802    0.7548   36.8399 C.ar    1  UNL1       -0.0018
     38 C           6.4439    1.7471   37.6657 C.ar    1  UNL1        0.0179
     39 C           5.8034    2.3721   38.8695 C.ar    1  UNL1        0.1000
     40 N           4.3990    2.0047   39.2474 N.ar    1  UNL1       -0.2296
     41 H           1.7295   -0.0061   38.2577 H       1  UNL1        0.1437
     42 H           1.8105    1.0554   39.5898 H       1  UNL1        0.1437
@<TRIPOS>BOND
     1    34    35    1
     2    35    36   ar
     3    36    37   ar
     4    37    33    1
     5    33    27    1
     6    27    28    1
     7    28    29    1
     8    29    30    1
     9    30     1    1
    10     1     2    2
    11     1     3   am
    12     3     4    1
    13     4     5    1
    14     5     6    1
    15     6     9    1
    16     9    10   ar
    17    10    11    2
    18    10    12   ar
    19    12    20    1
    20    20    21    1
    21    21    22    1
    22    22    23    1
    23    23    24    1
    24    23    25    1
    25    23    26    1
    26    12    13   ar
    27    13    14   ar
    28    14    15   ar
    29    15    16    1
    30    15    17   ar
    31    17    18   ar
    32    18    19   ar
    33     6     7    1
    34     7     8    1
    35    30    31    1
    36    31    32    1
    37    37    38   ar
    38    38    39   ar
    39    39    40   ar
    40    40    35   ar
    41    32    27    1
    42     8     3    1
    43    19     9   ar
    44    19    13   ar
    45    34    41    1
    46    34    42    1
@<TRIPOS>MOLECULE
*****
 42 46 0 0 0
SMALL
GASTEIGER

@<TRIPOS>ATOM
      1 C         -17.9848   -3.4251   19.0366 C.2     1  UNL1        0.2252
      2 O         -19.3860   -3.9301   18.8587 O.2     1  UNL1       -0.2749
      3 N         -17.7478   -2.0427   19.5685 N.am    1  UNL1       -0.2794
      4 C         -18.9119   -1.1655   19.9225 C.3     1  UNL1        0.0953
      5 C         -18.6748    0.2168   20.4544 C.3     1  UNL1        0.0442
      6 C         -17.2736    0.7220   20.6323 C.3     1  UNL1        0.0933
      7 C         -16.1096   -0.1552   20.2782 C.3     1  UNL1        0.0442
      8 C         -16.3466   -1.5376   19.7463 C.3     1  UNL1        0.0953
      9 N         -17.0366    2.1044   21.1642 N.ar    1  UNL1       -0.2817
     10 C         -17.3856    2.5919   22.5391 C.ar    1  UNL1        0.3315
     11 O         -18.0330    1.7826   23.6236 O.2     1  UNL1       -0.2463
     12 N         -16.9736    4.0307   22.6392 N.ar    1  UNL1       -0.2799
     13 C         -16.3699    4.4324   21.3261 C.ar    1  UNL1        0.0819
     14 C         -15.7899    5.7285   20.8427 C.ar    1  UNL1        0.0484
     15 C         -15.2487    5.8340   19.4478 C.ar    1  UNL1        0.1417
     16 F         -14.6686    7.1301   18.9643 F       1  UNL1       -0.2041
     17 C         -15.2876    4.6434   18.5361 C.ar    1  UNL1        0.0312
     18 C         -15.8677    3.3474   19.0195 C.ar    1  UNL1        0.0211
     19 C         -16.4089    3.2419   20.4145 C.ar    1  UNL1        0.0798
     20 C         -17.1366    4.9129   23.8413 C.3     1  UNL1        0.1109
     21 C         -16.0276    5.0253   24.8451 C.3     1  UNL1        0.0334
     22 C         -14.7248    5.6585   24.4557 C.3     1  UNL1        0.1053
     23 C         -13.4526    4.8682   24.5385 C.3     1  UNL1        0.3978
     24 F         -12.1803    4.0779   24.6211 F       1  UNL1       -0.1700
     25 F         -13.5629    4.5379   23.0794 F       1  UNL1       -0.1700
     26 F         -13.3422    5.1985   25.9975 F       1  UNL1       -0.1700
     27 N         -14.4926   -6.0568   17.9744 N.3     1  UNL1       -0.2689
     28 C         -15.0862   -5.1451   16.9416 C.3     1  UNL1        0.0729
     29 C         -16.2502   -4.2679   17.2956 C.3     1  UNL1        0.0264
     30 C         -16.8207   -4.3023   18.6825 C.3     1  UNL1        0.0795
     31 C         -16.2272   -5.2139   19.7153 C.3     1  UNL1        0.0264
     32 C         -15.0631   -6.0911   19.3613 C.3     1  UNL1        0.0729
     33 C         -13.3285   -6.9340   17.6204 C.3     1  UNL1        0.0993
     34 N          -9.8462   -3.4194   19.2083 N.pl3   1  UNL1       -0.3426
     35 C         -10.2161   -4.8450   18.9236 C.ar    1  UNL1        0.1251
     36 C         -11.5874   -5.1767   18.4143 C.ar    1  UNL1        0.0310
     37 C         -11.9572   -6.6023   18.1297 C.ar    1  UNL1       -0.0018
     38 C         -10.9556   -7.6961   18.3544 C.ar    1  UNL1        0.0179
     39 C          -9.5843   -7.3644   18.8637 C.ar    1  UNL1        0.1000
     40 N          -9.2145   -5.9388   19.1483 N.ar    1  UNL1       -0.2296
     41 H         -10.5035   -2.7014   19.0608 H       1  UNL1        0.1437
     42 H          -8.9461   -3.2017   19.5425 H       1  UNL1        0.1437
@<TRIPOS>BOND
     1    34    35    1
     2    35    36   ar
     3    36    37   ar
     4    37    33    1
     5    33    27    1
     6    27    28    1
     7    28    29    1
     8    29    30    1
     9    30     1    1
    10     1     2    2
    11     1     3   am
    12     3     4    1
    13     4     5    1
    14     5     6    1
    15     6     9    1
    16     9    10   ar
    17    10    11    2
    18    10    12   ar
    19    12    20    1
    20    20    21    1
    21    21    22    1
    22    22    23    1
    23    23    24    1
    24    23    25    1
    25    23    26    1
    26    12    13   ar
    27    13    14   ar
    28    14    15   ar
    29    15    16    1
    30    15    17   ar
    31    17    18   ar
    32    18    19   ar
    33     6     7    1
    34     7     8    1
    35    30    31    1
    36    31    32    1
    37    37    38   ar
    38    38    39   ar
    39    39    40   ar
    40    40    35   ar
    41    32    27    1
    42     8     3    1
    43    19     9   ar
    44    19    13   ar
    45    34    41    1
    46    34    42    1
@<TRIPOS>MOLECULE
*****
 42 46 0 0 0
SMALL
GASTEIGER

@<TRIPOS>ATOM
      1 C           6.2882   -3.5592   21.4568 C.2     1  UNL1        0.2252
      2 O           7.1183   -4.6504   20.8486 O.2     1  UNL1       -0.2749
      3 N           6.3024   -3.3450   22.9414 N.am    1  UNL1       -0.2794
      4 C           7.1469   -4.2220   23.8176 C.3     1  UNL1        0.0953
      5 C           7.1612   -4.0078   25.3022 C.3     1  UNL1        0.0442
      6 C           6.3310   -2.9165   25.9105 C.3     1  UNL1        0.0933
      7 C           5.4866   -2.0396   25.0343 C.3     1  UNL1        0.0442
      8 C           5.4723   -2.2538   23.5497 C.3     1  UNL1        0.0953
      9 N           6.3453   -2.7023   27.3951 N.ar    1  UNL1       -0.2817
     10 C           6.1186   -1.3978   28.0999 C.ar    1  UNL1        0.3315
     11 O           5.8378   -0.0784   27.4439 O.2     1  UNL1       -0.2463
     12 N           6.2219   -1.6443   29.5759 N.ar    1  UNL1       -0.2799
     13 C           6.5125   -3.1012   29.7833 C.ar    1  UNL1        0.0819
     14 C           6.7176   -3.9169   31.0253 C.ar    1  UNL1        0.0484
     15 C           6.9989   -5.3864   30.9194 C.ar    1  UNL1        0.1417
     16 F           7.2040   -6.2022   32.1615 F       1  UNL1       -0.2041
     17 C           7.0751   -6.0403   29.5716 C.ar    1  UNL1        0.0312
     18 C           6.8700   -5.2247   28.3296 C.ar    1  UNL1        0.0211
     19 C           6.5888   -3.7551   28.4355 C.ar    1  UNL1        0.0798
     20 C           6.0627   -0.6147   30.6550 C.3     1  UNL1        0.1109
     21 C           4.7154   -0.3740   31.2690 C.3     1  UNL1        0.0334
     22 C           4.0812   -1.4307   32.1241 C.3     1  UNL1        0.1053
     23 C           4.2671   -1.4027   33.6122 C.3     1  UNL1        0.3978
     24 F           4.4530   -1.3745   35.1004 F       1  UNL1       -0.1700
     25 F           4.2518    0.0971   33.5858 F       1  UNL1       -0.1700
     26 F           4.2823   -2.9023   33.6387 F       1  UNL1       -0.1700
     27 N           3.7549   -0.9282   18.8281 N.3     1  UNL1       -0.2689
     28 C           5.1980   -0.5905   19.0593 C.3     1  UNL1        0.0729
     29 C           6.0425   -1.4675   19.9355 C.3     1  UNL1        0.0264
     30 C           5.4437   -2.6822   20.5806 C.3     1  UNL1        0.0795
     31 C           4.0006   -3.0199   20.3495 C.3     1  UNL1        0.0264
     32 C           3.1562   -2.1429   19.4733 C.3     1  UNL1        0.0729
     33 C           2.9104   -0.0512   17.9519 C.3     1  UNL1        0.0993
     34 N          -1.0424    2.0288   20.6070 N.pl3   1  UNL1       -0.3426
     35 C           0.2479    2.1901   19.8591 C.ar    1  UNL1        0.1251
     36 C           0.9341    0.9888   19.2794 C.ar    1  UNL1        0.0310
     37 C           2.2243    1.1502   18.5315 C.ar    1  UNL1       -0.0018
     38 C           2.8284    2.5128   18.3634 C.ar    1  UNL1        0.0179
     39 C           2.1422    3.7141   18.9430 C.ar    1  UNL1        0.1000
     40 N           0.8520    3.5527   19.6909 N.ar    1  UNL1       -0.2296
     41 H          -1.4389    1.1345   20.7174 H       1  UNL1        0.1437
     42 H          -1.4927    2.8173   20.9874 H       1  UNL1        0.1437
@<TRIPOS>BOND
     1    34    35    1
     2    35    36   ar
     3    36    37   ar
     4    37    33    1
     5    33    27    1
     6    27    28    1
     7    28    29    1
     8    29    30    1
     9    30     1    1
    10     1     2    2
    11     1     3   am
    12     3     4    1
    13     4     5    1
    14     5     6    1
    15     6     9    1
    16     9    10   ar
    17    10    11    2
    18    10    12   ar
    19    12    20    1
    20    20    21    1
    21    21    22    1
    22    22    23    1
    23    23    24    1
    24    23    25    1
    25    23    26    1
    26    12    13   ar
    27    13    14   ar
    28    14    15   ar
    29    15    16    1
    30    15    17   ar
    31    17    18   ar
    32    18    19   ar
    33     6     7    1
    34     7     8    1
    35    30    31    1
    36    31    32    1
    37    37    38   ar
    38    38    39   ar
    39    39    40   ar
    40    40    35   ar
    41    32    27    1
    42     8     3    1
    43    19     9   ar
    44    19    13   ar
    45    34    41    1
    46    34    42    1
@<TRIPOS>MOLECULE
*****
 42 46 0 0 0
SMALL
GASTEIGER

@<TRIPOS>ATOM
      1 C           1.6816    0.8362   28.0651 C.2     1  UNL1        0.2252
      2 O           0.3274    0.8371   27.4200 O.2     1  UNL1       -0.2749
      3 N           1.8312    1.2625   29.4955 N.am    1  UNL1       -0.2794
      4 C           0.6266    1.6897   30.2807 C.3     1  UNL1        0.0953
      5 C           0.7762    2.1161   31.7110 C.3     1  UNL1        0.0442
      6 C           2.1305    2.1151   32.3562 C.3     1  UNL1        0.0933
      7 C           3.3349    1.6879   31.5710 C.3     1  UNL1        0.0442
      8 C           3.1853    1.2616   30.1407 C.3     1  UNL1        0.0953
      9 N           2.2801    2.5415   33.7866 N.ar    1  UNL1       -0.2817
     10 C           3.0758    1.8296   34.8401 C.ar    1  UNL1        0.3315
     11 O           3.8617    0.5664   34.6483 O.2     1  UNL1       -0.2463
     12 N           2.9477    2.6027   36.1191 N.ar    1  UNL1       -0.2799
     13 C           2.0727    3.7924   35.8560 C.ar    1  UNL1        0.0819
     14 C           1.5984    4.9052   36.7429 C.ar    1  UNL1        0.0484
     15 C           0.7115    5.9801   36.1882 C.ar    1  UNL1        0.1417
     16 F           0.2372    7.0931   37.0751 F       1  UNL1       -0.2041
     17 C           0.2989    5.9423   34.7466 C.ar    1  UNL1        0.0312
     18 C           0.7732    4.8295   33.8597 C.ar    1  UNL1        0.0211
     19 C           1.6601    3.7545   34.4144 C.ar    1  UNL1        0.0798
     20 C           3.5830    2.2484   37.4310 C.3     1  UNL1        0.1109
     21 C           2.9693    1.1909   38.3001 C.3     1  UNL1        0.0334
     22 C           1.4857    1.1688   38.5202 C.3     1  UNL1        0.1053
     23 C           0.9336    1.2135   39.9141 C.3     1  UNL1        0.3978
     24 F           0.3814    1.2584   41.3080 F       1  UNL1       -0.1700
     25 F           0.2251    2.4960   39.5922 F       1  UNL1       -0.1700
     26 F           1.6420   -0.0688   40.2360 F       1  UNL1       -0.1700
     27 N           5.2953   -0.4455   25.7096 N.3     1  UNL1       -0.2689
     28 C           4.5580   -1.4425   26.5539 C.3     1  UNL1        0.0729
     29 C           3.3534   -1.0152   27.3391 C.3     1  UNL1        0.0264
     30 C           2.8862    0.4089   27.2800 C.3     1  UNL1        0.0795
     31 C           3.6234    1.4058   26.4358 C.3     1  UNL1        0.0264
     32 C           4.8279    0.9786   25.6506 C.3     1  UNL1        0.0729
     33 C           6.4998   -0.8728   24.9245 C.3     1  UNL1        0.0993
     34 N           4.2735   -3.3412   20.9307 N.pl3   1  UNL1       -0.3426
     35 C           5.3057   -3.2970   22.0182 C.ar    1  UNL1        0.1251
     36 C           5.3867   -2.1070   22.9276 C.ar    1  UNL1        0.0310
     37 C           6.4189   -2.0629   24.0151 C.ar    1  UNL1       -0.0018
     38 C           7.3703   -3.2089   24.1930 C.ar    1  UNL1        0.0179
     39 C           7.2893   -4.3989   23.2836 C.ar    1  UNL1        0.1000
     40 N           6.2570   -4.4430   22.1961 N.ar    1  UNL1       -0.2296
     41 H           3.6490   -2.5891   20.8139 H       1  UNL1        0.1437
     42 H           4.2204   -4.1223   20.3338 H       1  UNL1        0.1437
@<TRIPOS>BOND
     1    34    35    1
     2    35    36   ar
     3    36    37   ar
     4    37    33    1
     5    33    27    1
     6    27    28    1
     7    28    29    1
     8    29    30    1
     9    30     1    1
    10     1     2    2
    11     1     3   am
    12     3     4    1
    13     4     5    1
    14     5     6    1
    15     6     9    1
    16     9    10   ar
    17    10    11    2
    18    10    12   ar
    19    12    20    1
    20    20    21    1
    21    21    22    1
    22    22    23    1
    23    23    24    1
    24    23    25    1
    25    23    26    1
    26    12    13   ar
    27    13    14   ar
    28    14    15   ar
    29    15    16    1
    30    15    17   ar
    31    17    18   ar
    32    18    19   ar
    33     6     7    1
    34     7     8    1
    35    30    31    1
    36    31    32    1
    37    37    38   ar
    38    38    39   ar
    39    39    40   ar
    40    40    35   ar
    41    32    27    1
    42     8     3    1
    43    19     9   ar
    44    19    13   ar
    45    34    41    1
    46    34    42    1
@<TRIPOS>MOLECULE
*****
 42 46 0 0 0
SMALL
GASTEIGER

@<TRIPOS>ATOM
      1 C           5.8512   -2.1229   30.8469 C.2     1  UNL1        0.2252
      2 O           6.6846   -3.3435   30.5908 O.2     1  UNL1       -0.2749
      3 N           5.1868   -1.4150   29.7035 N.am    1  UNL1       -0.2794
      4 C           5.3558   -1.9277   28.3040 C.3     1  UNL1        0.0953
      5 C           4.6914   -1.2198   27.1605 C.3     1  UNL1        0.0442
      6 C           3.8580    0.0009   27.4166 C.3     1  UNL1        0.0933
      7 C           3.6891    0.5135   28.8161 C.3     1  UNL1        0.0442
      8 C           4.3535   -0.1944   29.9595 C.3     1  UNL1        0.0953
      9 N           3.1936    0.7088   26.2732 N.ar    1  UNL1       -0.2817
     10 C           3.8408    1.0850   24.9734 C.ar    1  UNL1        0.3315
     11 O           5.2662    0.8194   24.5888 O.2     1  UNL1       -0.2463
     12 N           2.8125    1.7734   24.1257 N.ar    1  UNL1       -0.2799
     13 C           1.5297    1.8227   24.9016 C.ar    1  UNL1        0.0819
     14 C           0.1776    2.3817   24.5710 C.ar    1  UNL1        0.0484
     15 C          -0.9390    2.2827   25.5677 C.ar    1  UNL1        0.1417
     16 F          -2.2911    2.8418   25.2372 F       1  UNL1       -0.2041
     17 C          -0.7034    1.6247   26.8949 C.ar    1  UNL1        0.0312
     18 C           0.6486    1.0657   27.2255 C.ar    1  UNL1        0.0211
     19 C           1.7652    1.1647   26.2288 C.ar    1  UNL1        0.0798
     20 C           3.0289    2.3172   22.7446 C.3     1  UNL1        0.1109
     21 C           2.9867    1.3966   21.5609 C.3     1  UNL1        0.0334
     22 C           1.9416    0.3235   21.4824 C.3     1  UNL1        0.1053
     23 C           2.1961   -0.9133   20.6727 C.3     1  UNL1        0.3978
     24 F           2.4504   -2.1501   19.8631 F       1  UNL1       -0.1700
     25 F           0.7501   -0.9504   20.2750 F       1  UNL1       -0.1700
     26 F           3.6419   -0.8763   21.0704 F       1  UNL1       -0.1700
     27 N           5.3444   -0.5847   35.0453 N.3     1  UNL1       -0.2689
     28 C           6.5038   -0.1237   34.2125 C.3     1  UNL1        0.0729
     29 C           6.6727   -0.6364   32.8130 C.3     1  UNL1        0.0264
     30 C           5.6823   -1.6101   32.2464 C.3     1  UNL1        0.0795
     31 C           4.5230   -2.0711   33.0792 C.3     1  UNL1        0.0264
     32 C           4.3540   -1.5584   34.4786 C.3     1  UNL1        0.0729
     33 C           5.1754   -0.0720   36.4448 C.3     1  UNL1        0.0993
     34 N           2.0370    3.8026   34.9827 N.pl3   1  UNL1       -0.3426
     35 C           2.5074    2.8364   36.0292 C.ar    1  UNL1        0.1251
     36 C           3.6062    1.8653   35.7138 C.ar    1  UNL1        0.0310
     37 C           4.0766    0.8991   36.7603 C.ar    1  UNL1       -0.0018
     38 C           3.4481    0.9039   38.1223 C.ar    1  UNL1        0.0179
     39 C           2.3492    1.8750   38.4377 C.ar    1  UNL1        0.1000
     40 N           1.8789    2.8412   37.3912 N.ar    1  UNL1       -0.2296
     41 H           2.4494    3.7995   34.0888 H       1  UNL1        0.1437
     42 H           1.3157    4.4400   35.1898 H       1  UNL1        0.1437
@<TRIPOS>BOND
     1    34    35    1
     2    35    36   ar
     3    36    37   ar
     4    37    33    1
     5    33    27    1
     6    27    28    1
     7    28    29    1
     8    29    30    1
     9    30     1    1
    10     1     2    2
    11     1     3   am
    12     3     4    1
    13     4     5    1
    14     5     6    1
    15     6     9    1
    16     9    10   ar
    17    10    11    2
    18    10    12   ar
    19    12    20    1
    20    20    21    1
    21    21    22    1
    22    22    23    1
    23    23    24    1
    24    23    25    1
    25    23    26    1
    26    12    13   ar
    27    13    14   ar
    28    14    15   ar
    29    15    16    1
    30    15    17   ar
    31    17    18   ar
    32    18    19   ar
    33     6     7    1
    34     7     8    1
    35    30    31    1
    36    31    32    1
    37    37    38   ar
    38    38    39   ar
    39    39    40   ar
    40    40    35   ar
    41    32    27    1
    42     8     3    1
    43    19     9   ar
    44    19    13   ar
    45    34    41    1
    46    34    42    1
@<TRIPOS>MOLECULE
*****
 42 46 0 0 0
SMALL
GASTEIGER

@<TRIPOS>ATOM
      1 C           1.3471    3.3092   26.8780 C.2     1  UNL1        0.2252
      2 O           2.0640    3.9299   28.0403 O.2     1  UNL1       -0.2749
      3 N           2.0995    2.4516   25.9041 N.am    1  UNL1       -0.2794
      4 C           3.5686    2.2148   26.0925 C.3     1  UNL1        0.0953
      5 C           4.3210    1.3571   25.1186 C.3     1  UNL1        0.0442
      6 C           3.6041    0.7364   23.9563 C.3     1  UNL1        0.0933
      7 C           2.1351    0.9733   23.7680 C.3     1  UNL1        0.0442
      8 C           1.3827    1.8309   24.7419 C.3     1  UNL1        0.0953
      9 N           4.3565   -0.1212   22.9824 N.ar    1  UNL1       -0.2817
     10 C           4.5436    0.1604   21.5210 C.ar    1  UNL1        0.3315
     11 O           4.0113    1.3490   20.7769 O.2     1  UNL1       -0.2463
     12 N           5.3566   -0.9554   20.9344 N.ar    1  UNL1       -0.2799
     13 C           5.6719   -1.9266   22.0332 C.ar    1  UNL1        0.0819
     14 C           6.4420   -3.2137   22.0447 C.ar    1  UNL1        0.0484
     15 C           6.5939   -3.9853   23.3220 C.ar    1  UNL1        0.1417
     16 F           7.3641   -5.2726   23.3336 F       1  UNL1       -0.2041
     17 C           5.9758   -3.4698   24.5878 C.ar    1  UNL1        0.0312
     18 C           5.2058   -2.1826   24.5762 C.ar    1  UNL1        0.0211
     19 C           5.0538   -1.4110   23.2990 C.ar    1  UNL1        0.0798
     20 C           5.7800   -1.0784   19.5006 C.3     1  UNL1        0.1109
     21 C           4.7635   -1.3911   18.4426 C.3     1  UNL1        0.0334
     22 C           4.4699   -2.8174   18.0828 C.3     1  UNL1        0.1053
     23 C           4.0479   -3.7874   19.1463 C.3     1  UNL1        0.3978
     24 F           3.6257   -4.7574   20.2097 F       1  UNL1       -0.1700
     25 F           2.9675   -2.8415   19.5802 F       1  UNL1       -0.1700
     26 F           5.1282   -4.7333   18.7124 F       1  UNL1       -0.1700
     27 N          -3.0603    4.0198   26.3129 N.3     1  UNL1       -0.2689
     28 C          -2.5793    2.7337   26.9167 C.3     1  UNL1        0.0729
     29 C          -1.1102    2.4968   27.1051 C.3     1  UNL1        0.0264
     30 C          -0.1220    3.5461   26.6897 C.3     1  UNL1        0.0795
     31 C          -0.6030    4.8322   26.0859 C.3     1  UNL1        0.0264
     32 C          -2.0721    5.0691   25.8975 C.3     1  UNL1        0.0729
     33 C          -4.5294    4.2567   26.1246 C.3     1  UNL1        0.0993
     34 N          -4.2208    2.6370   21.1969 N.pl3   1  UNL1       -0.3426
     35 C          -4.9900    3.3010   22.3004 C.ar    1  UNL1        0.1251
     36 C          -4.3751    3.4469   23.6608 C.ar    1  UNL1        0.0310
     37 C          -5.1443    4.1109   24.7642 C.ar    1  UNL1       -0.0018
     38 C          -6.5283    4.6290   24.5072 C.ar    1  UNL1        0.0179
     39 C          -7.1432    4.4831   23.1468 C.ar    1  UNL1        0.1000
     40 N          -6.3740    3.8191   22.0434 N.ar    1  UNL1       -0.2296
     41 H          -3.3124    2.2970   21.3656 H       1  UNL1        0.1437
     42 H          -4.6244    2.5413   20.3041 H       1  UNL1        0.1437
@<TRIPOS>BOND
     1    34    35    1
     2    35    36   ar
     3    36    37   ar
     4    37    33    1
     5    33    27    1
     6    27    28    1
     7    28    29    1
     8    29    30    1
     9    30     1    1
    10     1     2    2
    11     1     3   am
    12     3     4    1
    13     4     5    1
    14     5     6    1
    15     6     9    1
    16     9    10   ar
    17    10    11    2
    18    10    12   ar
    19    12    20    1
    20    20    21    1
    21    21    22    1
    22    22    23    1
    23    23    24    1
    24    23    25    1
    25    23    26    1
    26    12    13   ar
    27    13    14   ar
    28    14    15   ar
    29    15    16    1
    30    15    17   ar
    31    17    18   ar
    32    18    19   ar
    33     6     7    1
    34     7     8    1
    35    30    31    1
    36    31    32    1
    37    37    38   ar
    38    38    39   ar
    39    39    40   ar
    40    40    35   ar
    41    32    27    1
    42     8     3    1
    43    19     9   ar
    44    19    13   ar
    45    34    41    1
    46    34    42    1
