@<TRIPOS>MOLECULE
*****
 41 46 0 0 0
SMALL
GASTEIGER

@<TRIPOS>ATOM
      1 N           3.2335    0.8431   29.0579 N.3     1  UNL1       -0.2688
      2 C           2.5169   -0.1289   29.9476 C.3     1  UNL1        0.0741
      3 C           2.8135   -0.1594   31.4176 C.3     1  UNL1        0.0372
      4 C           3.8268    0.7822   31.9980 C.3     1  UNL1        0.0799
      5 C           4.5434    1.7542   31.1083 C.3     1  UNL1        0.0372
      6 C           4.2467    1.7847   29.6382 C.3     1  UNL1        0.0741
      7 N           4.1234    0.7517   33.4681 N.am    1  UNL1       -0.2618
      8 C           3.4975    1.6282   34.5121 C.2     1  UNL1        0.3074
      9 O           2.4652    2.6890   34.2695 O.2     1  UNL1       -0.2523
     10 N           4.0853    1.2576   35.8415 N.am    1  UNL1       -0.2635
     11 C           5.0744    0.1520   35.6190 C.3     1  UNL1        0.1192
     12 C           5.0979   -0.1606   34.1522 C.3     1  UNL1        0.1191
     13 C           3.7438    1.8827   37.1616 C.3     1  UNL1        0.0819
     14 C           2.3298    1.8552   37.6611 C.3     1  UNL1        0.0520
     15 C           1.9882    2.4804   38.9812 C.3     1  UNL1        0.1439
     16 O           3.0610    3.1331   39.8018 O.3     1  UNL1       -0.3537
     17 C           4.4751    3.1606   39.3022 C.3     1  UNL1        0.1439
     18 C           4.8165    2.5354   37.9821 C.3     1  UNL1        0.0520
     19 C           5.9469   -1.2026   33.4863 C.ar    1  UNL1       -0.0026
     20 C           7.4200   -0.9748   33.3184 C.ar    1  UNL1       -0.0026
     21 C           8.2690   -2.0167   32.6526 C.ar    1  UNL1       -0.0003
     22 C           7.6450   -3.2867   32.1546 C.ar    1  UNL1       -0.0000
     23 C           6.1720   -3.5145   32.3225 C.ar    1  UNL1       -0.0003
     24 C           5.3230   -2.4725   32.9884 C.ar    1  UNL1       -0.0026
     25 C           2.9369    0.8736   27.5879 C.3     1  UNL1        0.1007
     26 C           4.8996   -2.0956   24.8343 C.ar    1  UNL1        0.1107
     27 C           3.7811   -1.2317   24.3314 C.ar    1  UNL1        0.0255
     28 C           3.1270   -0.2420   25.2492 C.ar    1  UNL1        0.0007
     29 C           3.5911   -0.1161   26.6700 C.ar    1  UNL1        0.0131
     30 C           4.7095   -0.9800   27.1730 C.ar    1  UNL1        0.0965
     31 N           5.3637   -1.9698   26.2551 N.ar    1  UNL1       -0.2376
     32 S           5.5537   -3.0853   23.9165 S.3     1  UNL1       -0.0680
     33 C           5.6066   -2.3445   19.4782 C.ar    1  UNL1        0.0140
     34 C           6.5545   -1.6031   20.3737 C.ar    1  UNL1        0.0016
     35 C           6.5368   -1.8501   21.8531 C.ar    1  UNL1        0.0066
     36 C           5.5714   -2.8384   22.4370 C.ar    1  UNL1        0.0309
     37 C           4.6235   -3.5797   21.5416 C.ar    1  UNL1        0.0066
     38 C           4.6411   -3.3328   20.0622 C.ar    1  UNL1        0.0016
     39 O           4.3600   -1.7170   17.2868 O.co2   1  UNL1       -0.5446
     40 C           5.6242   -2.0975   17.9988 C.2     1  UNL1        0.0729
     41 O           6.9060   -2.2311   17.2313 O.co2   1  UNL1       -0.5446
@<TRIPOS>UNITY_ATOM_ATTR
39 1
charge -1
@<TRIPOS>BOND
     1    39    40   ar
     2    40    41   ar
     3    40    33    1
     4    33    34   ar
     5    34    35   ar
     6    35    36   ar
     7    36    32    1
     8    32    26    1
     9    26    27   ar
    10    27    28   ar
    11    28    29   ar
    12    29    25    1
    13    25     1    1
    14     1     2    1
    15     2     3    1
    16     3     4    1
    17     4     7    1
    18     7     8   am
    19     8     9    2
    20     8    10   am
    21    10    13    1
    22    13    14    1
    23    14    15    1
    24    15    16    1
    25    16    17    1
    26    17    18    1
    27    10    11    1
    28    11    12    1
    29    12    19    1
    30    19    20   ar
    31    20    21   ar
    32    21    22   ar
    33    22    23   ar
    34    23    24   ar
    35     4     5    1
    36     5     6    1
    37    29    30   ar
    38    30    31   ar
    39    36    37   ar
    40    37    38   ar
    41    38    33   ar
    42    31    26   ar
    43     6     1    1
    44    12     7    1
    45    24    19   ar
    46    18    13    1
@<TRIPOS>MOLECULE
*****
 41 46 0 0 0
SMALL
GASTEIGER

@<TRIPOS>ATOM
      1 N           3.1436    0.5900   28.7588 N.3     1  UNL1       -0.2688
      2 C           4.2500    1.4709   29.2586 C.3     1  UNL1        0.0741
      3 C           4.7219    1.3503   30.6773 C.3     1  UNL1        0.0372
      4 C           4.0873    0.3488   31.5963 C.3     1  UNL1        0.0799
      5 C           2.9809   -0.5321   31.0964 C.3     1  UNL1        0.0372
      6 C           2.5090   -0.4115   29.6776 C.3     1  UNL1        0.0741
      7 N           4.5591    0.2282   33.0150 N.am    1  UNL1       -0.2618
      8 C           4.0428    1.0115   34.1854 C.2     1  UNL1        0.3074
      9 O           2.9640    2.0528   34.1426 O.2     1  UNL1       -0.2523
     10 N           4.7947    0.5706   35.4062 N.am    1  UNL1       -0.2635
     11 C           5.7758   -0.4852   34.9902 C.3     1  UNL1        0.1192
     12 C           5.6302   -0.6967   33.5124 C.3     1  UNL1        0.1191
     13 C           4.5998    1.0936   36.7985 C.3     1  UNL1        0.0819
     14 C           5.7099    1.8339   37.4838 C.3     1  UNL1        0.0520
     15 C           5.5150    2.3570   38.8761 C.3     1  UNL1        0.1439
     16 O           4.2100    2.1396   39.5831 O.3     1  UNL1       -0.3537
     17 C           3.0999    1.3993   38.8978 C.3     1  UNL1        0.1439
     18 C           3.2949    0.8763   37.5054 C.3     1  UNL1        0.0520
     19 C           6.4174   -1.6635   32.6783 C.ar    1  UNL1       -0.0026
     20 C           5.9353   -3.0739   32.5093 C.ar    1  UNL1       -0.0026
     21 C           6.7224   -4.0407   31.6753 C.ar    1  UNL1       -0.0003
     22 C           7.9918   -3.5972   31.0103 C.ar    1  UNL1       -0.0000
     23 C           8.4738   -2.1869   31.1793 C.ar    1  UNL1       -0.0003
     24 C           7.6866   -1.2201   32.0133 C.ar    1  UNL1       -0.0026
     25 C           2.6718    0.7106   27.3401 C.3     1  UNL1        0.1007
     26 C           4.4072   -1.9557   24.1573 C.ar    1  UNL1        0.1107
     27 C           3.3424   -0.9602   23.8033 C.ar    1  UNL1        0.0255
     28 C           2.7639   -0.0715   24.8642 C.ar    1  UNL1        0.0007
     29 C           3.2503   -0.1782   26.2791 C.ar    1  UNL1        0.0131
     30 C           4.3151   -1.1736   26.6332 C.ar    1  UNL1        0.0965
     31 N           4.8936   -2.0623   25.5722 N.ar    1  UNL1       -0.2376
     32 S           4.9857   -2.8443   23.0964 S.3     1  UNL1       -0.0680
     33 C           5.2442   -1.3967   18.8434 C.ar    1  UNL1        0.0140
     34 C           4.2613   -2.4679   19.2126 C.ar    1  UNL1        0.0016
     35 C           4.1751   -2.9505   20.6303 C.ar    1  UNL1        0.0066
     36 C           5.0719   -2.3618   21.6787 C.ar    1  UNL1        0.0309
     37 C           6.0547   -1.2906   21.3095 C.ar    1  UNL1        0.0066
     38 C           6.1409   -0.8080   19.8919 C.ar    1  UNL1        0.0016
     39 O           6.6434   -0.4470   16.8710 O.co2   1  UNL1       -0.5446
     40 C           5.3304   -0.9141   17.4258 C.2     1  UNL1        0.0729
     41 O           4.1036   -0.8987   16.5629 O.co2   1  UNL1       -0.5446
@<TRIPOS>UNITY_ATOM_ATTR
39 1
charge -1
@<TRIPOS>BOND
     1    39    40   ar
     2    40    41   ar
     3    40    33    1
     4    33    34   ar
     5    34    35   ar
     6    35    36   ar
     7    36    32    1
     8    32    26    1
     9    26    27   ar
    10    27    28   ar
    11    28    29   ar
    12    29    25    1
    13    25     1    1
    14     1     2    1
    15     2     3    1
    16     3     4    1
    17     4     7    1
    18     7     8   am
    19     8     9    2
    20     8    10   am
    21    10    13    1
    22    13    14    1
    23    14    15    1
    24    15    16    1
    25    16    17    1
    26    17    18    1
    27    10    11    1
    28    11    12    1
    29    12    19    1
    30    19    20   ar
    31    20    21   ar
    32    21    22   ar
    33    22    23   ar
    34    23    24   ar
    35     4     5    1
    36     5     6    1
    37    29    30   ar
    38    30    31   ar
    39    36    37   ar
    40    37    38   ar
    41    38    33   ar
    42    31    26   ar
    43     6     1    1
    44    12     7    1
    45    24    19   ar
    46    18    13    1
@<TRIPOS>MOLECULE
*****
 41 46 0 0 0
SMALL
GASTEIGER

@<TRIPOS>ATOM
      1 N           8.0600   -2.8553   23.8287 N.3     1  UNL1       -0.2688
      2 C           9.1975   -3.0566   24.7855 C.3     1  UNL1        0.0741
      3 C           8.9218   -3.2641   26.2453 C.3     1  UNL1        0.0372
      4 C           7.5086   -3.2703   26.7482 C.3     1  UNL1        0.0799
      5 C           6.3711   -3.0690   25.7914 C.3     1  UNL1        0.0372
      6 C           6.6468   -2.8615   24.3316 C.3     1  UNL1        0.0741
      7 N           7.2330   -3.4779   28.2080 N.am    1  UNL1       -0.2618
      8 C           6.8463   -2.4140   29.1922 C.2     1  UNL1        0.3074
      9 O           6.6674   -0.9558   28.8894 O.2     1  UNL1       -0.2523
     10 N           6.6700   -3.0643   30.5323 N.am    1  UNL1       -0.2635
     11 C           6.9477   -4.5301   30.3764 C.3     1  UNL1        0.1192
     12 C           7.2956   -4.7857   28.9399 C.3     1  UNL1        0.1191
     13 C           6.2838   -2.3705   31.8050 C.3     1  UNL1        0.0819
     14 C           7.2102   -1.3652   32.4221 C.3     1  UNL1        0.0520
     15 C           6.8241   -0.6714   33.6947 C.3     1  UNL1        0.1439
     16 O           5.5113   -0.9831   34.3503 O.3     1  UNL1       -0.3537
     17 C           4.5849   -1.9885   33.7331 C.3     1  UNL1        0.1439
     18 C           4.9711   -2.6822   32.4605 C.3     1  UNL1        0.0520
     19 C           7.6449   -6.1156   28.3405 C.ar    1  UNL1       -0.0026
     20 C           8.7106   -6.9645   28.9680 C.ar    1  UNL1       -0.0026
     21 C           9.0599   -8.2944   28.3687 C.ar    1  UNL1       -0.0003
     22 C           8.3434   -8.7756   27.1418 C.ar    1  UNL1       -0.0000
     23 C           7.2777   -7.9268   26.5143 C.ar    1  UNL1       -0.0003
     24 C           6.9285   -6.5968   27.1137 C.ar    1  UNL1       -0.0026
     25 C           8.3356   -2.6478   22.3689 C.3     1  UNL1        0.1007
     26 C           4.9416   -1.8106   19.5350 C.ar    1  UNL1        0.1107
     27 C           5.5931   -0.6827   20.2790 C.ar    1  UNL1        0.0255
     28 C           6.7244   -0.9618   21.2236 C.ar    1  UNL1        0.0007
     29 C           7.2042   -2.3687   21.4243 C.ar    1  UNL1        0.0131
     30 C           6.5528   -3.4966   20.6803 C.ar    1  UNL1        0.0965
     31 N           5.4215   -3.2176   19.7356 N.ar    1  UNL1       -0.2376
     32 S           3.8104   -1.5315   18.5904 S.3     1  UNL1       -0.0680
     33 C           0.5984    1.4061   19.7321 C.ar    1  UNL1        0.0140
     34 C           0.7112    0.0984   20.4581 C.ar    1  UNL1        0.0016
     35 C           1.7818   -0.8808   20.0775 C.ar    1  UNL1        0.0066
     36 C           2.7397   -0.5523   18.9710 C.ar    1  UNL1        0.0309
     37 C           2.6269    0.7554   18.2450 C.ar    1  UNL1        0.0066
     38 C           1.5563    1.7346   18.6256 C.ar    1  UNL1        0.0016
     39 O          -1.0277    3.3262   19.0850 O.co2   1  UNL1       -0.5446
     40 C          -0.4723    2.3853   20.1127 C.2     1  UNL1        0.0729
     41 O          -0.9874    2.4236   21.5209 O.co2   1  UNL1       -0.5446
@<TRIPOS>UNITY_ATOM_ATTR
39 1
charge -1
@<TRIPOS>BOND
     1    39    40   ar
     2    40    41   ar
     3    40    33    1
     4    33    34   ar
     5    34    35   ar
     6    35    36   ar
     7    36    32    1
     8    32    26    1
     9    26    27   ar
    10    27    28   ar
    11    28    29   ar
    12    29    25    1
    13    25     1    1
    14     1     2    1
    15     2     3    1
    16     3     4    1
    17     4     7    1
    18     7     8   am
    19     8     9    2
    20     8    10   am
    21    10    13    1
    22    13    14    1
    23    14    15    1
    24    15    16    1
    25    16    17    1
    26    17    18    1
    27    10    11    1
    28    11    12    1
    29    12    19    1
    30    19    20   ar
    31    20    21   ar
    32    21    22   ar
    33    22    23   ar
    34    23    24   ar
    35     4     5    1
    36     5     6    1
    37    29    30   ar
    38    30    31   ar
    39    36    37   ar
    40    37    38   ar
    41    38    33   ar
    42    31    26   ar
    43     6     1    1
    44    12     7    1
    45    24    19   ar
    46    18    13    1
@<TRIPOS>MOLECULE
*****
 41 46 0 0 0
SMALL
GASTEIGER

@<TRIPOS>ATOM
      1 N           1.1258    1.2027   29.0483 N.3     1  UNL1       -0.2688
      2 C           1.5425    2.4171   29.8240 C.3     1  UNL1        0.0741
      3 C           2.3561    2.2653   31.0749 C.3     1  UNL1        0.0372
      4 C           2.7531    0.8990   31.5503 C.3     1  UNL1        0.0799
      5 C           2.3364   -0.3154   30.7746 C.3     1  UNL1        0.0372
      6 C           1.5228   -0.1635   29.5236 C.3     1  UNL1        0.0741
      7 N           3.5668    0.7472   32.8012 N.am    1  UNL1       -0.2618
      8 C           3.2454    1.3431   34.1397 C.2     1  UNL1        0.3074
      9 O           2.0539    2.1953   34.4623 O.2     1  UNL1       -0.2523
     10 N           4.3246    0.9370   35.0991 N.am    1  UNL1       -0.2635
     11 C           5.3131    0.0902   34.3534 C.3     1  UNL1        0.1192
     12 C           4.8447   -0.0270   32.9333 C.3     1  UNL1        0.1191
     13 C           4.4019    1.3120   36.5494 C.3     1  UNL1        0.0819
     14 C           5.6054    2.0379   37.0734 C.3     1  UNL1        0.0520
     15 C           5.6828    2.4128   38.5237 C.3     1  UNL1        0.1439
     16 O           4.5564    2.0618   39.4501 O.3     1  UNL1       -0.3537
     17 C           3.3529    1.3359   38.9262 C.3     1  UNL1        0.1439
     18 C           3.2756    0.9610   37.4758 C.3     1  UNL1        0.0520
     19 C           5.5333   -0.7855   31.8376 C.ar    1  UNL1       -0.0026
     20 C           5.6117   -2.2823   31.8961 C.ar    1  UNL1       -0.0026
     21 C           6.3003   -3.0407   30.8005 C.ar    1  UNL1       -0.0003
     22 C           6.9106   -2.3024   29.6462 C.ar    1  UNL1       -0.0000
     23 C           6.8323   -0.8056   29.5876 C.ar    1  UNL1       -0.0003
     24 C           6.1437   -0.0471   30.6833 C.ar    1  UNL1       -0.0026
     25 C           0.3121    1.3545   27.7974 C.3     1  UNL1        0.1007
     26 C           2.3297    1.2634   23.7760 C.ar    1  UNL1        0.1107
     27 C           0.8328    1.3039   23.8634 C.ar    1  UNL1        0.0255
     28 C           0.1603    1.3343   25.2038 C.ar    1  UNL1        0.0007
     29 C           0.9847    1.3241   26.4569 C.ar    1  UNL1        0.0131
     30 C           2.4816    1.2836   26.3696 C.ar    1  UNL1        0.0965
     31 N           3.1541    1.2532   25.0291 N.ar    1  UNL1       -0.2376
     32 S           3.0022    1.2331   22.4356 S.3     1  UNL1       -0.0680
     33 C           3.7998   -2.7038   20.4070 C.ar    1  UNL1        0.0140
     34 C           4.4216   -2.4071   21.7394 C.ar    1  UNL1        0.0016
     35 C           4.1557   -1.0948   22.4156 C.ar    1  UNL1        0.0066
     36 C           3.2681   -0.0792   21.7594 C.ar    1  UNL1        0.0309
     37 C           2.6463   -0.3759   20.4270 C.ar    1  UNL1        0.0066
     38 C           2.9121   -1.6882   19.7508 C.ar    1  UNL1        0.0016
     39 O           2.9846   -4.6800   18.9305 O.co2   1  UNL1       -0.5446
     40 C           4.0656   -4.0161   19.7308 C.2     1  UNL1        0.0729
     41 O           5.4125   -4.6644   19.8549 O.co2   1  UNL1       -0.5446
@<TRIPOS>UNITY_ATOM_ATTR
39 1
charge -1
@<TRIPOS>BOND
     1    39    40   ar
     2    40    41   ar
     3    40    33    1
     4    33    34   ar
     5    34    35   ar
     6    35    36   ar
     7    36    32    1
     8    32    26    1
     9    26    27   ar
    10    27    28   ar
    11    28    29   ar
    12    29    25    1
    13    25     1    1
    14     1     2    1
    15     2     3    1
    16     3     4    1
    17     4     7    1
    18     7     8   am
    19     8     9    2
    20     8    10   am
    21    10    13    1
    22    13    14    1
    23    14    15    1
    24    15    16    1
    25    16    17    1
    26    17    18    1
    27    10    11    1
    28    11    12    1
    29    12    19    1
    30    19    20   ar
    31    20    21   ar
    32    21    22   ar
    33    22    23   ar
    34    23    24   ar
    35     4     5    1
    36     5     6    1
    37    29    30   ar
    38    30    31   ar
    39    36    37   ar
    40    37    38   ar
    41    38    33   ar
    42    31    26   ar
    43     6     1    1
    44    12     7    1
    45    24    19   ar
    46    18    13    1
@<TRIPOS>MOLECULE
*****
 41 46 0 0 0
SMALL
GASTEIGER

@<TRIPOS>ATOM
      1 N          -0.8208    2.6608   27.2924 N.3     1  UNL1       -0.2688
      2 C          -0.8476    1.2295   27.7404 C.3     1  UNL1        0.0741
      3 C           0.1813    0.7277   28.7096 C.3     1  UNL1        0.0372
      4 C           1.2370    1.6571   29.2309 C.3     1  UNL1        0.0799
      5 C           1.2638    3.0884   28.7830 C.3     1  UNL1        0.0372
      6 C           0.2348    3.5902   27.8137 C.3     1  UNL1        0.0741
      7 N           2.2659    1.1552   30.2002 N.am    1  UNL1       -0.2618
      8 C           2.2004    1.2713   31.6942 C.2     1  UNL1        0.3074
      9 O           1.0945    1.9095   32.4814 O.2     1  UNL1       -0.2523
     10 N           3.4349    0.6370   32.2630 N.am    1  UNL1       -0.2635
     11 C           4.2635    0.1289   31.1204 C.3     1  UNL1        0.1192
     12 C           3.5410    0.4492   29.8456 C.3     1  UNL1        0.1191
     13 C           3.7803    0.5296   33.7188 C.3     1  UNL1        0.0819
     14 C           4.4621   -0.7011   34.2391 C.3     1  UNL1        0.0520
     15 C           4.8075   -0.8086   35.6948 C.3     1  UNL1        0.1439
     16 O           4.4711    0.3147   36.6303 O.3     1  UNL1       -0.3537
     17 C           3.7894    1.5454   36.1100 C.3     1  UNL1        0.1439
     18 C           3.4440    1.6528   34.6543 C.3     1  UNL1        0.0520
     19 C           4.0110    0.1212   28.4594 C.ar    1  UNL1       -0.0026
     20 C           5.0918    0.9417   27.8201 C.ar    1  UNL1       -0.0026
     21 C           5.5618    0.6137   26.4340 C.ar    1  UNL1       -0.0003
     22 C           4.9512   -0.5350   25.6871 C.ar    1  UNL1       -0.0000
     23 C           3.8705   -1.3555   26.3264 C.ar    1  UNL1       -0.0003
     24 C           3.4005   -1.0274   27.7126 C.ar    1  UNL1       -0.0026
     25 C          -1.8497    3.1627   26.3232 C.3     1  UNL1        0.1007
     26 C          -1.0247    3.0388   21.9011 C.ar    1  UNL1        0.1107
     27 C           0.0064    2.5419   22.8707 C.ar    1  UNL1        0.0255
     28 C          -0.2686    2.5832   24.3447 C.ar    1  UNL1        0.0007
     29 C          -1.5747    3.1214   24.8491 C.ar    1  UNL1        0.0131
     30 C          -2.6057    3.6183   23.8796 C.ar    1  UNL1        0.0965
     31 N          -2.3307    3.5770   22.4056 N.ar    1  UNL1       -0.2376
     32 S          -0.7496    2.9975   20.4272 S.3     1  UNL1       -0.0680
     33 C           2.3679    0.1910   18.7978 C.ar    1  UNL1        0.0140
     34 C           1.2771   -0.3327   19.6842 C.ar    1  UNL1        0.0016
     35 C           0.2380    0.6027   20.2273 C.ar    1  UNL1        0.0066
     36 C           0.2896    2.0620   19.8840 C.ar    1  UNL1        0.0309
     37 C           1.3804    2.5858   18.9976 C.ar    1  UNL1        0.0066
     38 C           2.4196    1.6503   18.4545 C.ar    1  UNL1        0.0016
     39 O           3.7273   -0.7406   16.7893 O.co2   1  UNL1       -0.5446
     40 C           3.4071   -0.7444   18.2547 C.2     1  UNL1        0.0729
     41 O           4.1262   -1.6837   19.1770 O.co2   1  UNL1       -0.5446
@<TRIPOS>UNITY_ATOM_ATTR
39 1
charge -1
@<TRIPOS>BOND
     1    39    40   ar
     2    40    41   ar
     3    40    33    1
     4    33    34   ar
     5    34    35   ar
     6    35    36   ar
     7    36    32    1
     8    32    26    1
     9    26    27   ar
    10    27    28   ar
    11    28    29   ar
    12    29    25    1
    13    25     1    1
    14     1     2    1
    15     2     3    1
    16     3     4    1
    17     4     7    1
    18     7     8   am
    19     8     9    2
    20     8    10   am
    21    10    13    1
    22    13    14    1
    23    14    15    1
    24    15    16    1
    25    16    17    1
    26    17    18    1
    27    10    11    1
    28    11    12    1
    29    12    19    1
    30    19    20   ar
    31    20    21   ar
    32    21    22   ar
    33    22    23   ar
    34    23    24   ar
    35     4     5    1
    36     5     6    1
    37    29    30   ar
    38    30    31   ar
    39    36    37   ar
    40    37    38   ar
    41    38    33   ar
    42    31    26   ar
    43     6     1    1
    44    12     7    1
    45    24    19   ar
    46    18    13    1
@<TRIPOS>MOLECULE
*****
 41 46 0 0 0
SMALL
GASTEIGER

@<TRIPOS>ATOM
      1 N           2.9325    1.2662   22.8349 N.3     1  UNL1       -0.2688
      2 C           2.5251   -0.0774   22.3069 C.3     1  UNL1        0.0741
      3 C           3.3766   -1.2811   22.5823 C.3     1  UNL1        0.0372
      4 C           4.6356   -1.1413   23.3857 C.3     1  UNL1        0.0799
      5 C           5.0431    0.2023   23.9137 C.3     1  UNL1        0.0372
      6 C           4.1914    1.4061   23.6383 C.3     1  UNL1        0.0741
      7 N           5.4872   -2.3450   23.6610 N.am    1  UNL1       -0.2618
      8 C           5.9538   -2.8049   25.0103 C.2     1  UNL1        0.3074
      9 O           5.6507   -2.1419   26.3212 O.2     1  UNL1       -0.2523
     10 N           6.7766   -4.0444   24.8186 N.am    1  UNL1       -0.2635
     11 C           6.8186   -4.3505   23.3508 C.3     1  UNL1        0.1192
     12 C           6.0216   -3.3002   22.6353 C.3     1  UNL1        0.1191
     13 C           7.4409   -4.8383   25.9042 C.3     1  UNL1        0.0819
     14 C           8.5617   -4.2338   26.6969 C.3     1  UNL1        0.0520
     15 C           9.2260   -5.0277   27.7824 C.3     1  UNL1        0.1439
     16 O           8.7694   -6.4262   28.0753 O.3     1  UNL1       -0.3537
     17 C           7.6486   -7.0307   27.2827 C.3     1  UNL1        0.1439
     18 C           6.9843   -6.2368   26.1971 C.3     1  UNL1        0.0520
     19 C           5.7984   -3.2194   21.1543 C.ar    1  UNL1       -0.0026
     20 C           6.6777   -2.3454   20.3098 C.ar    1  UNL1       -0.0026
     21 C           6.4545   -2.2645   18.8288 C.ar    1  UNL1       -0.0003
     22 C           5.3519   -3.0576   18.1920 C.ar    1  UNL1       -0.0000
     23 C           4.4727   -3.9316   19.0364 C.ar    1  UNL1       -0.0003
     24 C           4.6959   -4.0125   20.5175 C.ar    1  UNL1       -0.0026
     25 C           2.0809    2.4700   22.5596 C.3     1  UNL1        0.1007
     26 C          -1.4817    3.3493   25.1644 C.ar    1  UNL1        0.1107
     27 C          -0.7147    2.0733   25.3483 C.ar    1  UNL1        0.0255
     28 C           0.4728    1.7802   24.4801 C.ar    1  UNL1        0.0007
     29 C           0.8934    2.7631   23.4279 C.ar    1  UNL1        0.0131
     30 C           0.1265    4.0390   23.2440 C.ar    1  UNL1        0.0965
     31 N          -1.0611    4.3321   24.1123 N.ar    1  UNL1       -0.2376
     32 S          -2.6692    3.6423   26.0327 S.3     1  UNL1       -0.0680
     33 C          -6.6479    4.5925   24.1574 C.ar    1  UNL1        0.0140
     34 C          -5.6899    3.6736   23.4590 C.ar    1  UNL1        0.0016
     35 C          -4.3637    3.3569   24.0841 C.ar    1  UNL1        0.0066
     36 C          -3.9954    3.9591   25.4076 C.ar    1  UNL1        0.0309
     37 C          -4.9534    4.8779   26.1060 C.ar    1  UNL1        0.0066
     38 C          -6.2797    5.1947   25.4810 C.ar    1  UNL1        0.0016
     39 O          -8.0574    5.9050   22.4137 O.co2   1  UNL1       -0.5446
     40 C          -7.9742    4.9092   23.5324 C.2     1  UNL1        0.0729
     41 O          -9.2172    4.2302   24.0259 O.co2   1  UNL1       -0.5446
@<TRIPOS>UNITY_ATOM_ATTR
39 1
charge -1
@<TRIPOS>BOND
     1    39    40   ar
     2    40    41   ar
     3    40    33    1
     4    33    34   ar
     5    34    35   ar
     6    35    36   ar
     7    36    32    1
     8    32    26    1
     9    26    27   ar
    10    27    28   ar
    11    28    29   ar
    12    29    25    1
    13    25     1    1
    14     1     2    1
    15     2     3    1
    16     3     4    1
    17     4     7    1
    18     7     8   am
    19     8     9    2
    20     8    10   am
    21    10    13    1
    22    13    14    1
    23    14    15    1
    24    15    16    1
    25    16    17    1
    26    17    18    1
    27    10    11    1
    28    11    12    1
    29    12    19    1
    30    19    20   ar
    31    20    21   ar
    32    21    22   ar
    33    22    23   ar
    34    23    24   ar
    35     4     5    1
    36     5     6    1
    37    29    30   ar
    38    30    31   ar
    39    36    37   ar
    40    37    38   ar
    41    38    33   ar
    42    31    26   ar
    43     6     1    1
    44    12     7    1
    45    24    19   ar
    46    18    13    1
@<TRIPOS>MOLECULE
*****
 41 46 0 0 0
SMALL
GASTEIGER

@<TRIPOS>ATOM
      1 N           4.4185   -1.4160   18.5530 N.3     1  UNL1       -0.2688
      2 C           4.0861   -1.2461   20.0058 C.3     1  UNL1        0.0741
      3 C           3.1468   -0.1595   20.4382 C.3     1  UNL1        0.0372
      4 C           2.5397    0.7571   19.4177 C.3     1  UNL1        0.0799
      5 C           2.8720    0.5872   17.9649 C.3     1  UNL1        0.0372
      6 C           3.8114   -0.4994   17.5325 C.3     1  UNL1        0.0741
      7 N           1.6004    1.8437   19.8501 N.am    1  UNL1       -0.2618
      8 C           0.2445    1.6458   20.4603 C.2     1  UNL1        0.3074
      9 O          -0.4101    0.3266   20.7452 O.2     1  UNL1       -0.2523
     10 N          -0.3419    2.9987   20.7356 N.am    1  UNL1       -0.2635
     11 C           0.6516    4.0328   20.2955 C.3     1  UNL1        0.1192
     12 C           1.8520    3.3189   19.7483 C.3     1  UNL1        0.1191
     13 C          -1.6858    3.2699   21.3441 C.3     1  UNL1        0.0819
     14 C          -1.7926    3.6320   22.7958 C.3     1  UNL1        0.0520
     15 C          -3.1365    3.9033   23.4044 C.3     1  UNL1        0.1439
     16 O          -4.3737    3.8124   22.5611 O.3     1  UNL1       -0.3537
     17 C          -4.2670    3.4503   21.1094 C.3     1  UNL1        0.1439
     18 C          -2.9231    3.1790   20.5009 C.3     1  UNL1        0.0520
     19 C           3.0872    3.9666   19.1961 C.ar    1  UNL1       -0.0026
     20 C           3.1388    4.3755   17.7539 C.ar    1  UNL1       -0.0026
     21 C           4.3739    5.0232   17.2017 C.ar    1  UNL1       -0.0003
     22 C           5.5575    5.2620   18.0918 C.ar    1  UNL1       -0.0000
     23 C           5.5058    4.8531   19.5340 C.ar    1  UNL1       -0.0003
     24 C           4.2707    4.2054   20.0862 C.ar    1  UNL1       -0.0026
     25 C           5.3578   -2.5026   18.1206 C.3     1  UNL1        0.1007
     26 C           8.4542   -4.0716   20.9843 C.ar    1  UNL1        0.1107
     27 C           8.8042   -2.9657   20.0331 C.ar    1  UNL1        0.0255
     28 C           7.7721   -2.4428   19.0786 C.ar    1  UNL1        0.0007
     29 C           6.3899   -3.0256   19.0752 C.ar    1  UNL1        0.0131
     30 C           6.0399   -4.1314   20.0263 C.ar    1  UNL1        0.0965
     31 N           7.0721   -4.6544   20.9810 N.ar    1  UNL1       -0.2376
     32 S           9.4863   -4.5945   21.9389 S.3     1  UNL1       -0.0680
     33 C           8.2085   -6.7860   25.6557 C.ar    1  UNL1        0.0140
     34 C           8.2378   -5.2864   25.6419 C.ar    1  UNL1        0.0016
     35 C           8.6637   -4.5559   24.4030 C.ar    1  UNL1        0.0066
     36 C           9.0604   -5.3250   23.1778 C.ar    1  UNL1        0.0309
     37 C           9.0311   -6.8246   23.1916 C.ar    1  UNL1        0.0066
     38 C           8.6051   -7.5551   24.4305 C.ar    1  UNL1        0.0016
     39 O           7.7981   -6.8162   28.2209 O.co2   1  UNL1       -0.5446
     40 C           7.7825   -7.5165   26.8946 C.2     1  UNL1        0.0729
     41 O           7.3410   -8.9474   26.8072 O.co2   1  UNL1       -0.5446
@<TRIPOS>UNITY_ATOM_ATTR
39 1
charge -1
@<TRIPOS>BOND
     1    39    40   ar
     2    40    41   ar
     3    40    33    1
     4    33    34   ar
     5    34    35   ar
     6    35    36   ar
     7    36    32    1
     8    32    26    1
     9    26    27   ar
    10    27    28   ar
    11    28    29   ar
    12    29    25    1
    13    25     1    1
    14     1     2    1
    15     2     3    1
    16     3     4    1
    17     4     7    1
    18     7     8   am
    19     8     9    2
    20     8    10   am
    21    10    13    1
    22    13    14    1
    23    14    15    1
    24    15    16    1
    25    16    17    1
    26    17    18    1
    27    10    11    1
    28    11    12    1
    29    12    19    1
    30    19    20   ar
    31    20    21   ar
    32    21    22   ar
    33    22    23   ar
    34    23    24   ar
    35     4     5    1
    36     5     6    1
    37    29    30   ar
    38    30    31   ar
    39    36    37   ar
    40    37    38   ar
    41    38    33   ar
    42    31    26   ar
    43     6     1    1
    44    12     7    1
    45    24    19   ar
    46    18    13    1
@<TRIPOS>MOLECULE
*****
 41 46 0 0 0
SMALL
GASTEIGER

@<TRIPOS>ATOM
      1 N          -1.1673    4.3274   19.2387 N.3     1  UNL1       -0.2688
      2 C          -0.7630    3.5138   18.0452 C.3     1  UNL1        0.0741
      3 C           0.3903    2.5598   18.1436 C.3     1  UNL1        0.0372
      4 C           1.1395    2.4195   19.4356 C.3     1  UNL1        0.0799
      5 C           0.7352    3.2332   20.6291 C.3     1  UNL1        0.0372
      6 C          -0.4183    4.1871   20.5307 C.3     1  UNL1        0.0741
      7 N           2.2929    1.4656   19.5340 N.am    1  UNL1       -0.2618
      8 C           2.1982   -0.0081   19.7971 C.2     1  UNL1        0.3074
      9 O           0.9335   -0.7866   20.0080 O.2     1  UNL1       -0.2523
     10 N           3.5902   -0.5666   19.8123 N.am    1  UNL1       -0.2635
     11 C           4.5453    0.5619   19.5586 C.3     1  UNL1        0.1192
     12 C           3.7435    1.8179   19.3866 C.3     1  UNL1        0.1191
     13 C           3.9620   -2.0017   20.0410 C.3     1  UNL1        0.0819
     14 C           4.2909   -2.4800   21.4241 C.3     1  UNL1        0.0520
     15 C           4.6626   -3.9151   21.6530 C.3     1  UNL1        0.1439
     16 O           4.7055   -4.8719   20.4985 O.3     1  UNL1       -0.3537
     17 C           4.3766   -4.3936   19.1153 C.3     1  UNL1        0.1439
     18 C           4.0049   -2.9585   18.8866 C.3     1  UNL1        0.0520
     19 C           4.2953    3.1860   19.1149 C.ar    1  UNL1       -0.0026
     20 C           4.4214    4.1793   20.2318 C.ar    1  UNL1       -0.0026
     21 C           4.9733    5.5473   19.9602 C.ar    1  UNL1       -0.0003
     22 C           5.3991    5.9222   18.5716 C.ar    1  UNL1       -0.0000
     23 C           5.2730    4.9289   17.4547 C.ar    1  UNL1       -0.0003
     24 C           4.7211    3.5608   17.7263 C.ar    1  UNL1       -0.0026
     25 C          -2.3207    5.2813   19.1403 C.3     1  UNL1        0.1007
     26 C          -5.8892    4.7828   21.8363 C.ar    1  UNL1        0.1107
     27 C          -5.3497    6.1533   21.5518 C.ar    1  UNL1        0.0255
     28 C          -4.1602    6.3194   20.6532 C.ar    1  UNL1        0.0007
     29 C          -3.5102    5.1151   20.0390 C.ar    1  UNL1        0.0131
     30 C          -4.0497    3.7447   20.3234 C.ar    1  UNL1        0.0965
     31 N          -5.2392    3.5786   21.2221 N.ar    1  UNL1       -0.2376
     32 S          -7.0787    4.6167   22.7349 S.3     1  UNL1       -0.0680
     33 C          -6.9454    6.1735   26.9549 C.ar    1  UNL1        0.0140
     34 C          -5.8034    5.3625   26.4182 C.ar    1  UNL1        0.0016
     35 C          -5.8478    4.8436   25.0116 C.ar    1  UNL1        0.0066
     36 C          -7.0343    5.1357   24.1415 C.ar    1  UNL1        0.0309
     37 C          -8.1763    5.9466   24.6782 C.ar    1  UNL1        0.0066
     38 C          -8.1318    6.4655   26.0849 C.ar    1  UNL1        0.0016
     39 O          -8.1636    6.7893   29.1655 O.co2   1  UNL1       -0.5446
     40 C          -6.9009    6.6924   28.3616 C.2     1  UNL1        0.0729
     41 O          -5.5939    7.1145   28.9643 O.co2   1  UNL1       -0.5446
@<TRIPOS>UNITY_ATOM_ATTR
39 1
charge -1
@<TRIPOS>BOND
     1    39    40   ar
     2    40    41   ar
     3    40    33    1
     4    33    34   ar
     5    34    35   ar
     6    35    36   ar
     7    36    32    1
     8    32    26    1
     9    26    27   ar
    10    27    28   ar
    11    28    29   ar
    12    29    25    1
    13    25     1    1
    14     1     2    1
    15     2     3    1
    16     3     4    1
    17     4     7    1
    18     7     8   am
    19     8     9    2
    20     8    10   am
    21    10    13    1
    22    13    14    1
    23    14    15    1
    24    15    16    1
    25    16    17    1
    26    17    18    1
    27    10    11    1
    28    11    12    1
    29    12    19    1
    30    19    20   ar
    31    20    21   ar
    32    21    22   ar
    33    22    23   ar
    34    23    24   ar
    35     4     5    1
    36     5     6    1
    37    29    30   ar
    38    30    31   ar
    39    36    37   ar
    40    37    38   ar
    41    38    33   ar
    42    31    26   ar
    43     6     1    1
    44    12     7    1
    45    24    19   ar
    46    18    13    1
@<TRIPOS>MOLECULE
*****
 41 46 0 0 0
SMALL
GASTEIGER

@<TRIPOS>ATOM
      1 N           1.9973    0.8014   18.7705 N.3     1  UNL1       -0.2688
      2 C           1.1922   -0.0195   19.7337 C.3     1  UNL1        0.0741
      3 C           0.1722    0.6416   20.6126 C.3     1  UNL1        0.0372
      4 C          -0.0427    2.1238   20.5283 C.3     1  UNL1        0.0799
      5 C           0.7624    2.9447   19.5650 C.3     1  UNL1        0.0372
      6 C           1.7824    2.2835   18.6861 C.3     1  UNL1        0.0741
      7 N          -1.0627    2.7849   21.4071 N.am    1  UNL1       -0.2618
      8 C          -2.4050    3.2933   20.9716 C.2     1  UNL1        0.3074
      9 O          -2.9630    3.2297   19.5807 O.2     1  UNL1       -0.2523
     10 N          -3.0914    3.8763   22.1711 N.am    1  UNL1       -0.2635
     11 C          -2.1732    3.7284   23.3481 C.3     1  UNL1        0.1192
     12 C          -0.9194    3.0538   22.8759 C.3     1  UNL1        0.1191
     13 C          -4.4563    4.4982   22.1904 C.3     1  UNL1        0.0819
     14 C          -4.6569    5.8837   21.6517 C.3     1  UNL1        0.0520
     15 C          -6.0217    6.5057   21.6709 C.3     1  UNL1        0.1439
     16 O          -7.1860    5.7420   22.2289 O.3     1  UNL1       -0.3537
     17 C          -6.9854    4.3565   22.7677 C.3     1  UNL1        0.1439
     18 C          -5.6205    3.7347   22.7484 C.3     1  UNL1        0.0520
     19 C           0.2690    2.7088   23.7236 C.ar    1  UNL1       -0.0026
     20 C           0.2062    1.5414   24.6635 C.ar    1  UNL1       -0.0026
     21 C           1.3945    1.1963   25.5112 C.ar    1  UNL1       -0.0003
     22 C           2.6458    2.0186   25.4191 C.ar    1  UNL1       -0.0000
     23 C           2.7085    3.1859   24.4792 C.ar    1  UNL1       -0.0003
     24 C           1.5201    3.5310   23.6315 C.ar    1  UNL1       -0.0026
     25 C           3.0173    0.1403   17.8916 C.3     1  UNL1        0.1007
     26 C           6.2307   -2.4295   19.7139 C.ar    1  UNL1        0.1107
     27 C           5.0122   -3.0657   19.1132 C.ar    1  UNL1        0.0255
     28 C           3.9411   -2.2091   18.5058 C.ar    1  UNL1        0.0007
     29 C           4.0885   -0.7163   18.4990 C.ar    1  UNL1        0.0131
     30 C           5.3069   -0.0802   19.0996 C.ar    1  UNL1        0.0965
     31 N           6.3780   -0.9368   19.7071 N.ar    1  UNL1       -0.2376
     32 S           7.3018   -3.2861   20.3213 S.3     1  UNL1       -0.0680
     33 C           6.9431   -4.6429   24.5968 C.ar    1  UNL1        0.0140
     34 C           5.9961   -3.6138   24.0546 C.ar    1  UNL1        0.0016
     35 C           6.1157   -3.1615   22.6294 C.ar    1  UNL1        0.0066
     36 C           7.1822   -3.7384   21.7464 C.ar    1  UNL1        0.0309
     37 C           8.1292   -4.7675   22.2887 C.ar    1  UNL1        0.0066
     38 C           8.0097   -5.2197   23.7139 C.ar    1  UNL1        0.0016
     39 O           6.9255   -6.5536   26.3571 O.co2   1  UNL1       -0.5446
     40 C           6.8236   -5.0951   26.0220 C.2     1  UNL1        0.0729
     41 O           6.6021   -4.0889   27.1121 O.co2   1  UNL1       -0.5446
@<TRIPOS>UNITY_ATOM_ATTR
39 1
charge -1
@<TRIPOS>BOND
     1    39    40   ar
     2    40    41   ar
     3    40    33    1
     4    33    34   ar
     5    34    35   ar
     6    35    36   ar
     7    36    32    1
     8    32    26    1
     9    26    27   ar
    10    27    28   ar
    11    28    29   ar
    12    29    25    1
    13    25     1    1
    14     1     2    1
    15     2     3    1
    16     3     4    1
    17     4     7    1
    18     7     8   am
    19     8     9    2
    20     8    10   am
    21    10    13    1
    22    13    14    1
    23    14    15    1
    24    15    16    1
    25    16    17    1
    26    17    18    1
    27    10    11    1
    28    11    12    1
    29    12    19    1
    30    19    20   ar
    31    20    21   ar
    32    21    22   ar
    33    22    23   ar
    34    23    24   ar
    35     4     5    1
    36     5     6    1
    37    29    30   ar
    38    30    31   ar
    39    36    37   ar
    40    37    38   ar
    41    38    33   ar
    42    31    26   ar
    43     6     1    1
    44    12     7    1
    45    24    19   ar
    46    18    13    1
