@<TRIPOS>MOLECULE
*****
 38 40 0 0 0
SMALL
GASTEIGER

@<TRIPOS>ATOM
      1 C          -2.2954  -17.7009   20.5570 C.3     1  UNL1        0.0576
      2 C          -2.1788  -16.6559   21.6267 C.3     1  UNL1        0.0176
      3 C          -3.2475  -16.5297   22.6716 C.3     1  UNL1        0.0209
      4 C          -4.4329  -17.4485   22.6469 C.3     1  UNL1        0.0716
      5 C          -4.5495  -18.4936   21.5772 C.3     1  UNL1        0.0197
      6 C          -3.4808  -18.6197   20.5323 C.3     1  UNL1        0.0176
      7 N          -5.5016  -17.3223   23.6919 N.am    1  UNL1       -0.3046
      8 C          -6.0232  -15.9682   24.0715 C.2     1  UNL1        0.2425
      9 O          -5.4761  -14.7401   23.4061 O.2     1  UNL1       -0.2733
     10 H          -5.8606  -18.1283   24.1286 H       1  UNL1        0.1494
     11 C          -7.0919  -15.8420   25.1164 C.3     1  UNL1        0.1759
     12 N          -8.5139  -16.1806   24.7796 N.am    1  UNL1       -0.2931
     13 C          -8.9511  -16.2407   23.3460 C.2     1  UNL1        0.2462
     14 O          -7.9664  -15.9622   22.2493 O.2     1  UNL1       -0.2701
     15 H          -9.1601  -16.3634   25.4995 H       1  UNL1        0.1502
     16 C         -10.3730  -16.5793   23.0092 C.ar    1  UNL1        0.0533
     17 C         -10.9306  -16.2217   21.6634 C.ar    1  UNL1        0.0045
     18 C         -12.3525  -16.5603   21.3265 C.ar    1  UNL1        0.0001
     19 C         -13.2169  -17.2565   22.3355 C.ar    1  UNL1        0.0039
     20 C         -12.6594  -17.6141   23.6814 C.ar    1  UNL1        0.0716
     21 C         -11.2375  -17.2755   24.0182 C.ar    1  UNL1        0.0084
     22 C         -13.5238  -18.3103   24.6904 C.3     1  UNL1        0.4186
     23 F         -14.3882  -19.0065   25.6994 F       1  UNL1       -0.1659
     24 F         -14.7479  -17.7552   24.0247 F       1  UNL1       -0.1659
     25 F         -12.2996  -18.8654   25.3561 F       1  UNL1       -0.1659
     26 N          -1.2267  -17.8271   19.5120 N.3     1  UNL1       -0.2741
     27 C           0.1706  -18.2003   19.9096 C.3     1  UNL1        0.0896
     28 C          -0.6416  -18.0891   16.9943 C.3     1  UNL1        0.0173
     29 C          -1.5554  -17.5802   18.0695 C.3     1  UNL1        0.0576
     30 C          -2.7979  -16.8244   17.7021 C.3     1  UNL1        0.0173
     31 C          -5.7349  -19.4124   21.5524 C.3     1  UNL1        0.0064
     32 C          -6.9741  -19.0180   20.8050 C.3     1  UNL1        0.0264
     33 C          -8.3217  -19.4391   21.3117 C.ar    1  UNL1       -0.0222
     34 C          -9.5020  -19.4475   20.3862 C.ar    1  UNL1       -0.0043
     35 C         -10.8495  -19.8686   20.8929 C.ar    1  UNL1       -0.0003
     36 C         -11.0167  -20.2813   22.3253 C.ar    1  UNL1       -0.0000
     37 C          -9.8364  -20.2729   23.2509 C.ar    1  UNL1       -0.0003
     38 C          -8.4889  -19.8518   22.7441 C.ar    1  UNL1       -0.0043
@<TRIPOS>BOND
     1    28    29    1
     2    29    30    1
     3    29    26    1
     4    26    27    1
     5     1    26    1
     6     1     2    1
     7     2     3    1
     8     3     4    1
     9     4     7    1
    10     7     8   am
    11     8     9    2
    12     8    11    1
    13    11    12    1
    14    12    13   am
    15    13    14    2
    16    13    16    1
    17    16    17   ar
    18    17    18   ar
    19    18    19   ar
    20    19    20   ar
    21    20    22    1
    22    22    23    1
    23    22    24    1
    24    22    25    1
    25    20    21   ar
    26     4     5    1
    27     5    31    1
    28    31    32    1
    29    32    33    1
    30    33    34   ar
    31    34    35   ar
    32    35    36   ar
    33    36    37   ar
    34    37    38   ar
    35     5     6    1
    36     6     1    1
    37    21    16   ar
    38    38    33   ar
    39     7    10    1
    40    12    15    1
@<TRIPOS>MOLECULE
*****
 38 40 0 0 0
SMALL
GASTEIGER

@<TRIPOS>ATOM
      1 C           0.5029    2.2054   26.9738 C.3     1  UNL1        0.0576
      2 C          -0.6480    2.6120   26.1019 C.3     1  UNL1        0.0176
      3 C          -0.5725    2.4095   24.6176 C.3     1  UNL1        0.0209
      4 C           0.6538    1.8004   24.0051 C.3     1  UNL1        0.0716
      5 C           1.8046    1.3939   24.8770 C.3     1  UNL1        0.0197
      6 C           1.7292    1.5964   26.3614 C.3     1  UNL1        0.0176
      7 N           0.7293    1.5979   22.5208 N.am    1  UNL1       -0.3046
      8 C           1.3185    2.6654   21.6472 C.2     1  UNL1        0.2425
      9 O           1.8323    3.9355   22.2579 O.2     1  UNL1       -0.2733
     10 H           0.3921    0.7643   22.1199 H       1  UNL1        0.1494
     11 C           1.3940    2.4629   20.1628 C.3     1  UNL1        0.1759
     12 N           2.4134    1.5267   19.5845 N.am    1  UNL1       -0.2931
     13 C           2.2904    0.0494   19.8138 C.2     1  UNL1        0.2462
     14 O           1.1480   -0.4916   20.6214 O.2     1  UNL1       -0.2701
     15 H           3.1632    1.8818   19.0544 H       1  UNL1        0.1502
     16 C           3.3098   -0.8867   19.2355 C.ar    1  UNL1        0.0533
     17 C           4.4410   -0.3475   18.4112 C.ar    1  UNL1        0.0045
     18 C           5.4604   -1.2837   17.8329 C.ar    1  UNL1        0.0001
     19 C           5.3485   -2.7592   18.0789 C.ar    1  UNL1        0.0039
     20 C           4.2172   -3.2984   18.9031 C.ar    1  UNL1        0.0716
     21 C           3.1978   -2.3622   19.4814 C.ar    1  UNL1        0.0084
     22 C           4.1052   -4.7738   19.1491 C.3     1  UNL1        0.4186
     23 F           3.9932   -6.2494   19.3950 F       1  UNL1       -0.1659
     24 F           2.6237   -4.6985   18.9269 F       1  UNL1       -0.1659
     25 F           5.5867   -4.8492   19.3713 F       1  UNL1       -0.1659
     26 N           0.4274    2.4080   28.4582 N.3     1  UNL1       -0.2741
     27 C           0.4721    3.7943   29.0292 C.3     1  UNL1        0.0896
     28 C          -0.9625    0.4262   29.4019 C.3     1  UNL1        0.0173
     29 C           0.3072    1.2242   29.3715 C.3     1  UNL1        0.0576
     30 C           1.4568    0.8383   30.2545 C.3     1  UNL1        0.0173
     31 C           3.0310    0.7848   24.2646 C.3     1  UNL1        0.0064
     32 C           3.0056   -0.6387   23.7924 C.3     1  UNL1        0.0264
     33 C           4.1821   -1.2052   23.0541 C.ar    1  UNL1       -0.0222
     34 C           4.4056   -2.6881   23.0242 C.ar    1  UNL1       -0.0043
     35 C           5.5821   -3.2545   22.2859 C.ar    1  UNL1       -0.0003
     36 C           6.5351   -2.3380   21.5776 C.ar    1  UNL1       -0.0000
     37 C           6.3116   -0.8550   21.6075 C.ar    1  UNL1       -0.0003
     38 C           5.1351   -0.2887   22.3457 C.ar    1  UNL1       -0.0043
@<TRIPOS>BOND
     1    28    29    1
     2    29    30    1
     3    29    26    1
     4    26    27    1
     5     1    26    1
     6     1     2    1
     7     2     3    1
     8     3     4    1
     9     4     7    1
    10     7     8   am
    11     8     9    2
    12     8    11    1
    13    11    12    1
    14    12    13   am
    15    13    14    2
    16    13    16    1
    17    16    17   ar
    18    17    18   ar
    19    18    19   ar
    20    19    20   ar
    21    20    22    1
    22    22    23    1
    23    22    24    1
    24    22    25    1
    25    20    21   ar
    26     4     5    1
    27     5    31    1
    28    31    32    1
    29    32    33    1
    30    33    34   ar
    31    34    35   ar
    32    35    36   ar
    33    36    37   ar
    34    37    38   ar
    35     5     6    1
    36     6     1    1
    37    21    16   ar
    38    38    33   ar
    39     7    10    1
    40    12    15    1
@<TRIPOS>MOLECULE
*****
 38 40 0 0 0
SMALL
GASTEIGER

@<TRIPOS>ATOM
      1 C          -2.4862  -17.8166   21.8695 C.3     1  UNL1        0.0576
      2 C          -2.6178  -16.4227   22.4078 C.3     1  UNL1        0.0176
      3 C          -3.9337  -15.9495   22.9505 C.3     1  UNL1        0.0209
      4 C          -5.1180  -16.8701   22.9548 C.3     1  UNL1        0.0716
      5 C          -4.9863  -18.2639   22.4165 C.3     1  UNL1        0.0197
      6 C          -3.6704  -18.7371   21.8738 C.3     1  UNL1        0.0176
      7 N          -6.4338  -16.3968   23.4975 N.am    1  UNL1       -0.3046
      8 C          -6.5195  -15.8616   24.8961 C.2     1  UNL1        0.2425
      9 O          -5.2892  -15.7995   25.7521 O.2     1  UNL1       -0.2733
     10 H          -7.2413  -16.4375   22.9357 H       1  UNL1        0.1494
     11 C          -7.8354  -15.3883   25.4387 C.3     1  UNL1        0.1759
     12 N          -9.0725  -15.4846   24.5959 N.am    1  UNL1       -0.2931
     13 C          -9.6242  -16.8291   24.2245 C.2     1  UNL1        0.2462
     14 O          -8.9386  -18.0773   24.6958 O.2     1  UNL1       -0.2701
     15 H          -9.5225  -14.6654   24.2866 H       1  UNL1        0.1502
     16 C         -10.8612  -16.9255   23.3817 C.ar    1  UNL1        0.0533
     17 C         -12.0855  -17.6036   23.9215 C.ar    1  UNL1        0.0045
     18 C         -13.3227  -17.6999   23.0786 C.ar    1  UNL1        0.0001
     19 C         -13.3354  -17.1182   21.6961 C.ar    1  UNL1        0.0039
     20 C         -12.1111  -16.4402   21.1563 C.ar    1  UNL1        0.0716
     21 C         -10.8741  -16.3438   21.9991 C.ar    1  UNL1        0.0084
     22 C         -12.1239  -15.8585   19.7738 C.3     1  UNL1        0.4186
     23 F         -12.1368  -15.2767   18.3912 F       1  UNL1       -0.1659
     24 F         -13.5998  -15.6166   19.8892 F       1  UNL1       -0.1659
     25 F         -10.6481  -16.1003   19.6584 F       1  UNL1       -0.1659
     26 N          -1.1703  -18.2898   21.3268 N.3     1  UNL1       -0.2741
     27 C          -0.3380  -19.2570   22.1154 C.3     1  UNL1        0.0896
     28 C          -1.6126  -17.7926   18.8154 C.3     1  UNL1        0.0173
     29 C          -0.6867  -17.7960   19.9956 C.3     1  UNL1        0.0576
     30 C           0.7227  -17.3054   19.8445 C.3     1  UNL1        0.0173
     31 C          -6.1706  -19.1845   22.4207 C.3     1  UNL1        0.0064
     32 C          -6.7907  -19.6149   21.1245 C.3     1  UNL1        0.0264
     33 C          -8.2836  -19.6752   20.9908 C.ar    1  UNL1       -0.0222
     34 C          -9.1269  -20.0648   22.1684 C.ar    1  UNL1       -0.0043
     35 C         -10.6197  -20.1251   22.0347 C.ar    1  UNL1       -0.0003
     36 C         -11.2691  -19.7958   20.7232 C.ar    1  UNL1       -0.0000
     37 C         -10.4258  -19.4062   19.5456 C.ar    1  UNL1       -0.0003
     38 C          -8.9330  -19.3459   19.6794 C.ar    1  UNL1       -0.0043
@<TRIPOS>BOND
     1    28    29    1
     2    29    30    1
     3    29    26    1
     4    26    27    1
     5     1    26    1
     6     1     2    1
     7     2     3    1
     8     3     4    1
     9     4     7    1
    10     7     8   am
    11     8     9    2
    12     8    11    1
    13    11    12    1
    14    12    13   am
    15    13    14    2
    16    13    16    1
    17    16    17   ar
    18    17    18   ar
    19    18    19   ar
    20    19    20   ar
    21    20    22    1
    22    22    23    1
    23    22    24    1
    24    22    25    1
    25    20    21   ar
    26     4     5    1
    27     5    31    1
    28    31    32    1
    29    32    33    1
    30    33    34   ar
    31    34    35   ar
    32    35    36   ar
    33    36    37   ar
    34    37    38   ar
    35     5     6    1
    36     6     1    1
    37    21    16   ar
    38    38    33   ar
    39     7    10    1
    40    12    15    1
@<TRIPOS>MOLECULE
*****
 38 40 0 0 0
SMALL
GASTEIGER

@<TRIPOS>ATOM
      1 C          -1.4059    3.2697   24.6611 C.3     1  UNL1        0.0576
      2 C          -1.2763    2.3036   25.8013 C.3     1  UNL1        0.0176
      3 C          -0.1894    1.2699   25.7886 C.3     1  UNL1        0.0209
      4 C           0.7679    1.2023   24.6358 C.3     1  UNL1        0.0716
      5 C           0.6383    2.1683   23.4957 C.3     1  UNL1        0.0197
      6 C          -0.4485    3.2020   23.5084 C.3     1  UNL1        0.0176
      7 N           1.8547    0.1686   24.6231 N.am    1  UNL1       -0.3046
      8 C           3.0306    0.3052   25.5444 C.2     1  UNL1        0.2425
      9 O           3.1196    1.4757   26.4783 O.2     1  UNL1       -0.2733
     10 H           1.7963   -0.5996   24.0102 H       1  UNL1        0.1494
     11 C           4.1174   -0.7285   25.5317 C.3     1  UNL1        0.1759
     12 N           4.4473   -1.4544   24.2611 N.am    1  UNL1       -0.2931
     13 C           5.1684   -0.7417   23.1557 C.2     1  UNL1        0.2462
     14 O           5.5596    0.6970   23.3208 O.2     1  UNL1       -0.2701
     15 H           4.1905   -2.3986   24.1528 H       1  UNL1        0.1502
     16 C           5.4982   -1.4675   21.8852 C.ar    1  UNL1        0.0533
     17 C           6.8678   -1.3456   21.2856 C.ar    1  UNL1        0.0045
     18 C           7.1976   -2.0715   20.0150 C.ar    1  UNL1        0.0001
     19 C           6.1579   -2.9193   19.3440 C.ar    1  UNL1        0.0039
     20 C           4.7883   -3.0412   19.9436 C.ar    1  UNL1        0.0716
     21 C           4.4585   -2.3153   21.2141 C.ar    1  UNL1        0.0084
     22 C           3.7486   -3.8889   19.2726 C.3     1  UNL1        0.4186
     23 F           2.7088   -4.7367   18.6015 F       1  UNL1       -0.1659
     24 F           2.6917   -2.8959   19.6556 F       1  UNL1       -0.1659
     25 F           4.8055   -4.8819   18.8895 F       1  UNL1       -0.1659
     26 N          -2.4927    4.3034   24.6738 N.3     1  UNL1       -0.2741
     27 C          -2.1570    5.7475   24.4461 C.3     1  UNL1        0.0896
     28 C          -4.5757    4.2078   26.2237 C.3     1  UNL1        0.0173
     29 C          -3.9153    3.8931   24.9141 C.3     1  UNL1        0.0576
     30 C          -4.6776    3.1679   23.8449 C.3     1  UNL1        0.0173
     31 C           1.5956    2.1007   22.3428 C.3     1  UNL1        0.0064
     32 C           1.2490    1.2944   21.1264 C.3     1  UNL1        0.0264
     33 C           2.3102    0.9612   20.1200 C.ar    1  UNL1       -0.0222
     34 C           3.7243    1.4079   20.3453 C.ar    1  UNL1       -0.0043
     35 C           4.7854    1.0746   19.3389 C.ar    1  UNL1       -0.0003
     36 C           4.4325    0.2948   18.1072 C.ar    1  UNL1       -0.0000
     37 C           3.0184   -0.1518   17.8818 C.ar    1  UNL1       -0.0003
     38 C           1.9573    0.1814   18.8882 C.ar    1  UNL1       -0.0043
@<TRIPOS>BOND
     1    28    29    1
     2    29    30    1
     3    29    26    1
     4    26    27    1
     5     1    26    1
     6     1     2    1
     7     2     3    1
     8     3     4    1
     9     4     7    1
    10     7     8   am
    11     8     9    2
    12     8    11    1
    13    11    12    1
    14    12    13   am
    15    13    14    2
    16    13    16    1
    17    16    17   ar
    18    17    18   ar
    19    18    19   ar
    20    19    20   ar
    21    20    22    1
    22    22    23    1
    23    22    24    1
    24    22    25    1
    25    20    21   ar
    26     4     5    1
    27     5    31    1
    28    31    32    1
    29    32    33    1
    30    33    34   ar
    31    34    35   ar
    32    35    36   ar
    33    36    37   ar
    34    37    38   ar
    35     5     6    1
    36     6     1    1
    37    21    16   ar
    38    38    33   ar
    39     7    10    1
    40    12    15    1
@<TRIPOS>MOLECULE
*****
 38 40 0 0 0
SMALL
GASTEIGER

@<TRIPOS>ATOM
      1 C           3.1984   -0.8898   19.6171 C.3     1  UNL1        0.0576
      2 C           2.6909   -0.2037   18.3835 C.3     1  UNL1        0.0176
      3 C           1.5866    0.8062   18.4875 C.3     1  UNL1        0.0209
      4 C           0.9899    1.1299   19.8250 C.3     1  UNL1        0.0716
      5 C           1.4974    0.4438   21.0586 C.3     1  UNL1        0.0197
      6 C           2.6016   -0.5660   20.9546 C.3     1  UNL1        0.0176
      7 N          -0.1144    2.1398   19.9290 N.am    1  UNL1       -0.3046
      8 C           0.2124    3.5987   20.0503 C.2     1  UNL1        0.2425
      9 O           1.6435    4.0478   20.0677 O.2     1  UNL1       -0.2733
     10 H          -1.0537    1.8450   19.9176 H       1  UNL1        0.1494
     11 C          -0.8919    4.6085   20.1543 C.3     1  UNL1        0.1759
     12 N          -1.6844    4.7254   21.4226 N.am    1  UNL1       -0.2931
     13 C          -2.8126    3.7744   21.6922 C.2     1  UNL1        0.2462
     14 O          -3.1484    2.7066   20.6936 O.2     1  UNL1       -0.2701
     15 H          -1.4640    5.4262   22.0779 H       1  UNL1        0.1502
     16 C          -3.6051    3.8912   22.9603 C.ar    1  UNL1        0.0533
     17 C          -2.9325    3.6919   24.2862 C.ar    1  UNL1        0.0045
     18 C          -3.7251    3.8087   25.5544 C.ar    1  UNL1        0.0001
     19 C          -5.1902    4.1248   25.4967 C.ar    1  UNL1        0.0039
     20 C          -5.8629    4.3241   24.1709 C.ar    1  UNL1        0.0716
     21 C          -5.0704    4.2073   22.9027 C.ar    1  UNL1        0.0084
     22 C          -7.3280    4.6402   24.1132 C.3     1  UNL1        0.4186
     23 F          -8.7933    4.9562   24.0555 F       1  UNL1       -0.1659
     24 F          -7.4490    3.8481   22.8451 F       1  UNL1       -0.1659
     25 F          -7.2071    5.4322   25.3812 F       1  UNL1       -0.1659
     26 N           4.3027   -1.8996   19.5131 N.3     1  UNL1       -0.2741
     27 C           5.6184   -1.5124   18.9058 C.3     1  UNL1        0.0896
     28 C           3.4295   -4.3178   19.1392 C.3     1  UNL1        0.0173
     29 C           4.0912   -3.2967   20.0164 C.3     1  UNL1        0.0576
     30 C           4.5415   -3.6727   21.3970 C.3     1  UNL1        0.0173
     31 C           0.9006    0.7676   22.3962 C.3     1  UNL1        0.0064
     32 C           1.4016    1.9474   23.1752 C.3     1  UNL1        0.0264
     33 C           0.7662    2.3052   24.4861 C.ar    1  UNL1       -0.0222
     34 C           0.8390    3.7144   24.9950 C.ar    1  UNL1       -0.0043
     35 C           0.2036    4.0721   26.3058 C.ar    1  UNL1       -0.0003
     36 C          -0.5045    3.0207   27.1077 C.ar    1  UNL1       -0.0000
     37 C          -0.5773    1.6116   26.5988 C.ar    1  UNL1       -0.0003
     38 C           0.0581    1.2539   25.2880 C.ar    1  UNL1       -0.0043
@<TRIPOS>BOND
     1    28    29    1
     2    29    30    1
     3    29    26    1
     4    26    27    1
     5     1    26    1
     6     1     2    1
     7     2     3    1
     8     3     4    1
     9     4     7    1
    10     7     8   am
    11     8     9    2
    12     8    11    1
    13    11    12    1
    14    12    13   am
    15    13    14    2
    16    13    16    1
    17    16    17   ar
    18    17    18   ar
    19    18    19   ar
    20    19    20   ar
    21    20    22    1
    22    22    23    1
    23    22    24    1
    24    22    25    1
    25    20    21   ar
    26     4     5    1
    27     5    31    1
    28    31    32    1
    29    32    33    1
    30    33    34   ar
    31    34    35   ar
    32    35    36   ar
    33    36    37   ar
    34    37    38   ar
    35     5     6    1
    36     6     1    1
    37    21    16   ar
    38    38    33   ar
    39     7    10    1
    40    12    15    1
@<TRIPOS>MOLECULE
*****
 38 40 0 0 0
SMALL
GASTEIGER

@<TRIPOS>ATOM
      1 C           3.7902   -1.7165   19.2571 C.3     1  UNL1        0.0576
      2 C           3.8511   -1.0077   17.9366 C.3     1  UNL1        0.0176
      3 C           2.8955    0.1100   17.6406 C.3     1  UNL1        0.0209
      4 C           1.8792    0.5189   18.6651 C.3     1  UNL1        0.0716
      5 C           1.8183   -0.1899   19.9857 C.3     1  UNL1        0.0197
      6 C           2.7739   -1.3076   20.2817 C.3     1  UNL1        0.0176
      7 N           0.9236    1.6367   18.3691 N.am    1  UNL1       -0.3046
      8 C           1.2658    3.0414   18.7685 C.2     1  UNL1        0.2425
      9 O           2.5635    3.3285   19.4639 O.2     1  UNL1       -0.2733
     10 H           0.0719    1.4483   17.9127 H       1  UNL1        0.1494
     11 C           0.3102    4.1591   18.4725 C.3     1  UNL1        0.1759
     12 N          -1.0850    4.1184   19.0218 N.am    1  UNL1       -0.2931
     13 C          -2.2526    3.9648   18.0928 C.2     1  UNL1        0.2462
     14 O          -2.0250    3.8520   16.6144 O.2     1  UNL1       -0.2701
     15 H          -1.2344    4.1924   19.9921 H       1  UNL1        0.1502
     16 C          -3.6478    3.9240   18.6421 C.ar    1  UNL1        0.0533
     17 C          -4.8223    4.0225   17.7143 C.ar    1  UNL1        0.0045
     18 C          -6.2176    3.9817   18.2636 C.ar    1  UNL1        0.0001
     19 C          -6.4383    3.8424   19.7407 C.ar    1  UNL1        0.0039
     20 C          -5.2637    3.7439   20.6685 C.ar    1  UNL1        0.0716
     21 C          -3.8686    3.7847   20.1193 C.ar    1  UNL1        0.0084
     22 C          -5.4844    3.6046   22.1456 C.3     1  UNL1        0.4186
     23 F          -5.7052    3.4653   23.6228 F       1  UNL1       -0.1659
     24 F          -6.7671    4.3731   22.0265 F       1  UNL1       -0.1659
     25 F          -4.2018    2.8361   22.2648 F       1  UNL1       -0.1659
     26 N           4.7458   -2.8343   19.5531 N.3     1  UNL1       -0.2741
     27 C           6.1461   -2.7855   19.0177 C.3     1  UNL1        0.0896
     28 C           4.5905   -4.0266   21.8562 C.3     1  UNL1        0.0173
     29 C           4.3010   -4.0008   20.3846 C.3     1  UNL1        0.0576
     30 C           3.5668   -5.1415   19.7446 C.3     1  UNL1        0.0173
     31 C           0.8019    0.2191   21.0103 C.3     1  UNL1        0.0064
     32 C           1.2467    0.8347   22.3038 C.3     1  UNL1        0.0264
     33 C           0.3241    1.7470   23.0565 C.ar    1  UNL1       -0.0222
     34 C          -0.4077    2.8377   22.3322 C.ar    1  UNL1       -0.0043
     35 C          -1.3302    3.7500   23.0850 C.ar    1  UNL1       -0.0003
     36 C          -1.5209    3.5716   24.5621 C.ar    1  UNL1       -0.0000
     37 C          -0.7891    2.4808   25.2864 C.ar    1  UNL1       -0.0003
     38 C           0.1334    1.5686   24.5336 C.ar    1  UNL1       -0.0043
@<TRIPOS>BOND
     1    28    29    1
     2    29    30    1
     3    29    26    1
     4    26    27    1
     5     1    26    1
     6     1     2    1
     7     2     3    1
     8     3     4    1
     9     4     7    1
    10     7     8   am
    11     8     9    2
    12     8    11    1
    13    11    12    1
    14    12    13   am
    15    13    14    2
    16    13    16    1
    17    16    17   ar
    18    17    18   ar
    19    18    19   ar
    20    19    20   ar
    21    20    22    1
    22    22    23    1
    23    22    24    1
    24    22    25    1
    25    20    21   ar
    26     4     5    1
    27     5    31    1
    28    31    32    1
    29    32    33    1
    30    33    34   ar
    31    34    35   ar
    32    35    36   ar
    33    36    37   ar
    34    37    38   ar
    35     5     6    1
    36     6     1    1
    37    21    16   ar
    38    38    33   ar
    39     7    10    1
    40    12    15    1
@<TRIPOS>MOLECULE
*****
 38 40 0 0 0
SMALL
GASTEIGER

@<TRIPOS>ATOM
      1 C           3.4445   -1.5076   21.3108 C.3     1  UNL1        0.0576
      2 C           2.6163   -1.6696   20.0707 C.3     1  UNL1        0.0176
      3 C           1.4006   -0.8157   19.8638 C.3     1  UNL1        0.0209
      4 C           1.0130    0.2003   20.8970 C.3     1  UNL1        0.0716
      5 C           1.8412    0.3623   22.1371 C.3     1  UNL1        0.0197
      6 C           3.0569   -0.4916   22.3440 C.3     1  UNL1        0.0176
      7 N          -0.2027    1.0543   20.6902 N.am    1  UNL1       -0.3046
      8 C          -0.0800    2.3780   19.9955 C.2     1  UNL1        0.2425
      9 O           1.2584    2.8479   19.5076 O.2     1  UNL1       -0.2733
     10 H          -1.0811    0.7459   21.0103 H       1  UNL1        0.1494
     11 C          -1.2957    3.2320   19.7886 C.3     1  UNL1        0.1759
     12 N          -2.2531    3.4607   20.9205 N.am    1  UNL1       -0.2931
     13 C          -3.7151    3.6451   20.6406 C.2     1  UNL1        0.2462
     14 O          -4.2198    3.6008   19.2287 O.2     1  UNL1       -0.2701
     15 H          -1.9218    3.4897   21.8472 H       1  UNL1        0.1502
     16 C          -4.6725    3.8737   21.7724 C.ar    1  UNL1        0.0533
     17 C          -6.1117    4.1848   21.4862 C.ar    1  UNL1        0.0045
     18 C          -7.0691    4.4134   22.6182 C.ar    1  UNL1        0.0001
     19 C          -6.5872    4.3311   24.0362 C.ar    1  UNL1        0.0039
     20 C          -5.1480    4.0200   24.3225 C.ar    1  UNL1        0.0716
     21 C          -4.1907    3.7913   23.1906 C.ar    1  UNL1        0.0084
     22 C          -4.6661    3.9376   25.7405 C.3     1  UNL1        0.4186
     23 F          -4.1843    3.8553   27.1587 F       1  UNL1       -0.1659
     24 F          -5.8695    4.7096   26.1943 F       1  UNL1       -0.1659
     25 F          -3.4628    3.1656   25.2868 F       1  UNL1       -0.1659
     26 N           4.6602   -2.3616   21.5176 N.3     1  UNL1       -0.2741
     27 C           4.8004   -3.1761   22.7693 C.3     1  UNL1        0.0896
     28 C           5.7905   -3.5376   19.4955 C.3     1  UNL1        0.0173
     29 C           5.7356   -2.4010   20.4728 C.3     1  UNL1        0.0576
     30 C           6.7563   -1.3038   20.4052 C.3     1  UNL1        0.0173
     31 C           1.4537    1.3784   23.1704 C.3     1  UNL1        0.0064
     32 C           0.3834    1.0592   24.1716 C.3     1  UNL1        0.0264
     33 C          -0.0376    2.0922   25.1745 C.ar    1  UNL1       -0.0222
     34 C          -0.1227    3.5352   24.7742 C.ar    1  UNL1       -0.0043
     35 C          -0.5437    4.5682   25.7770 C.ar    1  UNL1       -0.0003
     36 C          -0.8796    4.1580   27.1803 C.ar    1  UNL1       -0.0000
     37 C          -0.7944    2.7150   27.5806 C.ar    1  UNL1       -0.0003
     38 C          -0.3734    1.6821   26.5777 C.ar    1  UNL1       -0.0043
@<TRIPOS>BOND
     1    28    29    1
     2    29    30    1
     3    29    26    1
     4    26    27    1
     5     1    26    1
     6     1     2    1
     7     2     3    1
     8     3     4    1
     9     4     7    1
    10     7     8   am
    11     8     9    2
    12     8    11    1
    13    11    12    1
    14    12    13   am
    15    13    14    2
    16    13    16    1
    17    16    17   ar
    18    17    18   ar
    19    18    19   ar
    20    19    20   ar
    21    20    22    1
    22    22    23    1
    23    22    24    1
    24    22    25    1
    25    20    21   ar
    26     4     5    1
    27     5    31    1
    28    31    32    1
    29    32    33    1
    30    33    34   ar
    31    34    35   ar
    32    35    36   ar
    33    36    37   ar
    34    37    38   ar
    35     5     6    1
    36     6     1    1
    37    21    16   ar
    38    38    33   ar
    39     7    10    1
    40    12    15    1
@<TRIPOS>MOLECULE
*****
 38 40 0 0 0
SMALL
GASTEIGER

@<TRIPOS>ATOM
      1 C           6.6947   -3.7560   28.2341 C.3     1  UNL1        0.0576
      2 C           7.1043   -5.0557   27.6074 C.3     1  UNL1        0.0176
      3 C           7.0415   -5.2229   26.1180 C.3     1  UNL1        0.0209
      4 C           6.5691   -4.0903   25.2555 C.3     1  UNL1        0.0716
      5 C           6.1595   -2.7906   25.8822 C.3     1  UNL1        0.0197
      6 C           6.2223   -2.6234   27.3715 C.3     1  UNL1        0.0176
      7 N           6.5063   -4.2575   23.7661 N.am    1  UNL1       -0.3046
      8 C           7.7304   -4.0195   22.9324 C.2     1  UNL1        0.2425
      9 O           9.0173   -3.6143   23.5881 O.2     1  UNL1       -0.2733
     10 H           5.6617   -4.5234   23.3358 H       1  UNL1        0.1494
     11 C           7.6676   -4.1866   21.4431 C.3     1  UNL1        0.1759
     12 N           6.9212   -3.1894   20.6073 N.am    1  UNL1       -0.2931
     13 C           5.4317   -3.2951   20.4653 C.2     1  UNL1        0.2462
     14 O           4.6885   -4.3980   21.1592 O.2     1  UNL1       -0.2701
     15 H           7.4090   -2.4656   20.1519 H       1  UNL1        0.1502
     16 C           4.6853   -2.2979   19.6295 C.ar    1  UNL1        0.0533
     17 C           5.2820   -1.7976   18.3475 C.ar    1  UNL1        0.0045
     18 C           4.5356   -0.8004   17.5117 C.ar    1  UNL1        0.0001
     19 C           3.1925   -0.3036   17.9580 C.ar    1  UNL1        0.0039
     20 C           2.5958   -0.8039   19.2400 C.ar    1  UNL1        0.0716
     21 C           3.3422   -1.8010   20.0758 C.ar    1  UNL1        0.0084
     22 C           1.2527   -0.3070   19.6863 C.3     1  UNL1        0.4186
     23 F          -0.0905    0.1898   20.1326 F       1  UNL1       -0.1659
     24 F           1.4491   -0.9711   21.0168 F       1  UNL1       -0.1659
     25 F           1.0563    0.3571   18.3557 F       1  UNL1       -0.1659
     26 N           6.7575   -3.5888   29.7235 N.3     1  UNL1       -0.2741
     27 C           6.8483   -4.7951   30.6104 C.3     1  UNL1        0.0896
     28 C           7.9815   -1.3908   30.3717 C.3     1  UNL1        0.0173
     29 C           6.7294   -2.2154   30.3259 C.3     1  UNL1        0.0576
     30 C           5.4491   -1.6666   30.8824 C.3     1  UNL1        0.0173
     31 C           5.6871   -1.6579   25.0196 C.3     1  UNL1        0.0064
     32 C           4.2531   -1.5944   24.5841 C.3     1  UNL1        0.0264
     33 C           3.7675   -0.4325   23.7691 C.ar    1  UNL1       -0.0222
     34 C           4.6425    0.1513   22.6997 C.ar    1  UNL1       -0.0043
     35 C           4.1569    1.3131   21.8847 C.ar    1  UNL1       -0.0003
     36 C           2.7964    1.8912   22.1391 C.ar    1  UNL1       -0.0000
     37 C           1.9214    1.3074   23.2084 C.ar    1  UNL1       -0.0003
     38 C           2.4070    0.1455   24.0234 C.ar    1  UNL1       -0.0043
@<TRIPOS>BOND
     1    28    29    1
     2    29    30    1
     3    29    26    1
     4    26    27    1
     5     1    26    1
     6     1     2    1
     7     2     3    1
     8     3     4    1
     9     4     7    1
    10     7     8   am
    11     8     9    2
    12     8    11    1
    13    11    12    1
    14    12    13   am
    15    13    14    2
    16    13    16    1
    17    16    17   ar
    18    17    18   ar
    19    18    19   ar
    20    19    20   ar
    21    20    22    1
    22    22    23    1
    23    22    24    1
    24    22    25    1
    25    20    21   ar
    26     4     5    1
    27     5    31    1
    28    31    32    1
    29    32    33    1
    30    33    34   ar
    31    34    35   ar
    32    35    36   ar
    33    36    37   ar
    34    37    38   ar
    35     5     6    1
    36     6     1    1
    37    21    16   ar
    38    38    33   ar
    39     7    10    1
    40    12    15    1
@<TRIPOS>MOLECULE
*****
 38 40 0 0 0
SMALL
GASTEIGER

@<TRIPOS>ATOM
      1 C           3.6826   -1.8430   21.7505 C.3     1  UNL1        0.0576
      2 C           3.9105   -0.9578   22.9397 C.3     1  UNL1        0.0176
      3 C           3.0917    0.2865   23.1165 C.3     1  UNL1        0.0209
      4 C           2.0449    0.6456   22.1040 C.3     1  UNL1        0.0716
      5 C           1.8170   -0.2396   20.9147 C.3     1  UNL1        0.0197
      6 C           2.6358   -1.4839   20.7380 C.3     1  UNL1        0.0176
      7 N           1.2261    1.8899   22.2807 N.am    1  UNL1       -0.3046
      8 C           0.3609    2.0522   23.4952 C.2     1  UNL1        0.2425
      9 O           0.3144    0.9700   24.5330 O.2     1  UNL1       -0.2733
     10 H           1.2566    2.6001   21.5996 H       1  UNL1        0.1494
     11 C          -0.4579    3.2965   23.6719 C.3     1  UNL1        0.1759
     12 N          -1.6299    3.5571   22.7726 N.am    1  UNL1       -0.2931
     13 C          -3.0218    3.5435   23.3315 C.2     1  UNL1        0.2462
     14 O          -3.2417    3.2693   24.7898 O.2     1  UNL1       -0.2701
     15 H          -1.4855    3.7371   21.8155 H       1  UNL1        0.1502
     16 C          -4.1937    3.8042   22.4323 C.ar    1  UNL1        0.0533
     17 C          -5.4923    4.2813   23.0119 C.ar    1  UNL1        0.0045
     18 C          -6.6642    4.5420   22.1126 C.ar    1  UNL1        0.0001
     19 C          -6.5376    4.3254   20.6338 C.ar    1  UNL1        0.0039
     20 C          -5.2390    3.8483   20.0542 C.ar    1  UNL1        0.0716
     21 C          -4.0671    3.5876   20.9534 C.ar    1  UNL1        0.0084
     22 C          -5.1123    3.6317   18.5753 C.3     1  UNL1        0.4186
     23 F          -4.9855    3.4152   17.0964 F       1  UNL1       -0.1659
     24 F          -3.8317    4.4127   18.5707 F       1  UNL1       -0.1659
     25 F          -6.3929    2.8507   18.5800 F       1  UNL1       -0.1659
     26 N           4.5014   -3.0873   21.5738 N.3     1  UNL1       -0.2741
     27 C           5.1249   -3.7505   22.7660 C.3     1  UNL1        0.0896
     28 C           3.8215   -4.7927   19.7355 C.3     1  UNL1        0.0173
     29 C           4.6966   -3.6685   20.2048 C.3     1  UNL1        0.0576
     30 C           5.7671   -3.1255   19.3051 C.3     1  UNL1        0.0173
     31 C           0.7701    0.1194   19.9021 C.3     1  UNL1        0.0064
     32 C           1.1682    0.7682   18.6096 C.3     1  UNL1        0.0264
     33 C           2.6125    0.8146   18.2073 C.ar    1  UNL1       -0.0222
     34 C           3.2276   -0.3474   17.4852 C.ar    1  UNL1       -0.0043
     35 C           4.6719   -0.3010   17.0829 C.ar    1  UNL1       -0.0003
     36 C           5.5011    0.9074   17.4027 C.ar    1  UNL1       -0.0000
     37 C           4.8860    2.0694   18.1248 C.ar    1  UNL1       -0.0003
     38 C           3.4417    2.0229   18.5271 C.ar    1  UNL1       -0.0043
@<TRIPOS>BOND
     1    28    29    1
     2    29    30    1
     3    29    26    1
     4    26    27    1
     5     1    26    1
     6     1     2    1
     7     2     3    1
     8     3     4    1
     9     4     7    1
    10     7     8   am
    11     8     9    2
    12     8    11    1
    13    11    12    1
    14    12    13   am
    15    13    14    2
    16    13    16    1
    17    16    17   ar
    18    17    18   ar
    19    18    19   ar
    20    19    20   ar
    21    20    22    1
    22    22    23    1
    23    22    24    1
    24    22    25    1
    25    20    21   ar
    26     4     5    1
    27     5    31    1
    28    31    32    1
    29    32    33    1
    30    33    34   ar
    31    34    35   ar
    32    35    36   ar
    33    36    37   ar
    34    37    38   ar
    35     5     6    1
    36     6     1    1
    37    21    16   ar
    38    38    33   ar
    39     7    10    1
    40    12    15    1
