@<TRIPOS>MOLECULE
*****
 25 27 0 0 0
SMALL
GASTEIGER

@<TRIPOS>ATOM
      1 C          -8.1196  -19.3868   19.1474 C.3     1  UNL1        0.0497
      2 C          -8.7798  -19.3154   20.4924 C.ar    1  UNL1        0.0355
      3 C         -10.1039  -18.6776   20.7920 C.ar    1  UNL1       -0.0020
      4 C         -10.3742  -18.8373   22.2588 C.ar    1  UNL1        0.0317
      5 C         -11.5244  -18.4072   23.1201 C.ar    1  UNL1        0.0043
      6 C         -11.5175  -18.7137   24.5884 C.ar    1  UNL1        0.0208
      7 C         -10.3603  -19.4502   25.1954 C.ar    1  UNL1        0.1005
      8 N          -9.2101  -19.8803   24.3341 N.ar    1  UNL1       -0.2268
      9 C          -9.2170  -19.5739   22.8658 C.ar    1  UNL1        0.1435
     10 N          -8.2316  -19.8693   21.7741 N.ar    1  UNL1       -0.3125
     11 C         -11.0005  -17.9992   19.7991 C.3     1  UNL1        0.0692
     12 C         -11.2758  -16.5294   19.9188 C.2     1  UNL1        0.0548
     13 O         -12.5680  -15.9644   19.4082 O.co2   1  UNL1       -0.5488
     14 O         -10.2588  -15.6248   20.5492 O.co2   1  UNL1       -0.5488
     15 C          -6.9271  -20.5919   21.9358 C.3     1  UNL1        0.1338
     16 C          -5.6399  -19.9009   21.5961 C.ar    1  UNL1        0.0005
     17 C          -5.0804  -18.8605   22.5206 C.ar    1  UNL1       -0.0011
     18 C          -3.7931  -18.1695   22.1810 C.ar    1  UNL1        0.0181
     19 C          -3.0652  -18.5189   20.9168 C.ar    1  UNL1        0.1057
     20 C          -3.6246  -19.5592   19.9923 C.ar    1  UNL1        0.0181
     21 C          -4.9119  -20.2503   20.3320 C.ar    1  UNL1       -0.0011
     22 S          -1.7779  -17.8279   20.5772 S.O2    1  UNL1        0.0104
     23 C          -0.4906  -17.1368   20.2376 C.3     1  UNL1        0.1816
     24 O          -1.0826  -19.1553   20.5118 O.2     1  UNL1       -0.1686
     25 O          -2.4733  -16.5003   20.6426 O.2     1  UNL1       -0.1686
@<TRIPOS>UNITY_ATOM_ATTR
13 1
charge -1
@<TRIPOS>BOND
     1     1     2    1
     2     2     3   ar
     3     3    11    1
     4    11    12    1
     5    12    13   ar
     6    12    14   ar
     7     3     4   ar
     8     4     5   ar
     9     5     6   ar
    10     6     7   ar
    11     7     8   ar
    12     8     9   ar
    13     9    10   ar
    14    10    15    1
    15    15    16    1
    16    16    17   ar
    17    17    18   ar
    18    18    19   ar
    19    19    22    1
    20    22    23    1
    21    22    24    2
    22    22    25    2
    23    19    20   ar
    24    20    21   ar
    25    10     2   ar
    26    21    16   ar
    27     9     4   ar
@<TRIPOS>MOLECULE
*****
 25 27 0 0 0
SMALL
GASTEIGER

@<TRIPOS>ATOM
      1 C          -9.2457  -20.3219   19.2622 C.3     1  UNL1        0.0497
      2 C          -8.8318  -19.3114   20.2906 C.ar    1  UNL1        0.0355
      3 C          -9.6968  -18.2247   20.8571 C.ar    1  UNL1       -0.0020
      4 C          -8.8798  -17.4519   21.8497 C.ar    1  UNL1        0.0317
      5 C          -9.2063  -16.2723   22.7168 C.ar    1  UNL1        0.0043
      6 C          -8.1629  -15.7017   23.6309 C.ar    1  UNL1        0.0208
      7 C          -6.7929  -16.3108   23.6779 C.ar    1  UNL1        0.1005
      8 N          -6.4664  -17.4904   22.8109 N.ar    1  UNL1       -0.2268
      9 C          -7.5098  -18.0609   21.8967 C.ar    1  UNL1        0.1435
     10 N          -7.4801  -19.2101   20.9332 N.ar    1  UNL1       -0.3125
     11 C         -11.1276  -17.9577   20.4946 C.3     1  UNL1        0.0692
     12 C         -11.5553  -16.5760   20.0969 C.2     1  UNL1        0.0548
     13 O         -12.9791  -16.1463   20.2921 O.co2   1  UNL1       -0.5488
     14 O         -10.5591  -15.6240   19.5040 O.co2   1  UNL1       -0.5488
     15 C          -6.3051  -20.1016   20.6601 C.3     1  UNL1        0.1338
     16 C          -4.9259  -19.5187   20.5718 C.ar    1  UNL1        0.0005
     17 C          -3.9709  -19.6745   21.7180 C.ar    1  UNL1       -0.0011
     18 C          -2.5916  -19.0916   21.6297 C.ar    1  UNL1        0.0181
     19 C          -2.1673  -18.3528   20.3951 C.ar    1  UNL1        0.1057
     20 C          -3.1223  -18.1970   19.2489 C.ar    1  UNL1        0.0181
     21 C          -4.5015  -18.7799   19.3372 C.ar    1  UNL1       -0.0011
     22 S          -0.7881  -17.7699   20.3068 S.O2    1  UNL1        0.0104
     23 C           0.5912  -17.1869   20.2184 C.3     1  UNL1        0.1816
     24 O          -0.2590  -19.0927   19.8377 O.2     1  UNL1       -0.1686
     25 O          -1.3171  -16.4469   20.7759 O.2     1  UNL1       -0.1686
@<TRIPOS>UNITY_ATOM_ATTR
13 1
charge -1
@<TRIPOS>BOND
     1     1     2    1
     2     2     3   ar
     3     3    11    1
     4    11    12    1
     5    12    13   ar
     6    12    14   ar
     7     3     4   ar
     8     4     5   ar
     9     5     6   ar
    10     6     7   ar
    11     7     8   ar
    12     8     9   ar
    13     9    10   ar
    14    10    15    1
    15    15    16    1
    16    16    17   ar
    17    17    18   ar
    18    18    19   ar
    19    19    22    1
    20    22    23    1
    21    22    24    2
    22    22    25    2
    23    19    20   ar
    24    20    21   ar
    25    10     2   ar
    26    21    16   ar
    27     9     4   ar
@<TRIPOS>MOLECULE
*****
 25 27 0 0 0
SMALL
GASTEIGER

@<TRIPOS>ATOM
      1 C         -10.3187  -19.9207   21.1975 C.3     1  UNL1        0.0497
      2 C          -9.4886  -18.8738   21.8793 C.ar    1  UNL1        0.0355
      3 C         -10.0098  -17.6581   22.5868 C.ar    1  UNL1       -0.0020
      4 C          -8.8349  -16.8917   23.1180 C.ar    1  UNL1        0.0317
      5 C          -8.7397  -15.6140   23.8980 C.ar    1  UNL1        0.0043
      6 C          -7.3972  -15.0783   24.2989 C.ar    1  UNL1        0.0208
      7 C          -6.1499  -15.8203   23.9197 C.ar    1  UNL1        0.1005
      8 N          -6.2451  -17.0980   23.1397 N.ar    1  UNL1       -0.2268
      9 C          -7.5876  -17.6336   22.7389 C.ar    1  UNL1        0.1435
     10 N          -7.9917  -18.8587   21.9733 N.ar    1  UNL1       -0.3125
     11 C         -11.4525  -17.2759   22.7367 C.3     1  UNL1        0.0692
     12 C         -12.3304  -18.0228   23.6968 C.2     1  UNL1        0.0548
     13 O         -13.8089  -17.7703   23.7131 O.co2   1  UNL1       -0.5488
     14 O         -11.7297  -19.0221   24.6405 O.co2   1  UNL1       -0.5488
     15 C          -7.0619  -19.8878   21.4020 C.3     1  UNL1        0.1338
     16 C          -5.6441  -19.5206   21.0785 C.ar    1  UNL1        0.0005
     17 C          -5.2924  -19.0224   19.7080 C.ar    1  UNL1       -0.0011
     18 C          -3.8746  -18.6551   19.3843 C.ar    1  UNL1        0.0181
     19 C          -2.8083  -18.7860   20.4312 C.ar    1  UNL1        0.1057
     20 C          -3.1599  -19.2842   21.8017 C.ar    1  UNL1        0.0181
     21 C          -4.5778  -19.6515   22.1253 C.ar    1  UNL1       -0.0011
     22 S          -1.3904  -18.4187   20.1076 S.O2    1  UNL1        0.0104
     23 C           0.0274  -18.0514   19.7840 C.3     1  UNL1        0.1816
     24 O          -1.0319  -18.5229   21.5604 O.2     1  UNL1       -0.1686
     25 O          -1.7490  -18.3145   18.6547 O.2     1  UNL1       -0.1686
@<TRIPOS>UNITY_ATOM_ATTR
13 1
charge -1
@<TRIPOS>BOND
     1     1     2    1
     2     2     3   ar
     3     3    11    1
     4    11    12    1
     5    12    13   ar
     6    12    14   ar
     7     3     4   ar
     8     4     5   ar
     9     5     6   ar
    10     6     7   ar
    11     7     8   ar
    12     8     9   ar
    13     9    10   ar
    14    10    15    1
    15    15    16    1
    16    16    17   ar
    17    17    18   ar
    18    18    19   ar
    19    19    22    1
    20    22    23    1
    21    22    24    2
    22    22    25    2
    23    19    20   ar
    24    20    21   ar
    25    10     2   ar
    26    21    16   ar
    27     9     4   ar
@<TRIPOS>MOLECULE
*****
 25 27 0 0 0
SMALL
GASTEIGER

@<TRIPOS>ATOM
      1 C          -9.5241  -18.1228   25.8622 C.3     1  UNL1        0.0497
      2 C         -10.0595  -17.6909   24.5292 C.ar    1  UNL1        0.0355
      3 C         -11.3698  -18.1063   23.9287 C.ar    1  UNL1       -0.0020
      4 C         -11.4987  -17.4398   22.5911 C.ar    1  UNL1        0.0317
      5 C         -12.5777  -17.4794   21.5498 C.ar    1  UNL1        0.0043
      6 C         -12.4260  -16.6917   20.2824 C.ar    1  UNL1        0.0208
      7 C         -11.1954  -15.8644   20.0562 C.ar    1  UNL1        0.1005
      8 N         -10.1164  -15.8248   21.0974 N.ar    1  UNL1       -0.2268
      9 C         -10.2681  -16.6125   22.3649 C.ar    1  UNL1        0.1435
     10 N          -9.3786  -16.7677   23.5627 N.ar    1  UNL1       -0.3125
     11 C         -12.3747  -19.0265   24.5557 C.3     1  UNL1        0.0692
     12 C         -13.7276  -18.5074   24.9436 C.2     1  UNL1        0.0548
     13 O         -14.5353  -17.7114   23.9618 O.co2   1  UNL1       -0.5488
     14 O         -14.2727  -18.7842   26.3134 O.co2   1  UNL1       -0.5488
     15 C          -8.0428  -16.1144   23.7595 C.3     1  UNL1        0.1338
     16 C          -6.7922  -16.8180   23.3228 C.ar    1  UNL1        0.0005
     17 C          -5.4521  -16.3096   23.7655 C.ar    1  UNL1       -0.0011
     18 C          -4.2013  -17.0132   23.3289 C.ar    1  UNL1        0.0181
     19 C          -4.2907  -18.2252   22.4496 C.ar    1  UNL1        0.1057
     20 C          -5.6307  -18.7335   22.0069 C.ar    1  UNL1        0.0181
     21 C          -6.8814  -18.0299   22.4435 C.ar    1  UNL1       -0.0011
     22 S          -3.0399  -18.9288   22.0130 S.O2    1  UNL1        0.0104
     23 C          -1.7892  -19.6323   21.5764 C.3     1  UNL1        0.1816
     24 O          -2.2214  -17.9979   22.8577 O.2     1  UNL1       -0.1686
     25 O          -3.8584  -19.8597   21.1682 O.2     1  UNL1       -0.1686
@<TRIPOS>UNITY_ATOM_ATTR
13 1
charge -1
@<TRIPOS>BOND
     1     1     2    1
     2     2     3   ar
     3     3    11    1
     4    11    12    1
     5    12    13   ar
     6    12    14   ar
     7     3     4   ar
     8     4     5   ar
     9     5     6   ar
    10     6     7   ar
    11     7     8   ar
    12     8     9   ar
    13     9    10   ar
    14    10    15    1
    15    15    16    1
    16    16    17   ar
    17    17    18   ar
    18    18    19   ar
    19    19    22    1
    20    22    23    1
    21    22    24    2
    22    22    25    2
    23    19    20   ar
    24    20    21   ar
    25    10     2   ar
    26    21    16   ar
    27     9     4   ar
@<TRIPOS>MOLECULE
*****
 25 27 0 0 0
SMALL
GASTEIGER

@<TRIPOS>ATOM
      1 C          -5.6602  -17.6682   23.1697 C.3     1  UNL1        0.0497
      2 C          -6.8908  -17.9706   22.3671 C.ar    1  UNL1        0.0355
      3 C          -8.2228  -17.2951   22.5070 C.ar    1  UNL1       -0.0020
      4 C          -9.1607  -17.9086   21.5100 C.ar    1  UNL1        0.0317
      5 C         -10.6025  -17.6432   21.1930 C.ar    1  UNL1        0.0043
      6 C         -11.2921  -18.4324   20.1199 C.ar    1  UNL1        0.0208
      7 C         -10.5398  -19.4872   19.3639 C.ar    1  UNL1        0.1005
      8 N          -9.0980  -19.7526   19.6809 N.ar    1  UNL1       -0.2268
      9 C          -8.4084  -18.9634   20.7540 C.ar    1  UNL1        0.1435
     10 N          -7.0056  -19.0017   21.2837 N.ar    1  UNL1       -0.3125
     11 C          -8.5580  -16.1985   23.4740 C.3     1  UNL1        0.0692
     12 C          -8.8625  -16.5280   24.9055 C.2     1  UNL1        0.0548
     13 O          -9.5687  -17.8065   25.2469 O.co2   1  UNL1       -0.5488
     14 O          -8.4608  -15.5789   25.9953 O.co2   1  UNL1       -0.5488
     15 C          -5.9098  -19.9113   20.8127 C.3     1  UNL1        0.1338
     16 C          -4.5158  -19.3832   20.6471 C.ar    1  UNL1        0.0005
     17 C          -4.1616  -18.5668   19.4395 C.ar    1  UNL1       -0.0011
     18 C          -2.7675  -18.0385   19.2738 C.ar    1  UNL1        0.0181
     19 C          -1.7275  -18.3267   20.3157 C.ar    1  UNL1        0.1057
     20 C          -2.0817  -19.1431   21.5232 C.ar    1  UNL1        0.0181
     21 C          -3.4758  -19.6713   21.6889 C.ar    1  UNL1       -0.0011
     22 S          -0.3334  -17.7985   20.1500 S.O2    1  UNL1        0.0104
     23 C           1.0607  -17.2703   19.9843 C.3     1  UNL1        0.1816
     24 O          -0.7969  -16.4393   20.5832 O.2     1  UNL1       -0.1686
     25 O           0.1302  -19.1578   19.7167 O.2     1  UNL1       -0.1686
@<TRIPOS>UNITY_ATOM_ATTR
13 1
charge -1
@<TRIPOS>BOND
     1     1     2    1
     2     2     3   ar
     3     3    11    1
     4    11    12    1
     5    12    13   ar
     6    12    14   ar
     7     3     4   ar
     8     4     5   ar
     9     5     6   ar
    10     6     7   ar
    11     7     8   ar
    12     8     9   ar
    13     9    10   ar
    14    10    15    1
    15    15    16    1
    16    16    17   ar
    17    17    18   ar
    18    18    19   ar
    19    19    22    1
    20    22    23    1
    21    22    24    2
    22    22    25    2
    23    19    20   ar
    24    20    21   ar
    25    10     2   ar
    26    21    16   ar
    27     9     4   ar
@<TRIPOS>MOLECULE
*****
 25 27 0 0 0
SMALL
GASTEIGER

@<TRIPOS>ATOM
      1 C          -7.8603  -17.1157   23.6121 C.3     1  UNL1        0.0497
      2 C          -8.2368  -17.8939   22.3863 C.ar    1  UNL1        0.0355
      3 C          -9.4391  -17.6516   21.5228 C.ar    1  UNL1       -0.0020
      4 C          -9.4225  -18.6591   20.4116 C.ar    1  UNL1        0.0317
      5 C         -10.3549  -18.9006   19.2617 C.ar    1  UNL1        0.0043
      6 C         -10.0746  -20.0071   18.2886 C.ar    1  UNL1        0.0208
      7 C          -8.8620  -20.8721   18.4653 C.ar    1  UNL1        0.1005
      8 N          -7.9296  -20.6306   19.6153 N.ar    1  UNL1       -0.2268
      9 C          -8.2099  -19.5241   20.5884 C.ar    1  UNL1        0.1435
     10 N          -7.4771  -19.0512   21.8088 N.ar    1  UNL1       -0.3125
     11 C         -10.4761  -16.5884   21.7334 C.3     1  UNL1        0.0692
     12 C         -11.2653  -16.0691   20.5682 C.2     1  UNL1        0.0548
     13 O         -10.5813  -15.2819   19.4901 O.co2   1  UNL1       -0.5488
     14 O         -12.7386  -16.3373   20.4811 O.co2   1  UNL1       -0.5488
     15 C          -6.2075  -19.6335   22.3557 C.3     1  UNL1        0.1338
     16 C          -4.8810  -19.1370   21.8620 C.ar    1  UNL1        0.0005
     17 C          -4.4290  -19.4635   20.4695 C.ar    1  UNL1       -0.0011
     18 C          -3.1024  -18.9671   19.9757 C.ar    1  UNL1        0.0181
     19 C          -2.2279  -18.1440   20.8745 C.ar    1  UNL1        0.1057
     20 C          -2.6799  -17.8175   22.2670 C.ar    1  UNL1        0.0181
     21 C          -4.0064  -18.3139   22.7607 C.ar    1  UNL1       -0.0011
     22 S          -0.9014  -17.6475   20.3807 S.O2    1  UNL1        0.0104
     23 C           0.4252  -17.1511   19.8869 C.3     1  UNL1        0.1816
     24 O          -0.5791  -19.0195   19.8670 O.2     1  UNL1       -0.1686
     25 O          -1.2236  -16.2755   20.8944 O.2     1  UNL1       -0.1686
@<TRIPOS>UNITY_ATOM_ATTR
13 1
charge -1
@<TRIPOS>BOND
     1     1     2    1
     2     2     3   ar
     3     3    11    1
     4    11    12    1
     5    12    13   ar
     6    12    14   ar
     7     3     4   ar
     8     4     5   ar
     9     5     6   ar
    10     6     7   ar
    11     7     8   ar
    12     8     9   ar
    13     9    10   ar
    14    10    15    1
    15    15    16    1
    16    16    17   ar
    17    17    18   ar
    18    18    19   ar
    19    19    22    1
    20    22    23    1
    21    22    24    2
    22    22    25    2
    23    19    20   ar
    24    20    21   ar
    25    10     2   ar
    26    21    16   ar
    27     9     4   ar
@<TRIPOS>MOLECULE
*****
 25 27 0 0 0
SMALL
GASTEIGER

@<TRIPOS>ATOM
      1 C          -5.8105  -17.2022   23.4233 C.3     1  UNL1        0.0497
      2 C          -7.2477  -17.5100   23.1238 C.ar    1  UNL1        0.0355
      3 C          -8.4334  -16.7090   23.5738 C.ar    1  UNL1       -0.0020
      4 C          -9.6700  -17.3769   23.0498 C.ar    1  UNL1        0.0317
      5 C         -11.1253  -17.0366   23.1773 C.ar    1  UNL1        0.0043
      6 C         -12.1592  -17.9102   22.5309 C.ar    1  UNL1        0.0208
      7 C         -11.7378  -19.1240   21.7570 C.ar    1  UNL1        0.1005
      8 N         -10.2826  -19.4643   21.6294 N.ar    1  UNL1       -0.2268
      9 C          -9.2486  -18.5908   22.2758 C.ar    1  UNL1        0.1435
     10 N          -7.7516  -18.6730   22.3215 N.ar    1  UNL1       -0.3125
     11 C          -8.3900  -15.4594   24.4025 C.3     1  UNL1        0.0692
     12 C          -7.7604  -15.4837   25.7638 C.2     1  UNL1        0.0548
     13 O          -6.3616  -14.9760   25.9524 O.co2   1  UNL1       -0.5488
     14 O          -8.5297  -16.0157   26.9365 O.co2   1  UNL1       -0.5488
     15 C          -6.9068  -19.7323   21.6780 C.3     1  UNL1        0.1338
     16 C          -5.5016  -19.4183   21.2575 C.ar    1  UNL1        0.0005
     17 C          -4.3676  -19.6249   22.2174 C.ar    1  UNL1       -0.0011
     18 C          -2.9624  -19.3109   21.7970 C.ar    1  UNL1        0.0181
     19 C          -2.6912  -18.7903   20.4166 C.ar    1  UNL1        0.1057
     20 C          -3.8251  -18.5837   19.4567 C.ar    1  UNL1        0.0181
     21 C          -5.2304  -18.8977   19.8772 C.ar    1  UNL1       -0.0011
     22 S          -1.2860  -18.4763   19.9962 S.O2    1  UNL1        0.0104
     23 C           0.1193  -18.1624   19.5757 C.3     1  UNL1        0.1816
     24 O          -1.7437  -18.3307   18.5752 O.2     1  UNL1       -0.1686
     25 O          -0.8282  -18.6220   21.4172 O.2     1  UNL1       -0.1686
@<TRIPOS>UNITY_ATOM_ATTR
13 1
charge -1
@<TRIPOS>BOND
     1     1     2    1
     2     2     3   ar
     3     3    11    1
     4    11    12    1
     5    12    13   ar
     6    12    14   ar
     7     3     4   ar
     8     4     5   ar
     9     5     6   ar
    10     6     7   ar
    11     7     8   ar
    12     8     9   ar
    13     9    10   ar
    14    10    15    1
    15    15    16    1
    16    16    17   ar
    17    17    18   ar
    18    18    19   ar
    19    19    22    1
    20    22    23    1
    21    22    24    2
    22    22    25    2
    23    19    20   ar
    24    20    21   ar
    25    10     2   ar
    26    21    16   ar
    27     9     4   ar
@<TRIPOS>MOLECULE
*****
 25 27 0 0 0
SMALL
GASTEIGER

@<TRIPOS>ATOM
      1 C          -7.6097  -16.9536   23.1743 C.3     1  UNL1        0.0497
      2 C          -6.5136  -17.7611   22.5445 C.ar    1  UNL1        0.0355
      3 C          -5.0528  -17.6725   22.8732 C.ar    1  UNL1       -0.0020
      4 C          -4.3223  -18.6556   22.0072 C.ar    1  UNL1        0.0317
      5 C          -2.8685  -19.0067   21.8937 C.ar    1  UNL1        0.0043
      6 C          -2.4240  -20.0542   20.9163 C.ar    1  UNL1        0.0208
      7 C          -3.4334  -20.7505   20.0525 C.ar    1  UNL1        0.1005
      8 N          -4.8873  -20.3993   20.1660 N.ar    1  UNL1       -0.2268
      9 C          -5.3317  -19.3519   21.1434 C.ar    1  UNL1        0.1435
     10 N          -6.6860  -18.7991   21.4754 N.ar    1  UNL1       -0.3125
     11 C          -4.4314  -16.7607   23.8894 C.3     1  UNL1        0.0692
     12 C          -4.7945  -15.3054   23.9128 C.2     1  UNL1        0.0548
     13 O          -5.3864  -14.6999   25.1509 O.co2   1  UNL1       -0.5488
     14 O          -4.5656  -14.4557   22.6980 O.co2   1  UNL1       -0.5488
     15 C          -7.9847  -19.2118   20.8485 C.3     1  UNL1        0.1338
     16 C          -9.2744  -18.9951   21.5829 C.ar    1  UNL1        0.0005
     17 C          -9.5516  -19.7485   22.8502 C.ar    1  UNL1       -0.0011
     18 C         -10.8414  -19.5319   23.5847 C.ar    1  UNL1        0.0181
     19 C         -11.8541  -18.5619   23.0520 C.ar    1  UNL1        0.1057
     20 C         -11.5769  -17.8086   21.7849 C.ar    1  UNL1        0.0181
     21 C         -10.2872  -18.0252   21.0503 C.ar    1  UNL1       -0.0011
     22 S         -13.1438  -18.3453   23.7866 S.O2    1  UNL1        0.0104
     23 C         -14.4336  -18.1287   24.5212 C.3     1  UNL1        0.1816
     24 O         -13.7809  -17.8503   22.5221 O.2     1  UNL1       -0.1686
     25 O         -12.5068  -18.8403   25.0512 O.2     1  UNL1       -0.1686
@<TRIPOS>UNITY_ATOM_ATTR
13 1
charge -1
@<TRIPOS>BOND
     1     1     2    1
     2     2     3   ar
     3     3    11    1
     4    11    12    1
     5    12    13   ar
     6    12    14   ar
     7     3     4   ar
     8     4     5   ar
     9     5     6   ar
    10     6     7   ar
    11     7     8   ar
    12     8     9   ar
    13     9    10   ar
    14    10    15    1
    15    15    16    1
    16    16    17   ar
    17    17    18   ar
    18    18    19   ar
    19    19    22    1
    20    22    23    1
    21    22    24    2
    22    22    25    2
    23    19    20   ar
    24    20    21   ar
    25    10     2   ar
    26    21    16   ar
    27     9     4   ar
@<TRIPOS>MOLECULE
*****
 25 27 0 0 0
SMALL
GASTEIGER

@<TRIPOS>ATOM
      1 C          -3.8484  -17.2879   23.6388 C.3     1  UNL1        0.0497
      2 C          -4.7195  -18.0564   22.6898 C.ar    1  UNL1        0.0355
      3 C          -4.2662  -19.1421   21.7594 C.ar    1  UNL1       -0.0020
      4 C          -5.4633  -19.6309   20.9991 C.ar    1  UNL1        0.0317
      5 C          -5.6211  -20.6883   19.9470 C.ar    1  UNL1        0.0043
      6 C          -6.9720  -20.9620   19.3554 C.ar    1  UNL1        0.0208
      7 C          -8.1652  -20.1783   19.8160 C.ar    1  UNL1        0.1005
      8 N          -8.0075  -19.1209   20.8681 N.ar    1  UNL1       -0.2268
      9 C          -6.6565  -18.8472   21.4597 C.ar    1  UNL1        0.1435
     10 N          -6.1968  -17.8741   22.5046 N.ar    1  UNL1       -0.3125
     11 C          -2.8622  -19.6500   21.6146 C.3     1  UNL1        0.0692
     12 C          -1.9567  -19.0647   20.5717 C.2     1  UNL1        0.0548
     13 O          -2.4225  -18.9550   19.1501 O.co2   1  UNL1       -0.5488
     14 O          -0.5854  -18.5891   20.9505 O.co2   1  UNL1       -0.5488
     15 C          -7.0624  -16.8913   23.2358 C.3     1  UNL1        0.1338
     16 C          -8.5298  -17.1579   23.3956 C.ar    1  UNL1        0.0005
     17 C          -9.0003  -18.2182   24.3467 C.ar    1  UNL1       -0.0011
     18 C         -10.4677  -18.4849   24.5066 C.ar    1  UNL1        0.0181
     19 C         -11.4647  -17.6912   23.7153 C.ar    1  UNL1        0.1057
     20 C         -10.9943  -16.6309   22.7643 C.ar    1  UNL1        0.0181
     21 C          -9.5269  -16.3643   22.6044 C.ar    1  UNL1       -0.0011
     22 S         -12.9321  -17.9578   23.8751 S.O2    1  UNL1        0.0104
     23 C         -14.3996  -18.2245   24.0350 C.3     1  UNL1        0.1816
     24 O         -13.2216  -17.0673   22.7033 O.2     1  UNL1       -0.1686
     25 O         -12.6427  -18.8484   25.0470 O.2     1  UNL1       -0.1686
@<TRIPOS>UNITY_ATOM_ATTR
13 1
charge -1
@<TRIPOS>BOND
     1     1     2    1
     2     2     3   ar
     3     3    11    1
     4    11    12    1
     5    12    13   ar
     6    12    14   ar
     7     3     4   ar
     8     4     5   ar
     9     5     6   ar
    10     6     7   ar
    11     7     8   ar
    12     8     9   ar
    13     9    10   ar
    14    10    15    1
    15    15    16    1
    16    16    17   ar
    17    17    18   ar
    18    18    19   ar
    19    19    22    1
    20    22    23    1
    21    22    24    2
    22    22    25    2
    23    19    20   ar
    24    20    21   ar
    25    10     2   ar
    26    21    16   ar
    27     9     4   ar
