@<TRIPOS>MOLECULE
*****
 27 29 0 0 0
SMALL
GASTEIGER

@<TRIPOS>ATOM
      1 N          -8.2073  -17.1697   22.7300 N.pl3   1  UNL1       -0.3034
      2 C          -4.2431  -20.1234   20.8750 C.2     1  UNL1        0.4050
      3 O          -4.0236  -21.1467   19.8004 O.2     1  UNL1       -0.2262
      4 N          -5.5992  -19.5100   21.0607 N.am    1  UNL1       -0.2443
      5 C          -6.8248  -19.8189   20.2528 C.3     1  UNL1        0.0986
      6 C          -7.9510  -18.9797   20.7798 C.3     1  UNL1        0.0431
      7 C          -7.4214  -18.1524   21.9134 C.3     1  UNL1        0.0947
      8 C          -5.9680  -18.4801   22.0870 C.3     1  UNL1        0.1164
      9 C          -2.0538  -18.7760   21.2512 C.3     1  UNL1        0.2573
     10 O          -3.1063  -19.7136   21.7638 O.3     1  UNL1       -0.4304
     11 C          -9.6265  -17.4745   23.1084 C.ar    1  UNL1        0.0490
     12 C          -9.9272  -18.6153   24.0347 C.ar    1  UNL1        0.0153
     13 C         -11.3464  -18.9200   24.4131 C.ar    1  UNL1        0.0124
     14 C         -12.4647  -18.0839   23.8653 C.ar    1  UNL1        0.0791
     15 C         -12.1640  -16.9430   22.9390 C.ar    1  UNL1        0.0685
     16 CL        -13.2823  -16.1069   22.3911 Cl      1  UNL1       -0.0815
     17 C         -10.7449  -16.6383   22.5605 C.ar    1  UNL1        0.0266
     18 C         -13.8839  -18.3886   24.2437 C.1     1  UNL1        0.1013
     19 N         -15.3030  -18.6933   24.6222 N.1     1  UNL1       -0.1908
     20 C          -7.5742  -15.8825   23.1681 C.3     1  UNL1        0.1199
     21 C          -7.2917  -15.6421   24.6215 C.ar    1  UNL1        0.0251
     22 C          -8.4233  -15.5689   25.6034 C.ar    1  UNL1       -0.0004
     23 C          -8.1408  -15.3286   27.0568 C.ar    1  UNL1       -0.0001
     24 C          -6.7267  -15.1614   27.5283 C.ar    1  UNL1        0.0023
     25 C          -5.5950  -15.2346   26.5464 C.ar    1  UNL1        0.0294
     26 C          -5.8775  -15.4750   25.0930 C.ar    1  UNL1        0.1377
     27 F          -4.7459  -15.5481   24.1111 F       1  UNL1       -0.2044
@<TRIPOS>BOND
     1     9    10    1
     2    10     2    1
     3     2     3    2
     4     2     4   am
     5     4     5    1
     6     5     6    1
     7     6     7    1
     8     7     1    1
     9     1    20    1
    10    20    21    1
    11    21    22   ar
    12    22    23   ar
    13    23    24   ar
    14    24    25   ar
    15    25    26   ar
    16    26    27    1
    17     1    11    1
    18    11    12   ar
    19    12    13   ar
    20    13    14   ar
    21    14    18    1
    22    18    19    3
    23    14    15   ar
    24    15    16    1
    25    15    17   ar
    26     7     8    1
    27     8     4    1
    28    26    21   ar
    29    17    11   ar
@<TRIPOS>MOLECULE
*****
 27 29 0 0 0
SMALL
GASTEIGER

@<TRIPOS>ATOM
      1 N          -7.9436  -18.8537   21.6723 N.pl3   1  UNL1       -0.3034
      2 C          -2.7155  -19.5636   21.4648 C.2     1  UNL1        0.4050
      3 O          -1.7389  -20.4564   20.7583 O.2     1  UNL1       -0.2262
      4 N          -4.1867  -19.7149   21.2148 N.am    1  UNL1       -0.2443
      5 C          -4.8264  -20.7086   20.2910 C.3     1  UNL1        0.0986
      6 C          -6.3117  -20.5069   20.3499 C.3     1  UNL1        0.0431
      7 C          -6.5898  -19.3886   21.3102 C.3     1  UNL1        0.0947
      8 C          -5.2765  -18.8991   21.8447 C.3     1  UNL1        0.1164
      9 C          -2.1432  -17.0847   21.9913 C.3     1  UNL1        0.2573
     10 O          -2.2207  -18.5195   22.4214 O.3     1  UNL1       -0.4304
     11 C          -8.1147  -18.0196   22.9072 C.ar    1  UNL1        0.0490
     12 C          -9.1095  -18.4249   23.9541 C.ar    1  UNL1        0.0153
     13 C          -9.2805  -17.5908   25.1891 C.ar    1  UNL1        0.0124
     14 C          -8.4569  -16.3514   25.3771 C.ar    1  UNL1        0.0791
     15 C          -7.4620  -15.9460   24.3301 C.ar    1  UNL1        0.0685
     16 CL         -6.6383  -14.7066   24.5181 Cl      1  UNL1       -0.0815
     17 C          -7.2909  -16.7801   23.0952 C.ar    1  UNL1        0.0266
     18 C          -8.6279  -15.5173   26.6120 C.1     1  UNL1        0.1013
     19 N          -8.7990  -14.6832   27.8469 N.1     1  UNL1       -0.1908
     20 C          -9.1263  -19.1528   20.7995 C.3     1  UNL1        0.1199
     21 C         -10.3530  -18.2932   20.8782 C.ar    1  UNL1        0.0251
     22 C         -10.3891  -16.9713   20.1703 C.ar    1  UNL1       -0.0004
     23 C         -11.6159  -16.1117   20.2489 C.ar    1  UNL1       -0.0001
     24 C         -12.8065  -16.5740   21.0355 C.ar    1  UNL1        0.0023
     25 C         -12.7704  -17.8960   21.7434 C.ar    1  UNL1        0.0294
     26 C         -11.5436  -18.7556   21.6648 C.ar    1  UNL1        0.1377
     27 F         -11.5075  -20.0775   22.3727 F       1  UNL1       -0.2044
@<TRIPOS>BOND
     1     9    10    1
     2    10     2    1
     3     2     3    2
     4     2     4   am
     5     4     5    1
     6     5     6    1
     7     6     7    1
     8     7     1    1
     9     1    20    1
    10    20    21    1
    11    21    22   ar
    12    22    23   ar
    13    23    24   ar
    14    24    25   ar
    15    25    26   ar
    16    26    27    1
    17     1    11    1
    18    11    12   ar
    19    12    13   ar
    20    13    14   ar
    21    14    18    1
    22    18    19    3
    23    14    15   ar
    24    15    16    1
    25    15    17   ar
    26     7     8    1
    27     8     4    1
    28    26    21   ar
    29    17    11   ar
@<TRIPOS>MOLECULE
*****
 27 29 0 0 0
SMALL
GASTEIGER

@<TRIPOS>ATOM
      1 N          -7.8708  -18.4964   21.7342 N.pl3   1  UNL1       -0.3034
      2 C          -2.6992  -19.5512   21.5874 C.2     1  UNL1        0.4050
      3 O          -1.7807  -20.5364   20.9273 O.2     1  UNL1       -0.2262
      4 N          -4.1764  -19.6184   21.3365 N.am    1  UNL1       -0.2443
      5 C          -4.8769  -20.6097   20.4552 C.3     1  UNL1        0.0986
      6 C          -6.3461  -20.3100   20.4969 C.3     1  UNL1        0.0431
      7 C          -6.5536  -19.1335   21.4040 C.3     1  UNL1        0.0947
      8 C          -5.2127  -18.7061   21.9229 C.3     1  UNL1        0.1164
      9 C          -2.1180  -17.0638   22.0622 C.3     1  UNL1        0.2573
     10 O          -2.1402  -18.4987   22.4984 O.3     1  UNL1       -0.4304
     11 C          -8.0302  -17.7203   23.0079 C.ar    1  UNL1        0.0490
     12 C          -9.1201  -18.0796   23.9737 C.ar    1  UNL1        0.0153
     13 C          -9.2795  -17.3035   25.2474 C.ar    1  UNL1        0.0124
     14 C          -8.3490  -16.1680   25.5552 C.ar    1  UNL1        0.0791
     15 C          -7.2589  -15.8087   24.5893 C.ar    1  UNL1        0.0685
     16 CL         -6.3284  -14.6732   24.8972 Cl      1  UNL1       -0.0815
     17 C          -7.0996  -16.5848   23.3157 C.ar    1  UNL1        0.0266
     18 C          -8.5083  -15.3919   26.8289 C.1     1  UNL1        0.1013
     19 N          -8.6677  -14.6158   28.1026 N.1     1  UNL1       -0.1908
     20 C          -9.0286  -18.6353   20.7907 C.3     1  UNL1        0.1199
     21 C         -10.3572  -18.0330   21.1400 C.ar    1  UNL1        0.0251
     22 C         -11.5405  -18.9202   21.3902 C.ar    1  UNL1       -0.0004
     23 C         -12.8691  -18.3178   21.7395 C.ar    1  UNL1       -0.0001
     24 C         -13.0144  -16.8282   21.8385 C.ar    1  UNL1        0.0023
     25 C         -11.8311  -15.9409   21.5883 C.ar    1  UNL1        0.0294
     26 C         -10.5025  -16.5432   21.2390 C.ar    1  UNL1        0.1377
     27 F          -9.3193  -15.6560   20.9888 F       1  UNL1       -0.2044
@<TRIPOS>BOND
     1     9    10    1
     2    10     2    1
     3     2     3    2
     4     2     4   am
     5     4     5    1
     6     5     6    1
     7     6     7    1
     8     7     1    1
     9     1    20    1
    10    20    21    1
    11    21    22   ar
    12    22    23   ar
    13    23    24   ar
    14    24    25   ar
    15    25    26   ar
    16    26    27    1
    17     1    11    1
    18    11    12   ar
    19    12    13   ar
    20    13    14   ar
    21    14    18    1
    22    18    19    3
    23    14    15   ar
    24    15    16    1
    25    15    17   ar
    26     7     8    1
    27     8     4    1
    28    26    21   ar
    29    17    11   ar
@<TRIPOS>MOLECULE
*****
 27 29 0 0 0
SMALL
GASTEIGER

@<TRIPOS>ATOM
      1 N         -13.9437   -4.4795   18.8371 N.pl3   1  UNL1       -0.3034
      2 C         -16.3938    0.1824   18.4583 C.2     1  UNL1        0.4050
      3 O         -17.2221    0.9281   17.4544 O.2     1  UNL1       -0.2262
      4 N         -15.8756   -1.1872   18.1339 N.am    1  UNL1       -0.2443
      5 C         -16.1027   -1.9356   16.8539 C.3     1  UNL1        0.0986
      6 C         -15.4066   -3.2600   16.9615 C.3     1  UNL1        0.0431
      7 C         -14.7494   -3.3301   18.3081 C.3     1  UNL1        0.0947
      8 C         -15.0392   -2.0491   19.0326 C.3     1  UNL1        0.1164
      9 C         -17.1009    0.7698   20.8883 C.3     1  UNL1        0.2573
     10 O         -16.0838    0.8067   19.7865 O.3     1  UNL1       -0.4304
     11 C         -14.5213   -5.8639   18.8354 C.ar    1  UNL1        0.0490
     12 C         -13.7440   -7.0001   18.2399 C.ar    1  UNL1        0.0153
     13 C         -14.3216   -8.3845   18.2382 C.ar    1  UNL1        0.0124
     14 C         -15.6765   -8.6326   18.8321 C.ar    1  UNL1        0.0791
     15 C         -16.4538   -7.4963   19.4277 C.ar    1  UNL1        0.0685
     16 CL        -17.8087   -7.7444   20.0216 Cl      1  UNL1       -0.0815
     17 C         -15.8763   -6.1119   19.4294 C.ar    1  UNL1        0.0266
     18 C         -16.2540  -10.0169   18.8304 C.1     1  UNL1        0.1013
     19 N         -16.8316  -11.4012   18.8288 N.1     1  UNL1       -0.1908
     20 C         -12.5606   -4.2446   19.3678 C.3     1  UNL1        0.1199
     21 C         -11.4031   -4.1311   18.4205 C.ar    1  UNL1        0.0251
     22 C         -11.2330   -2.8944   17.5889 C.ar    1  UNL1       -0.0004
     23 C         -10.0755   -2.7809   16.6417 C.ar    1  UNL1       -0.0001
     24 C          -9.0880   -3.9041   16.5261 C.ar    1  UNL1        0.0023
     25 C          -9.2581   -5.1408   17.3577 C.ar    1  UNL1        0.0294
     26 C         -10.4156   -5.2543   18.3050 C.ar    1  UNL1        0.1377
     27 F         -10.5857   -6.4910   19.1366 F       1  UNL1       -0.2044
@<TRIPOS>BOND
     1     9    10    1
     2    10     2    1
     3     2     3    2
     4     2     4   am
     5     4     5    1
     6     5     6    1
     7     6     7    1
     8     7     1    1
     9     1    20    1
    10    20    21    1
    11    21    22   ar
    12    22    23   ar
    13    23    24   ar
    14    24    25   ar
    15    25    26   ar
    16    26    27    1
    17     1    11    1
    18    11    12   ar
    19    12    13   ar
    20    13    14   ar
    21    14    18    1
    22    18    19    3
    23    14    15   ar
    24    15    16    1
    25    15    17   ar
    26     7     8    1
    27     8     4    1
    28    26    21   ar
    29    17    11   ar
@<TRIPOS>MOLECULE
*****
 27 29 0 0 0
SMALL
GASTEIGER

@<TRIPOS>ATOM
      1 N         -14.7230   -5.1043   19.1082 N.pl3   1  UNL1       -0.3034
      2 C         -16.1215   -0.0163   19.3003 C.2     1  UNL1        0.4050
      3 O         -16.1690    1.1625   18.3739 O.2     1  UNL1       -0.2262
      4 N         -15.6293   -1.3426   18.8018 N.am    1  UNL1       -0.2443
      5 C         -15.1544   -1.6405   17.4105 C.3     1  UNL1        0.0986
      6 C         -14.7571   -3.0860   17.3559 C.3     1  UNL1        0.0431
      7 C         -14.9864   -3.6812   18.7136 C.3     1  UNL1        0.0947
      8 C         -15.5255   -2.6038   19.6071 C.3     1  UNL1        0.1164
      9 C         -17.6776    1.0779   21.0698 C.3     1  UNL1        0.2573
     10 O         -16.5663    0.1314   20.7252 O.3     1  UNL1       -0.4304
     11 C         -15.6789   -6.1853   18.6989 C.ar    1  UNL1        0.0490
     12 C         -15.3920   -7.0206   17.4865 C.ar    1  UNL1        0.0153
     13 C         -16.3479   -8.1017   17.0772 C.ar    1  UNL1        0.0124
     14 C         -17.5907   -8.3475   17.8803 C.ar    1  UNL1        0.0791
     15 C         -17.8776   -7.5122   19.0928 C.ar    1  UNL1        0.0685
     16 CL        -19.1204   -7.7580   19.8959 Cl      1  UNL1       -0.0815
     17 C         -16.9217   -6.4311   19.5021 C.ar    1  UNL1        0.0266
     18 C         -18.5466   -9.4286   17.4710 C.1     1  UNL1        0.1013
     19 N         -19.5025  -10.5096   17.0617 N.1     1  UNL1       -0.1908
     20 C         -13.5037   -5.4461   19.9122 C.3     1  UNL1        0.1199
     21 C         -12.1641   -5.5333   19.2428 C.ar    1  UNL1        0.0251
     22 C         -11.6355   -6.8630   18.7931 C.ar    1  UNL1       -0.0004
     23 C         -10.2960   -6.9502   18.1237 C.ar    1  UNL1       -0.0001
     24 C          -9.4850   -5.7076   17.9041 C.ar    1  UNL1        0.0023
     25 C         -10.0136   -4.3777   18.3538 C.ar    1  UNL1        0.0294
     26 C         -11.3532   -4.2906   19.0232 C.ar    1  UNL1        0.1377
     27 F         -11.8818   -2.9608   19.4729 F       1  UNL1       -0.2044
@<TRIPOS>BOND
     1     9    10    1
     2    10     2    1
     3     2     3    2
     4     2     4   am
     5     4     5    1
     6     5     6    1
     7     6     7    1
     8     7     1    1
     9     1    20    1
    10    20    21    1
    11    21    22   ar
    12    22    23   ar
    13    23    24   ar
    14    24    25   ar
    15    25    26   ar
    16    26    27    1
    17     1    11    1
    18    11    12   ar
    19    12    13   ar
    20    13    14   ar
    21    14    18    1
    22    18    19    3
    23    14    15   ar
    24    15    16    1
    25    15    17   ar
    26     7     8    1
    27     8     4    1
    28    26    21   ar
    29    17    11   ar
@<TRIPOS>MOLECULE
*****
 27 29 0 0 0
SMALL
GASTEIGER

@<TRIPOS>ATOM
      1 N         -14.0389   -5.7869   17.7107 N.pl3   1  UNL1       -0.3034
      2 C         -18.0003   -9.1790   18.5364 C.2     1  UNL1        0.4050
      3 O         -18.2328  -10.6593   18.4684 O.2     1  UNL1       -0.2262
      4 N         -16.6512   -8.6155   18.2014 N.am    1  UNL1       -0.2443
      5 C         -15.4451   -9.4040   17.7845 C.3     1  UNL1        0.0986
      6 C         -14.3197   -8.4403   17.5499 C.3     1  UNL1        0.0431
      7 C         -14.8304   -7.0563   17.8219 C.3     1  UNL1        0.0947
      8 C         -16.2713   -7.1646   18.2245 C.3     1  UNL1        0.1164
      9 C         -19.4533   -8.0822   20.3900 C.3     1  UNL1        0.2573
     10 O         -19.1171   -8.2622   18.9394 O.3     1  UNL1       -0.4304
     11 C         -14.5767   -4.5143   18.2948 C.ar    1  UNL1        0.0490
     12 C         -14.3043   -4.1740   19.7300 C.ar    1  UNL1        0.0153
     13 C         -14.8420   -2.9013   20.3142 C.ar    1  UNL1        0.0124
     14 C         -15.6521   -1.9690   19.4631 C.ar    1  UNL1        0.0791
     15 C         -15.9245   -2.3092   18.0277 C.ar    1  UNL1        0.0685
     16 CL        -16.7345   -1.3768   17.1766 Cl      1  UNL1       -0.0815
     17 C         -15.3867   -3.5819   17.4436 C.ar    1  UNL1        0.0266
     18 C         -16.1898   -0.6963   20.0472 C.1     1  UNL1        0.1013
     19 N         -16.7275    0.5764   20.6314 N.1     1  UNL1       -0.1908
     20 C         -12.7099   -5.7902   17.0153 C.3     1  UNL1        0.1199
     21 C         -11.4548   -6.0406   17.7976 C.ar    1  UNL1        0.0251
     22 C         -10.8684   -7.4201   17.8534 C.ar    1  UNL1       -0.0004
     23 C          -9.6133   -7.6706   18.6357 C.ar    1  UNL1       -0.0001
     24 C          -8.9446   -6.5415   19.3622 C.ar    1  UNL1        0.0023
     25 C          -9.5309   -5.1619   19.3065 C.ar    1  UNL1        0.0294
     26 C         -10.7860   -4.9115   18.5242 C.ar    1  UNL1        0.1377
     27 F         -11.3723   -3.5320   18.4684 F       1  UNL1       -0.2044
@<TRIPOS>BOND
     1     9    10    1
     2    10     2    1
     3     2     3    2
     4     2     4   am
     5     4     5    1
     6     5     6    1
     7     6     7    1
     8     7     1    1
     9     1    20    1
    10    20    21    1
    11    21    22   ar
    12    22    23   ar
    13    23    24   ar
    14    24    25   ar
    15    25    26   ar
    16    26    27    1
    17     1    11    1
    18    11    12   ar
    19    12    13   ar
    20    13    14   ar
    21    14    18    1
    22    18    19    3
    23    14    15   ar
    24    15    16    1
    25    15    17   ar
    26     7     8    1
    27     8     4    1
    28    26    21   ar
    29    17    11   ar
@<TRIPOS>MOLECULE
*****
 27 29 0 0 0
SMALL
GASTEIGER

@<TRIPOS>ATOM
      1 N          -8.1867  -17.0957   22.9286 N.pl3   1  UNL1       -0.3034
      2 C          -6.5300  -20.9562   19.7298 C.2     1  UNL1        0.4050
      3 O          -5.2706  -21.7309   19.4770 O.2     1  UNL1       -0.2262
      4 N          -6.5575  -19.8947   20.7891 N.am    1  UNL1       -0.2443
      5 C          -5.4101  -19.4985   21.6704 C.3     1  UNL1        0.0986
      6 C          -5.8808  -18.4018   22.5792 C.3     1  UNL1        0.0431
      7 C          -7.3190  -18.1202   22.2594 C.3     1  UNL1        0.0947
      8 C          -7.7372  -19.0428   21.1532 C.3     1  UNL1        0.1164
      9 C          -8.8610  -20.2258   18.8451 C.3     1  UNL1        0.2573
     10 O          -7.7617  -21.2432   18.9232 O.3     1  UNL1       -0.4304
     11 C          -9.6253  -17.4058   23.2192 C.ar    1  UNL1        0.0490
     12 C          -9.9789  -18.5642   24.1040 C.ar    1  UNL1        0.0153
     13 C         -11.4174  -18.8743   24.3946 C.ar    1  UNL1        0.0124
     14 C         -12.5024  -18.0260   23.8003 C.ar    1  UNL1        0.0791
     15 C         -12.1488  -16.8675   22.9154 C.ar    1  UNL1        0.0685
     16 CL        -13.2337  -16.0192   22.3212 Cl      1  UNL1       -0.0815
     17 C         -10.7102  -16.5574   22.6249 C.ar    1  UNL1        0.0266
     18 C         -13.9409  -18.3360   24.0909 C.1     1  UNL1        0.1013
     19 N         -15.3795  -18.6461   24.3815 N.1     1  UNL1       -0.1908
     20 C          -7.6158  -15.7613   23.3071 C.3     1  UNL1        0.1199
     21 C          -7.1958  -15.4996   24.7232 C.ar    1  UNL1        0.0251
     22 C          -5.7393  -15.4701   25.0801 C.ar    1  UNL1       -0.0004
     23 C          -5.3193  -15.2084   26.4962 C.ar    1  UNL1       -0.0001
     24 C          -6.3558  -14.9763   27.5552 C.ar    1  UNL1        0.0023
     25 C          -7.8125  -15.0058   27.1982 C.ar    1  UNL1        0.0294
     26 C          -8.2325  -15.2675   25.7822 C.ar    1  UNL1        0.1377
     27 F          -9.6891  -15.2971   25.4252 F       1  UNL1       -0.2044
@<TRIPOS>BOND
     1     9    10    1
     2    10     2    1
     3     2     3    2
     4     2     4   am
     5     4     5    1
     6     5     6    1
     7     6     7    1
     8     7     1    1
     9     1    20    1
    10    20    21    1
    11    21    22   ar
    12    22    23   ar
    13    23    24   ar
    14    24    25   ar
    15    25    26   ar
    16    26    27    1
    17     1    11    1
    18    11    12   ar
    19    12    13   ar
    20    13    14   ar
    21    14    18    1
    22    18    19    3
    23    14    15   ar
    24    15    16    1
    25    15    17   ar
    26     7     8    1
    27     8     4    1
    28    26    21   ar
    29    17    11   ar
