@<TRIPOS>MOLECULE
*****
 33 35 0 0 0
SMALL
GASTEIGER

@<TRIPOS>ATOM
      1 C          -5.8265  -20.7640   20.5391 C.2     1  UNL1        0.2015
      2 O          -5.7862  -22.2091   20.1392 O.2     1  UNL1       -0.2864
      3 C          -4.6012  -19.9111   20.3937 C.ar    1  UNL1        0.0612
      4 C          -3.5505  -20.0508   19.3323 C.ar    1  UNL1        0.1037
      5 N          -2.5114  -18.9947   19.5669 N.ar    1  UNL1       -0.2269
      6 C          -2.9198  -18.2024   20.7733 C.ar    1  UNL1        0.1407
      7 N          -2.2825  -17.0384   21.4725 N.ar    1  UNL1       -0.3369
      8 C          -2.9368  -16.4407   22.6827 C.ar    1  UNL1        0.0818
      9 C          -4.2284  -17.0071   23.1937 C.ar    1  UNL1        0.0588
     10 C          -4.8656  -18.1711   22.4945 C.ar    1  UNL1        0.0129
     11 C          -4.2114  -18.7687   21.2843 C.ar    1  UNL1        0.0392
     12 H          -1.4349  -16.6667   21.1371 H       1  UNL1        0.1674
     13 C          -4.8826  -16.4094   24.4040 C.1     1  UNL1       -0.0604
     14 C          -5.5368  -15.8116   25.6143 C.1     1  UNL1       -0.0539
     15 C          -6.1911  -15.2139   26.8246 C.3     1  UNL1        0.2182
     16 O          -7.6841  -15.2490   26.9644 O.3     1  UNL1       -0.3374
     17 C          -8.5405  -15.5866   25.7801 C.3     1  UNL1        0.1755
     18 C          -9.2047  -18.6934   20.7649 C.ar    1  UNL1        0.0920
     19 C          -9.6235  -18.9872   22.1749 C.ar    1  UNL1        0.0204
     20 C          -8.7767  -19.8733   23.0397 C.ar    1  UNL1        0.0312
     21 C          -7.5111  -20.4656   22.4945 C.ar    1  UNL1        0.1454
     22 F          -6.6643  -21.3516   23.3592 F       1  UNL1       -0.2040
     23 C          -7.0922  -20.1717   21.0844 C.ar    1  UNL1        0.0951
     24 C          -7.9390  -19.2856   20.2197 C.ar    1  UNL1        0.1598
     25 F          -7.5201  -18.9918   18.8096 F       1  UNL1       -0.2026
     26 N         -10.0514  -17.8073   19.9001 N.pl3   1  UNL1       -0.2166
     27 H          -9.8635  -17.7349   18.9364 H       1  UNL1        0.1734
     28 S         -11.1845  -17.0315   20.5037 S.O2    1  UNL1        0.0540
     29 O         -10.2451  -15.9059   20.8205 O.2     1  UNL1       -0.1545
     30 O         -12.1240  -18.1572   20.1869 O.2     1  UNL1       -0.1545
     31 C         -12.3176  -16.2558   21.1072 C.3     1  UNL1        0.1724
     32 C         -13.0447  -17.4649   23.2889 C.3     1  UNL1        0.0019
     33 C         -12.5120  -16.2466   22.5946 C.3     1  UNL1        0.0273
@<TRIPOS>BOND
     1    32    33    1
     2    33    31    1
     3    31    28    1
     4    28    29    2
     5    28    30    2
     6    28    26    1
     7    26    18    1
     8    18    19   ar
     9    19    20   ar
    10    20    21   ar
    11    21    22    1
    12    21    23   ar
    13    23     1    1
    14     1     2    2
    15     1     3    1
    16     3     4   ar
    17     4     5   ar
    18     5     6   ar
    19     6     7   ar
    20     7     8   ar
    21     8     9   ar
    22     9    13    1
    23    13    14    3
    24    14    15    1
    25    15    16    1
    26    16    17    1
    27     9    10   ar
    28    10    11   ar
    29    23    24   ar
    30    24    25    1
    31    24    18   ar
    32    11     3   ar
    33    11     6    1
    34    26    27    1
    35     7    12    1
@<TRIPOS>MOLECULE
*****
 33 35 0 0 0
SMALL
GASTEIGER

@<TRIPOS>ATOM
      1 C          -4.6775  -15.8065   23.4801 C.2     1  UNL1        0.2015
      2 O          -4.0646  -14.5311   22.9825 O.2     1  UNL1       -0.2864
      3 C          -4.1568  -17.1275   22.9966 C.ar    1  UNL1        0.0612
      4 C          -2.7736  -17.6642   23.2175 C.ar    1  UNL1        0.1037
      5 N          -2.6898  -19.0122   22.5648 N.ar    1  UNL1       -0.2269
      6 C          -4.0212  -19.3085   21.9404 C.ar    1  UNL1        0.1407
      7 N          -4.5250  -20.4884   21.1634 N.ar    1  UNL1       -0.3369
      8 C          -5.9355  -20.5036   20.6533 C.ar    1  UNL1        0.0818
      9 C          -6.8421  -19.3387   20.9202 C.ar    1  UNL1        0.0588
     10 C          -6.3383  -18.1588   21.6972 C.ar    1  UNL1        0.0129
     11 C          -4.9278  -18.1437   22.2074 C.ar    1  UNL1        0.0392
     12 H          -3.9300  -21.2529   20.9883 H       1  UNL1        0.1674
     13 C          -8.2527  -19.3539   20.4101 C.1     1  UNL1       -0.0604
     14 C          -9.6632  -19.3691   19.9000 C.1     1  UNL1       -0.0539
     15 C         -11.0737  -19.3843   19.3898 C.3     1  UNL1        0.2182
     16 O         -11.8649  -18.1112   19.3342 O.3     1  UNL1       -0.3374
     17 C         -11.1877  -16.7960   19.5821 C.3     1  UNL1        0.1755
     18 C          -8.3607  -15.6546   24.9503 C.ar    1  UNL1        0.0920
     19 C          -8.0787  -15.6696   26.4235 C.ar    1  UNL1        0.0204
     20 C          -6.6630  -15.7302   26.9155 C.ar    1  UNL1        0.0312
     21 C          -5.5293  -15.7758   25.9345 C.ar    1  UNL1        0.1454
     22 F          -4.1136  -15.8364   26.4265 F       1  UNL1       -0.2040
     23 C          -5.8113  -15.7608   24.4613 C.ar    1  UNL1        0.0951
     24 C          -7.2270  -15.7003   23.9693 C.ar    1  UNL1        0.1598
     25 F          -7.5089  -15.6853   22.4960 F       1  UNL1       -0.2026
     26 N          -9.7764  -15.5941   24.4583 N.pl3   1  UNL1       -0.2166
     27 H         -10.3059  -14.7734   24.5822 H       1  UNL1        0.1734
     28 S         -10.3853  -16.7839   23.7775 S.O2    1  UNL1        0.0540
     29 O         -10.9402  -15.8888   22.7094 O.2     1  UNL1       -0.1545
     30 O          -9.8305  -17.6790   24.8456 O.2     1  UNL1       -0.1545
     31 C         -10.9942  -17.9738   23.0968 C.3     1  UNL1        0.1724
     32 C         -13.4569  -18.0364   23.9225 C.3     1  UNL1        0.0019
     33 C         -12.4642  -17.9965   22.7987 C.3     1  UNL1        0.0273
@<TRIPOS>BOND
     1    32    33    1
     2    33    31    1
     3    31    28    1
     4    28    29    2
     5    28    30    2
     6    28    26    1
     7    26    18    1
     8    18    19   ar
     9    19    20   ar
    10    20    21   ar
    11    21    22    1
    12    21    23   ar
    13    23     1    1
    14     1     2    2
    15     1     3    1
    16     3     4   ar
    17     4     5   ar
    18     5     6   ar
    19     6     7   ar
    20     7     8   ar
    21     8     9   ar
    22     9    13    1
    23    13    14    3
    24    14    15    1
    25    15    16    1
    26    16    17    1
    27     9    10   ar
    28    10    11   ar
    29    23    24   ar
    30    24    25    1
    31    24    18   ar
    32    11     3   ar
    33    11     6    1
    34    26    27    1
    35     7    12    1
@<TRIPOS>MOLECULE
*****
 33 35 0 0 0
SMALL
GASTEIGER

@<TRIPOS>ATOM
      1 C          -6.3623  -19.9009   21.9718 C.2     1  UNL1        0.2015
      2 O          -6.4752  -21.1907   22.7290 O.2     1  UNL1       -0.2864
      3 C          -7.3077  -19.6075   20.8448 C.ar    1  UNL1        0.0612
      4 C          -6.9622  -19.5932   19.3852 C.ar    1  UNL1        0.1037
      5 N          -8.2056  -19.2537   18.6179 N.ar    1  UNL1       -0.2269
      6 C          -9.3196  -19.0583   19.6033 C.ar    1  UNL1        0.1407
      7 N         -10.7675  -18.7096   19.4251 N.ar    1  UNL1       -0.3369
      8 C         -11.6605  -18.5794   20.6232 C.ar    1  UNL1        0.0818
      9 C         -11.1055  -18.7981   21.9995 C.ar    1  UNL1        0.0588
     10 C          -9.6576  -19.1469   22.1777 C.ar    1  UNL1        0.0129
     11 C          -8.7646  -19.2770   20.9796 C.ar    1  UNL1        0.0392
     12 H         -11.1317  -18.5660   18.5218 H       1  UNL1        0.1674
     13 C         -11.9986  -18.6679   23.1977 C.1     1  UNL1       -0.0604
     14 C         -12.8917  -18.5378   24.3958 C.1     1  UNL1       -0.0539
     15 C         -13.7848  -18.4077   25.5940 C.3     1  UNL1        0.2182
     16 O         -15.2199  -18.8356   25.5097 O.3     1  UNL1       -0.3374
     17 C         -15.9559  -18.7396   24.2062 C.3     1  UNL1        0.1755
     18 C          -4.6249  -16.6332   23.4049 C.ar    1  UNL1        0.0920
     19 C          -3.1870  -16.9114   23.0810 C.ar    1  UNL1        0.0204
     20 C          -2.8075  -18.1861   22.3873 C.ar    1  UNL1        0.0312
     21 C          -3.8658  -19.1826   22.0176 C.ar    1  UNL1        0.1454
     22 F          -3.4863  -20.4573   21.3239 F       1  UNL1       -0.2040
     23 C          -5.3038  -18.9044   22.3415 C.ar    1  UNL1        0.0951
     24 C          -5.6833  -17.6297   23.0352 C.ar    1  UNL1        0.1598
     25 F          -7.1213  -17.3516   23.3591 F       1  UNL1       -0.2026
     26 N          -5.0044  -15.3585   24.0985 N.pl3   1  UNL1       -0.2166
     27 H          -4.7750  -14.4908   23.6940 H       1  UNL1        0.1734
     28 S          -5.7334  -15.4059   25.4086 S.O2    1  UNL1        0.0540
     29 O          -4.6179  -16.2155   26.0001 O.2     1  UNL1       -0.1545
     30 O          -6.8490  -14.5963   24.8171 O.2     1  UNL1       -0.1545
     31 C          -6.4625  -15.4532   26.7186 C.3     1  UNL1        0.1724
     32 C          -8.6165  -16.8793   26.9961 C.3     1  UNL1        0.0019
     33 C          -7.9589  -15.5555   26.7408 C.3     1  UNL1        0.0273
@<TRIPOS>BOND
     1    32    33    1
     2    33    31    1
     3    31    28    1
     4    28    29    2
     5    28    30    2
     6    28    26    1
     7    26    18    1
     8    18    19   ar
     9    19    20   ar
    10    20    21   ar
    11    21    22    1
    12    21    23   ar
    13    23     1    1
    14     1     2    2
    15     1     3    1
    16     3     4   ar
    17     4     5   ar
    18     5     6   ar
    19     6     7   ar
    20     7     8   ar
    21     8     9   ar
    22     9    13    1
    23    13    14    3
    24    14    15    1
    25    15    16    1
    26    16    17    1
    27     9    10   ar
    28    10    11   ar
    29    23    24   ar
    30    24    25    1
    31    24    18   ar
    32    11     3   ar
    33    11     6    1
    34    26    27    1
    35     7    12    1
@<TRIPOS>MOLECULE
*****
 33 35 0 0 0
SMALL
GASTEIGER

@<TRIPOS>ATOM
      1 C         -10.2769  -17.0959   21.7596 C.2     1  UNL1        0.2015
      2 O         -10.8261  -15.7899   21.2672 O.2     1  UNL1       -0.2864
      3 C         -10.0513  -18.2250   20.7983 C.ar    1  UNL1        0.0612
      4 C         -11.1002  -18.8892   19.9566 C.ar    1  UNL1        0.1037
      5 N         -10.4343  -19.9628   19.1479 N.ar    1  UNL1       -0.2269
      6 C          -8.9738  -19.9621   19.4898 C.ar    1  UNL1        0.1407
      7 N          -7.8289  -20.8007   19.0042 N.ar    1  UNL1       -0.3369
      8 C          -6.4472  -20.5652   19.5385 C.ar    1  UNL1        0.0818
      9 C          -6.2105  -19.4911   20.5585 C.ar    1  UNL1        0.0588
     10 C          -7.3554  -18.6525   21.0441 C.ar    1  UNL1        0.0129
     11 C          -8.7370  -18.8880   20.5098 C.ar    1  UNL1        0.0392
     12 H          -7.9842  -21.5056   18.3347 H       1  UNL1        0.1674
     13 C          -4.8287  -19.2556   21.0928 C.1     1  UNL1       -0.0604
     14 C          -3.4471  -19.0202   21.6271 C.1     1  UNL1       -0.0539
     15 C          -2.0653  -18.7848   22.1614 C.3     1  UNL1        0.2182
     16 O          -0.9100  -18.6402   21.2157 O.3     1  UNL1       -0.3374
     17 C          -1.1589  -18.3272   19.7701 C.3     1  UNL1        0.1755
     18 C          -8.8450  -16.3983   25.3947 C.ar    1  UNL1        0.0920
     19 C          -9.3060  -17.6267   26.1215 C.ar    1  UNL1        0.0204
     20 C         -10.0906  -18.6782   25.3944 C.ar    1  UNL1        0.0312
     21 C         -10.4143  -18.5013   23.9405 C.ar    1  UNL1        0.1454
     22 F         -11.1989  -19.5529   23.2134 F       1  UNL1       -0.2040
     23 C          -9.9533  -17.2729   23.2137 C.ar    1  UNL1        0.0951
     24 C          -9.1686  -16.2214   23.9408 C.ar    1  UNL1        0.1598
     25 F          -8.7076  -14.9929   23.2138 F       1  UNL1       -0.2026
     26 N          -8.0604  -15.3467   26.1218 N.pl3   1  UNL1       -0.2166
     27 H          -8.5294  -14.6417   26.6239 H       1  UNL1        0.1734
     28 S          -6.5610  -15.3694   26.0837 S.O2    1  UNL1        0.0540
     29 O          -6.5782  -14.4789   24.8768 O.2     1  UNL1       -0.1545
     30 O          -6.5439  -16.2599   27.2907 O.2     1  UNL1       -0.1545
     31 C          -5.0617  -15.3921   26.0458 C.3     1  UNL1        0.1724
     32 C          -4.7269  -16.6658   23.8062 C.3     1  UNL1        0.0019
     33 C          -4.3476  -16.4358   25.2391 C.3     1  UNL1        0.0273
@<TRIPOS>BOND
     1    32    33    1
     2    33    31    1
     3    31    28    1
     4    28    29    2
     5    28    30    2
     6    28    26    1
     7    26    18    1
     8    18    19   ar
     9    19    20   ar
    10    20    21   ar
    11    21    22    1
    12    21    23   ar
    13    23     1    1
    14     1     2    2
    15     1     3    1
    16     3     4   ar
    17     4     5   ar
    18     5     6   ar
    19     6     7   ar
    20     7     8   ar
    21     8     9   ar
    22     9    13    1
    23    13    14    3
    24    14    15    1
    25    15    16    1
    26    16    17    1
    27     9    10   ar
    28    10    11   ar
    29    23    24   ar
    30    24    25    1
    31    24    18   ar
    32    11     3   ar
    33    11     6    1
    34    26    27    1
    35     7    12    1
@<TRIPOS>MOLECULE
*****
 33 35 0 0 0
SMALL
GASTEIGER

@<TRIPOS>ATOM
      1 C          -6.5297  -19.7634   22.0446 C.2     1  UNL1        0.2015
      2 O          -6.5492  -21.0901   22.7439 O.2     1  UNL1       -0.2864
      3 C          -7.4783  -19.4977   20.9134 C.ar    1  UNL1        0.0612
      4 C          -7.1299  -19.4869   19.4545 C.ar    1  UNL1        0.1037
      5 N          -8.3782  -19.1786   18.6821 N.ar    1  UNL1       -0.2269
      6 C          -9.4982  -18.9989   19.6636 C.ar    1  UNL1        0.1407
      7 N         -10.9525  -18.6812   19.4798 N.ar    1  UNL1       -0.3369
      8 C         -11.8507  -18.5607   20.6750 C.ar    1  UNL1        0.0818
      9 C         -11.2946  -18.7579   22.0541 C.ar    1  UNL1        0.0588
     10 C          -9.8402  -19.0756   22.2379 C.ar    1  UNL1        0.0129
     11 C          -8.9420  -19.1961   21.0427 C.ar    1  UNL1        0.0392
     12 H         -11.3176  -18.5518   18.5747 H       1  UNL1        0.1674
     13 C         -12.1929  -18.6373   23.2494 C.1     1  UNL1       -0.0604
     14 C         -13.0912  -18.5168   24.4446 C.1     1  UNL1       -0.0539
     15 C         -13.9895  -18.3963   25.6398 C.3     1  UNL1        0.2182
     16 O         -15.4351  -18.7821   25.5336 O.3     1  UNL1       -0.3374
     17 C         -16.1151  -18.7815   24.1966 C.3     1  UNL1        0.1755
     18 C          -3.1331  -17.7861   22.5964 C.ar    1  UNL1        0.0920
     19 C          -3.6250  -16.5798   23.3400 C.ar    1  UNL1        0.0204
     20 C          -5.0850  -16.4347   23.6518 C.ar    1  UNL1        0.0312
     21 C          -6.0533  -17.4958   23.2200 C.ar    1  UNL1        0.1454
     22 F          -7.5133  -17.3507   23.5318 F       1  UNL1       -0.2040
     23 C          -5.5614  -18.7021   22.4764 C.ar    1  UNL1        0.0951
     24 C          -4.1014  -18.8472   22.1646 C.ar    1  UNL1        0.1598
     25 F          -3.6096  -20.0536   21.4210 F       1  UNL1       -0.2026
     26 N          -1.6731  -17.9312   22.2846 N.pl3   1  UNL1       -0.2166
     27 H          -1.0359  -18.1502   23.0024 H       1  UNL1        0.1734
     28 S          -1.1840  -17.7426   20.8792 S.O2    1  UNL1        0.0540
     29 O          -1.3049  -16.2558   21.0366 O.2     1  UNL1       -0.1545
     30 O          -1.0631  -19.2294   20.7218 O.2     1  UNL1       -0.1545
     31 C          -0.6949  -17.5541   19.4738 C.3     1  UNL1        0.1724
     32 C          -2.7372  -16.9570   17.9829 C.3     1  UNL1        0.0019
     33 C          -1.5959  -17.8711   18.3172 C.3     1  UNL1        0.0273
@<TRIPOS>BOND
     1    32    33    1
     2    33    31    1
     3    31    28    1
     4    28    29    2
     5    28    30    2
     6    28    26    1
     7    26    18    1
     8    18    19   ar
     9    19    20   ar
    10    20    21   ar
    11    21    22    1
    12    21    23   ar
    13    23     1    1
    14     1     2    2
    15     1     3    1
    16     3     4   ar
    17     4     5   ar
    18     5     6   ar
    19     6     7   ar
    20     7     8   ar
    21     8     9   ar
    22     9    13    1
    23    13    14    3
    24    14    15    1
    25    15    16    1
    26    16    17    1
    27     9    10   ar
    28    10    11   ar
    29    23    24   ar
    30    24    25    1
    31    24    18   ar
    32    11     3   ar
    33    11     6    1
    34    26    27    1
    35     7    12    1
@<TRIPOS>MOLECULE
*****
 33 35 0 0 0
SMALL
GASTEIGER

@<TRIPOS>ATOM
      1 C           4.6299   -3.6735   20.9051 C.2     1  UNL1        0.2015
      2 O           4.0983   -5.0430   20.6024 O.2     1  UNL1       -0.2864
      3 C           4.8651   -3.2576   22.3270 C.ar    1  UNL1        0.0612
      4 C           5.8297   -3.8936   23.2835 C.ar    1  UNL1        0.1037
      5 N           5.7378   -3.1617   24.5896 N.ar    1  UNL1       -0.2269
      6 C           4.7164   -2.0734   24.4403 C.ar    1  UNL1        0.1407
      7 N           4.2078   -1.0361   25.3970 N.ar    1  UNL1       -0.3369
      8 C           3.1599   -0.0580   24.9552 C.ar    1  UNL1        0.0818
      9 C           2.6205   -0.1173   23.5568 C.ar    1  UNL1        0.0588
     10 C           3.1291   -1.1546   22.6001 C.ar    1  UNL1        0.0129
     11 C           4.1771   -2.1326   23.0418 C.ar    1  UNL1        0.0392
     12 H           4.5618   -0.9972   26.3148 H       1  UNL1        0.1674
     13 C           1.5725    0.8608   23.1151 C.1     1  UNL1       -0.0604
     14 C           0.5246    1.8389   22.6734 C.1     1  UNL1       -0.0539
     15 C          -0.5235    2.8170   22.2317 C.3     1  UNL1        0.2182
     16 O          -1.3953    2.5008   21.0528 O.3     1  UNL1       -0.3374
     17 C          -2.5713    3.3754   20.7336 C.3     1  UNL1        0.1755
     18 C           4.1230   -0.9283   18.0841 C.ar    1  UNL1        0.0920
     19 C           5.5189   -0.8123   17.5475 C.ar    1  UNL1        0.0204
     20 C           6.6185   -1.6500   18.1300 C.ar    1  UNL1        0.0312
     21 C           6.3222   -2.6037   19.2492 C.ar    1  UNL1        0.1454
     22 F           7.4217   -3.4414   19.8317 F       1  UNL1       -0.2040
     23 C           4.9263   -2.7197   19.7858 C.ar    1  UNL1        0.0951
     24 C           3.8267   -1.8820   19.2033 C.ar    1  UNL1        0.1598
     25 F           2.4308   -1.9981   19.7400 F       1  UNL1       -0.2026
     26 N           3.0235   -0.0907   17.5016 N.pl3   1  UNL1       -0.2166
     27 H           2.7298   -0.2399   16.5738 H       1  UNL1        0.1734
     28 S           2.3715    0.9743   18.3326 S.O2    1  UNL1        0.0540
     29 O           1.0592    0.2560   18.2236 O.2     1  UNL1       -0.1545
     30 O           3.6838    1.6927   18.4416 O.2     1  UNL1       -0.1545
     31 C           1.7196    2.0394   19.1636 C.3     1  UNL1        0.1724
     32 C           0.0021    3.5539   17.9361 C.3     1  UNL1        0.0019
     33 C           1.3587    3.3575   18.5450 C.3     1  UNL1        0.0273
@<TRIPOS>BOND
     1    32    33    1
     2    33    31    1
     3    31    28    1
     4    28    29    2
     5    28    30    2
     6    28    26    1
     7    26    18    1
     8    18    19   ar
     9    19    20   ar
    10    20    21   ar
    11    21    22    1
    12    21    23   ar
    13    23     1    1
    14     1     2    2
    15     1     3    1
    16     3     4   ar
    17     4     5   ar
    18     5     6   ar
    19     6     7   ar
    20     7     8   ar
    21     8     9   ar
    22     9    13    1
    23    13    14    3
    24    14    15    1
    25    15    16    1
    26    16    17    1
    27     9    10   ar
    28    10    11   ar
    29    23    24   ar
    30    24    25    1
    31    24    18   ar
    32    11     3   ar
    33    11     6    1
    34    26    27    1
    35     7    12    1
@<TRIPOS>MOLECULE
*****
 33 35 0 0 0
SMALL
GASTEIGER

@<TRIPOS>ATOM
      1 C          -4.8662  -15.7284   23.4559 C.2     1  UNL1        0.2015
      2 O          -4.6568  -14.4137   22.7649 O.2     1  UNL1       -0.2864
      3 C          -4.0191  -16.9112   23.0905 C.ar    1  UNL1        0.0612
      4 C          -2.6214  -17.1754   23.5665 C.ar    1  UNL1        0.1037
      5 N          -2.1595  -18.4649   22.9551 N.ar    1  UNL1       -0.2269
      6 C          -3.2717  -18.9977   22.1012 C.ar    1  UNL1        0.1407
      7 N          -3.3864  -20.2331   21.2583 N.ar    1  UNL1       -0.3369
      8 C          -4.6504  -20.5083   20.4991 C.ar    1  UNL1        0.0818
      9 C          -5.7997  -19.5480   20.5828 C.ar    1  UNL1        0.0588
     10 C          -5.6850  -18.3126   21.4257 C.ar    1  UNL1        0.0129
     11 C          -4.4210  -18.0374   22.1849 C.ar    1  UNL1        0.0392
     12 H          -2.6321  -20.8633   21.2034 H       1  UNL1        0.1674
     13 C          -7.0638  -19.8233   19.8235 C.1     1  UNL1       -0.0604
     14 C          -8.3278  -20.0985   19.0643 C.1     1  UNL1       -0.0539
     15 C          -9.5919  -20.3738   18.3050 C.3     1  UNL1        0.2182
     16 O          -9.6608  -21.5360   17.3593 O.3     1  UNL1       -0.3374
     17 C          -9.0775  -21.4181   15.9824 C.3     1  UNL1        0.1755
     18 C          -8.3843  -16.3508   25.1839 C.ar    1  UNL1        0.0920
     19 C          -8.0361  -16.1244   26.6253 C.ar    1  UNL1        0.0204
     20 C          -6.6313  -15.7661   27.0102 C.ar    1  UNL1        0.0312
     21 C          -5.5747  -15.6341   25.9538 C.ar    1  UNL1        0.1454
     22 F          -4.1699  -15.2758   26.3387 F       1  UNL1       -0.2040
     23 C          -5.9229  -15.8604   24.5124 C.ar    1  UNL1        0.0951
     24 C          -7.3277  -16.2188   24.1275 C.ar    1  UNL1        0.1598
     25 F          -7.6758  -16.4451   22.6861 F       1  UNL1       -0.2026
     26 N          -9.7891  -16.7091   24.7990 N.pl3   1  UNL1       -0.2166
     27 H         -10.4937  -16.0216   24.8124 H       1  UNL1        0.1734
     28 S         -10.1203  -18.1148   24.3939 S.O2    1  UNL1        0.0540
     29 O          -9.6497  -18.6105   25.7291 O.2     1  UNL1       -0.1545
     30 O         -10.5909  -17.6191   23.0587 O.2     1  UNL1       -0.1545
     31 C         -10.4516  -19.5205   23.9886 C.3     1  UNL1        0.1724
     32 C         -11.1190  -20.1715   21.5635 C.3     1  UNL1        0.0019
     33 C         -10.0709  -20.0175   22.6255 C.3     1  UNL1        0.0273
@<TRIPOS>BOND
     1    32    33    1
     2    33    31    1
     3    31    28    1
     4    28    29    2
     5    28    30    2
     6    28    26    1
     7    26    18    1
     8    18    19   ar
     9    19    20   ar
    10    20    21   ar
    11    21    22    1
    12    21    23   ar
    13    23     1    1
    14     1     2    2
    15     1     3    1
    16     3     4   ar
    17     4     5   ar
    18     5     6   ar
    19     6     7   ar
    20     7     8   ar
    21     8     9   ar
    22     9    13    1
    23    13    14    3
    24    14    15    1
    25    15    16    1
    26    16    17    1
    27     9    10   ar
    28    10    11   ar
    29    23    24   ar
    30    24    25    1
    31    24    18   ar
    32    11     3   ar
    33    11     6    1
    34    26    27    1
    35     7    12    1
@<TRIPOS>MOLECULE
*****
 33 35 0 0 0
SMALL
GASTEIGER

@<TRIPOS>ATOM
      1 C          -4.4993  -15.5965   23.2300 C.2     1  UNL1        0.2015
      2 O          -4.2509  -14.3348   22.4578 O.2     1  UNL1       -0.2864
      3 C          -5.2566  -15.5472   24.5239 C.ar    1  UNL1        0.0612
      4 C          -4.6674  -15.3029   25.8816 C.ar    1  UNL1        0.1037
      5 N          -5.7827  -15.3383   26.8840 N.ar    1  UNL1       -0.2269
      6 C          -7.0611  -15.6044   26.1459 C.ar    1  UNL1        0.1407
      7 N          -8.4793  -15.7459   26.6136 N.ar    1  UNL1       -0.3369
      8 C          -9.5723  -16.0165   25.6226 C.ar    1  UNL1        0.0818
      9 C          -9.2471  -16.1456   24.1640 C.ar    1  UNL1        0.0588
     10 C          -7.8289  -16.0042   23.6963 C.ar    1  UNL1        0.0129
     11 C          -6.7359  -15.7336   24.6873 C.ar    1  UNL1        0.0392
     12 H          -8.6927  -15.6612   27.5709 H       1  UNL1        0.1674
     13 C         -10.3402  -16.4163   23.1730 C.1     1  UNL1       -0.0604
     14 C         -11.4332  -16.6868   22.1820 C.1     1  UNL1       -0.0539
     15 C         -12.5263  -16.9574   21.1910 C.3     1  UNL1        0.2182
     16 O         -12.5702  -16.1997   19.8973 O.3     1  UNL1       -0.3374
     17 C         -11.3163  -15.5937   19.3402 C.3     1  UNL1        0.1755
     18 C          -4.4226  -19.3741   22.0159 C.ar    1  UNL1        0.0920
     19 C          -2.9726  -19.5297   21.6650 C.ar    1  UNL1        0.0204
     20 C          -2.0314  -18.3742   21.8358 C.ar    1  UNL1        0.0312
     21 C          -2.5403  -17.0632   22.3575 C.ar    1  UNL1        0.1454
     22 F          -1.5991  -15.9077   22.5283 F       1  UNL1       -0.2040
     23 C          -3.9903  -16.9076   22.7083 C.ar    1  UNL1        0.0951
     24 C          -4.9315  -18.0630   22.5375 C.ar    1  UNL1        0.1598
     25 F          -6.3816  -17.9074   22.8885 F       1  UNL1       -0.2026
     26 N          -5.3638  -20.5295   21.8451 N.pl3   1  UNL1       -0.2166
     27 H          -5.2073  -21.3685   22.3359 H       1  UNL1        0.1734
     28 S          -6.5432  -20.4067   20.9265 S.O2    1  UNL1        0.0540
     29 O          -7.4637  -20.3899   22.1107 O.2     1  UNL1       -0.1545
     30 O          -5.6227  -20.4235   19.7423 O.2     1  UNL1       -0.1545
     31 C          -7.7226  -20.2838   20.0079 C.3     1  UNL1        0.1724
     32 C         -10.1563  -19.4302   19.6936 C.3     1  UNL1        0.0019
     33 C          -8.7890  -19.2668   20.2883 C.3     1  UNL1        0.0273
@<TRIPOS>BOND
     1    32    33    1
     2    33    31    1
     3    31    28    1
     4    28    29    2
     5    28    30    2
     6    28    26    1
     7    26    18    1
     8    18    19   ar
     9    19    20   ar
    10    20    21   ar
    11    21    22    1
    12    21    23   ar
    13    23     1    1
    14     1     2    2
    15     1     3    1
    16     3     4   ar
    17     4     5   ar
    18     5     6   ar
    19     6     7   ar
    20     7     8   ar
    21     8     9   ar
    22     9    13    1
    23    13    14    3
    24    14    15    1
    25    15    16    1
    26    16    17    1
    27     9    10   ar
    28    10    11   ar
    29    23    24   ar
    30    24    25    1
    31    24    18   ar
    32    11     3   ar
    33    11     6    1
    34    26    27    1
    35     7    12    1
@<TRIPOS>MOLECULE
*****
 33 35 0 0 0
SMALL
GASTEIGER

@<TRIPOS>ATOM
      1 C           4.8267   -3.7472   20.7567 C.2     1  UNL1        0.2015
      2 O           4.0643   -4.9972   20.4311 O.2     1  UNL1       -0.2864
      3 C           5.3915   -3.5500   22.1322 C.ar    1  UNL1        0.0612
      4 C           6.5774   -4.2646   22.7093 C.ar    1  UNL1        0.1037
      5 N           6.7883   -3.7597   24.1059 N.ar    1  UNL1       -0.2269
      6 C           5.7328   -2.7331   24.3921 C.ar    1  UNL1        0.1407
      7 N           5.4462   -1.8996   25.6057 N.ar    1  UNL1       -0.3369
      8 C           4.2963   -0.9364   25.5996 C.ar    1  UNL1        0.0818
      9 C           3.4331   -0.8068   24.3798 C.ar    1  UNL1        0.0588
     10 C           3.7196   -1.6403   23.1661 C.ar    1  UNL1        0.0129
     11 C           4.8695   -2.6034   23.1722 C.ar    1  UNL1        0.0392
     12 H           6.0128   -1.9847   26.4063 H       1  UNL1        0.1674
     13 C           2.2831    0.1565   24.3737 C.1     1  UNL1       -0.0604
     14 C           1.1333    1.1197   24.3676 C.1     1  UNL1       -0.0539
     15 C          -0.0166    2.0830   24.3615 C.3     1  UNL1        0.2182
     16 O          -0.9658    2.1251   25.5222 O.3     1  UNL1       -0.3374
     17 C          -0.5627    1.5381   26.8423 C.3     1  UNL1        0.1755
     18 C           4.0511   -0.8438   18.1646 C.ar    1  UNL1        0.0920
     19 C           5.4200   -0.5888   17.6067 C.ar    1  UNL1        0.0204
     20 C           6.5911   -1.3865   18.0988 C.ar    1  UNL1        0.0312
     21 C           6.3934   -2.4393   19.1487 C.ar    1  UNL1        0.1454
     22 F           7.5644   -3.2371   19.6409 F       1  UNL1       -0.2040
     23 C           5.0245   -2.6944   19.7066 C.ar    1  UNL1        0.0951
     24 C           3.8535   -1.8966   19.2145 C.ar    1  UNL1        0.1598
     25 F           2.4846   -2.1517   19.7725 F       1  UNL1       -0.2026
     26 N           2.8801   -0.0461   17.6724 N.pl3   1  UNL1       -0.2166
     27 H           2.5304   -0.1941   16.7641 H       1  UNL1        0.1734
     28 S           2.2418    0.9773   18.5643 S.O2    1  UNL1        0.0540
     29 O           3.5851    1.3115   19.1421 O.2     1  UNL1       -0.1545
     30 O           0.8986    0.6431   17.9864 O.2     1  UNL1       -0.1545
     31 C           1.6035    2.0006   19.4560 C.3     1  UNL1        0.1724
     32 C           0.6842    0.1114   20.9844 C.3     1  UNL1        0.0019
     33 C           0.9029    1.5698   20.7105 C.3     1  UNL1        0.0273
@<TRIPOS>BOND
     1    32    33    1
     2    33    31    1
     3    31    28    1
     4    28    29    2
     5    28    30    2
     6    28    26    1
     7    26    18    1
     8    18    19   ar
     9    19    20   ar
    10    20    21   ar
    11    21    22    1
    12    21    23   ar
    13    23     1    1
    14     1     2    2
    15     1     3    1
    16     3     4   ar
    17     4     5   ar
    18     5     6   ar
    19     6     7   ar
    20     7     8   ar
    21     8     9   ar
    22     9    13    1
    23    13    14    3
    24    14    15    1
    25    15    16    1
    26    16    17    1
    27     9    10   ar
    28    10    11   ar
    29    23    24   ar
    30    24    25    1
    31    24    18   ar
    32    11     3   ar
    33    11     6    1
    34    26    27    1
    35     7    12    1
