@<TRIPOS>MOLECULE
*****
 35 38 0 0 0
SMALL
GASTEIGER

@<TRIPOS>ATOM
      1 C         -10.1968  -17.4617   24.5291 C.3     1  UNL1        0.1697
      2 O         -10.9189  -18.6711   25.0448 O.3     1  UNL1       -0.3793
      3 H         -11.7687  -18.7604   24.5858 H       1  UNL1        0.2106
      4 C         -10.8218  -16.6137   23.4613 C.3     1  UNL1        0.2359
      5 O         -10.0898  -16.3666   22.1755 O.3     1  UNL1       -0.4697
      6 C          -8.4076  -20.9924   18.7444 C.ar    1  UNL1        0.0622
      7 N          -7.0723  -21.6404   18.9612 N.ar    1  UNL1       -0.2283
      8 C          -6.1576  -21.1320   20.0358 C.ar    1  UNL1        0.1985
      9 N          -6.5781  -19.9756   20.8936 N.ar    1  UNL1       -0.2239
     10 C          -7.9133  -19.3276   20.6768 C.ar    1  UNL1        0.0874
     11 C          -8.3339  -18.1711   21.5346 C.ar    1  UNL1        0.0592
     12 C          -9.6692  -17.5231   21.3177 C.ar    1  UNL1        0.1738
     13 C         -10.5840  -18.0315   20.2431 C.ar    1  UNL1        0.1725
     14 C         -10.1634  -19.1879   19.3854 C.ar    1  UNL1        0.0427
     15 C          -8.8281  -19.8360   19.6022 C.ar    1  UNL1        0.0345
     16 C          -8.9910  -21.2599   16.2268 C.3     1  UNL1        0.0067
     17 C          -9.3223  -21.5008   17.6698 C.3     1  UNL1        0.0459
     18 O         -11.9193  -17.3834   20.0264 O.3     1  UNL1       -0.4684
     19 C         -11.9975  -16.0036   19.4432 C.3     1  UNL1        0.2526
     20 C          -8.8497  -17.1005   25.0811 C.3     1  UNL1        0.1020
     21 N          -8.3281  -15.7021   24.9312 N.3     1  UNL1       -0.2971
     22 H          -8.6145  -15.1900   25.7655 H       1  UNL1        0.1233
     23 C          -6.8569  -15.4646   24.7610 C.3     1  UNL1        0.0476
     24 C          -6.6442  -15.7360   26.2208 C.3     1  UNL1        0.0162
     25 C          -7.0696  -15.1931   23.3012 C.3     1  UNL1        0.0162
     26 C          -5.3856  -15.2270   24.5908 C.3     1  UNL1        0.0602
     27 C          -4.5797  -16.1228   23.6975 C.2     1  UNL1        0.0599
     28 C          -4.6185  -17.6223   23.6856 C.2     1  UNL1        0.0159
     29 C          -3.6562  -18.1026   22.6400 C.2     1  UNL1        0.0150
     30 C          -3.2750  -19.4796   22.1835 C.2     1  UNL1        0.0009
     31 C          -2.2603  -19.6541   21.0927 C.2     1  UNL1       -0.0041
     32 C          -1.6268  -18.4515   20.4583 C.2     1  UNL1       -0.0198
     33 C          -2.0080  -17.0744   20.9148 C.3     1  UNL1        0.0717
     34 C          -3.0227  -16.8999   22.0056 C.2     1  UNL1        0.0630
     35 N          -3.5935  -15.6764   22.6592 N.2     1  UNL1       -0.2536
@<TRIPOS>BOND
     1    16    17    1
     2    17     6    1
     3     6     7   ar
     4     7     8   ar
     5     8     9   ar
     6     9    10   ar
     7    10    11   ar
     8    11    12   ar
     9    12     5    1
    10     5     4    1
    11     4     1    1
    12     1     2    1
    13     1    20    1
    14    20    21    1
    15    21    23    1
    16    23    24    1
    17    23    25    1
    18    23    26    1
    19    26    27    1
    20    27    28    2
    21    28    29    1
    22    29    30    2
    23    30    31    1
    24    31    32    2
    25    32    33    1
    26    33    34    1
    27    34    35    2
    28    12    13   ar
    29    13    18    1
    30    18    19    1
    31    13    14   ar
    32    14    15   ar
    33    15     6   ar
    34    15    10   ar
    35    35    27    1
    36    34    29    1
    37     2     3    1
    38    21    22    1
@<TRIPOS>MOLECULE
*****
 35 38 0 0 0
SMALL
GASTEIGER

@<TRIPOS>ATOM
      1 C         -10.3423   -3.3977   18.0363 C.3     1  UNL1        0.1697
      2 O          -9.6012   -3.6167   19.3219 O.3     1  UNL1       -0.3793
      3 H          -9.6199   -2.8024   19.8486 H       1  UNL1        0.2106
      4 C         -10.9665   -2.0646   17.7482 C.3     1  UNL1        0.2359
      5 O         -11.7049   -1.3327   18.8295 O.3     1  UNL1       -0.4697
      6 C         -17.6088   -2.1540   19.5151 C.ar    1  UNL1        0.0622
      7 N         -18.5674   -1.0684   19.1244 N.ar    1  UNL1       -0.2283
      8 C         -18.0500    0.2225   18.5624 C.ar    1  UNL1        0.1985
      9 N         -16.5741    0.4278   18.3910 N.ar    1  UNL1       -0.2239
     10 C         -15.6155   -0.6578   18.7816 C.ar    1  UNL1        0.0874
     11 C         -14.1395   -0.4525   18.6102 C.ar    1  UNL1        0.0592
     12 C         -13.1809   -1.5380   19.0009 C.ar    1  UNL1        0.1738
     13 C         -13.6983   -2.8289   19.5629 C.ar    1  UNL1        0.1725
     14 C         -15.1742   -3.0343   19.7343 C.ar    1  UNL1        0.0427
     15 C         -16.1329   -1.9487   19.3437 C.ar    1  UNL1        0.0345
     16 C         -18.4431   -4.5887   19.1599 C.3     1  UNL1        0.0067
     17 C         -18.1262   -3.4449   20.0771 C.3     1  UNL1        0.0459
     18 O         -12.7396   -3.9146   19.9535 O.3     1  UNL1       -0.4684
     19 C         -13.2239   -5.3270   20.0965 C.3     1  UNL1        0.2526
     20 C         -10.4594   -4.5119   17.0389 C.3     1  UNL1        0.1020
     21 N         -10.5972   -5.9292   17.5104 N.3     1  UNL1       -0.2971
     22 H         -10.8070   -5.8886   18.5077 H       1  UNL1        0.1233
     23 C         -11.6226   -6.8301   16.8885 C.3     1  UNL1        0.0476
     24 C         -10.7893   -8.0251   17.2455 C.3     1  UNL1        0.0162
     25 C         -12.4560   -5.6351   16.5314 C.3     1  UNL1        0.0162
     26 C         -12.6481   -7.7311   16.2666 C.3     1  UNL1        0.0602
     27 C         -13.9589   -7.9646   16.9573 C.2     1  UNL1        0.0599
     28 C         -15.3168   -7.8709   16.3268 C.2     1  UNL1        0.0159
     29 C         -16.3392   -8.1811   17.3797 C.2     1  UNL1        0.0150
     30 C         -17.8373   -8.2406   17.3373 C.2     1  UNL1        0.0009
     31 C         -18.6096   -8.5855   18.5761 C.2     1  UNL1       -0.0041
     32 C         -17.8837   -8.8709   19.8573 C.2     1  UNL1       -0.0198
     33 C         -16.3854   -8.8115   19.8997 C.3     1  UNL1        0.0717
     34 C         -15.6131   -8.4666   18.6609 C.2     1  UNL1        0.0630
     35 N         -14.1421   -8.3327   18.3998 N.2     1  UNL1       -0.2536
@<TRIPOS>BOND
     1    16    17    1
     2    17     6    1
     3     6     7   ar
     4     7     8   ar
     5     8     9   ar
     6     9    10   ar
     7    10    11   ar
     8    11    12   ar
     9    12     5    1
    10     5     4    1
    11     4     1    1
    12     1     2    1
    13     1    20    1
    14    20    21    1
    15    21    23    1
    16    23    24    1
    17    23    25    1
    18    23    26    1
    19    26    27    1
    20    27    28    2
    21    28    29    1
    22    29    30    2
    23    30    31    1
    24    31    32    2
    25    32    33    1
    26    33    34    1
    27    34    35    2
    28    12    13   ar
    29    13    18    1
    30    18    19    1
    31    13    14   ar
    32    14    15   ar
    33    15     6   ar
    34    15    10   ar
    35    35    27    1
    36    34    29    1
    37     2     3    1
    38    21    22    1
@<TRIPOS>MOLECULE
*****
 35 38 0 0 0
SMALL
GASTEIGER

@<TRIPOS>ATOM
      1 C           3.9411   -2.2235   18.6333 C.3     1  UNL1        0.1697
      2 O           4.6761   -2.2923   17.3276 O.3     1  UNL1       -0.3793
      3 H           4.6666   -1.4194   16.9048 H       1  UNL1        0.2106
      4 C           3.3351   -0.9280   19.0854 C.3     1  UNL1        0.2359
      5 O           2.0204   -0.9267   19.8076 O.3     1  UNL1       -0.4697
      6 C           1.7016    1.0774   25.4541 C.ar    1  UNL1        0.0622
      7 N           2.6713    0.5771   26.4833 N.ar    1  UNL1       -0.2283
      8 C           3.7207   -0.4242   26.1010 C.ar    1  UNL1        0.1985
      9 N           3.8004   -0.9252   24.6894 N.ar    1  UNL1       -0.2239
     10 C           2.8308   -0.4249   23.6602 C.ar    1  UNL1        0.0874
     11 C           2.9104   -0.9259   22.2485 C.ar    1  UNL1        0.0592
     12 C           1.9408   -0.4257   21.2193 C.ar    1  UNL1        0.1738
     13 C           0.8913    0.5756   21.6016 C.ar    1  UNL1        0.1725
     14 C           0.8116    1.0766   23.0132 C.ar    1  UNL1        0.0427
     15 C           1.7813    0.5764   24.0425 C.ar    1  UNL1        0.0345
     16 C          -0.6068    1.6242   26.5135 C.3     1  UNL1        0.0067
     17 C           0.6522    2.0786   25.8364 C.3     1  UNL1        0.0459
     18 O          -0.0784    1.0759   20.5723 O.3     1  UNL1       -0.4684
     19 C          -0.6642    2.4509   20.6995 C.3     1  UNL1        0.2526
     20 C           3.8122   -3.4501   19.4869 C.3     1  UNL1        0.1020
     21 N           5.0399   -4.1957   19.9190 N.3     1  UNL1       -0.2971
     22 H           5.7015   -4.1477   19.1442 H       1  UNL1        0.1233
     23 C           5.7829   -3.7677   21.1498 C.3     1  UNL1        0.0476
     24 C           4.5438   -3.9740   21.9696 C.3     1  UNL1        0.0162
     25 C           7.0221   -3.5615   20.3301 C.3     1  UNL1        0.0162
     26 C           6.5259   -3.3398   22.3806 C.3     1  UNL1        0.0602
     27 C           6.9281   -4.3580   23.4059 C.2     1  UNL1        0.0599
     28 C           6.6734   -4.2715   24.8816 C.2     1  UNL1        0.0159
     29 C           7.2434   -5.5016   25.5234 C.2     1  UNL1        0.0150
     30 C           7.2882   -5.9601   26.9508 C.2     1  UNL1        0.0009
     31 C           7.9400   -7.2654   27.2993 C.2     1  UNL1       -0.0041
     32 C           8.5471   -8.1121   26.2202 C.2     1  UNL1       -0.0198
     33 C           8.5023   -7.6537   24.7926 C.3     1  UNL1        0.0717
     34 C           7.8505   -6.3484   24.4442 C.2     1  UNL1        0.0630
     35 N           7.6556   -5.6416   23.1356 N.2     1  UNL1       -0.2536
@<TRIPOS>BOND
     1    16    17    1
     2    17     6    1
     3     6     7   ar
     4     7     8   ar
     5     8     9   ar
     6     9    10   ar
     7    10    11   ar
     8    11    12   ar
     9    12     5    1
    10     5     4    1
    11     4     1    1
    12     1     2    1
    13     1    20    1
    14    20    21    1
    15    21    23    1
    16    23    24    1
    17    23    25    1
    18    23    26    1
    19    26    27    1
    20    27    28    2
    21    28    29    1
    22    29    30    2
    23    30    31    1
    24    31    32    2
    25    32    33    1
    26    33    34    1
    27    34    35    2
    28    12    13   ar
    29    13    18    1
    30    18    19    1
    31    13    14   ar
    32    14    15   ar
    33    15     6   ar
    34    15    10   ar
    35    35    27    1
    36    34    29    1
    37     2     3    1
    38    21    22    1
@<TRIPOS>MOLECULE
*****
 35 38 0 0 0
SMALL
GASTEIGER

@<TRIPOS>ATOM
      1 C          -9.9615   -3.6963   17.8924 C.3     1  UNL1        0.1697
      2 O          -9.5320   -3.7485   19.3286 O.3     1  UNL1       -0.3793
      3 H          -9.7006   -2.8903   19.7480 H       1  UNL1        0.2106
      4 C         -10.5472   -2.4351   17.3302 C.3     1  UNL1        0.2359
      5 O         -10.9865   -1.3362   18.2520 O.3     1  UNL1       -0.4697
      6 C         -16.8314   -0.3992   19.2314 C.ar    1  UNL1        0.0622
      7 N         -17.6990   -1.5205   19.7213 N.ar    1  UNL1       -0.2283
      8 C         -17.1053   -2.8760   19.9665 C.ar    1  UNL1        0.1985
      9 N         -15.6441   -3.1103   19.7216 N.ar    1  UNL1       -0.2239
     10 C         -14.7766   -1.9890   19.2317 C.ar    1  UNL1        0.0874
     11 C         -13.3153   -2.2233   18.9868 C.ar    1  UNL1        0.0592
     12 C         -12.4478   -1.1020   18.4968 C.ar    1  UNL1        0.1738
     13 C         -13.0415    0.2535   18.2517 C.ar    1  UNL1        0.1725
     14 C         -14.5026    0.4878   18.4965 C.ar    1  UNL1        0.0427
     15 C         -15.3703   -0.6335   18.9865 C.ar    1  UNL1        0.0345
     16 C         -18.3563    1.1693   17.8297 C.3     1  UNL1        0.0067
     17 C         -17.4251    0.9563   18.9862 C.3     1  UNL1        0.0459
     18 O         -12.1738    1.3748   17.7617 O.3     1  UNL1       -0.4684
     19 C         -12.5974    2.1867   16.5737 C.3     1  UNL1        0.2526
     20 C          -9.8052   -4.9053   17.0184 C.3     1  UNL1        0.1020
     21 N         -10.8895   -5.9406   16.9695 N.3     1  UNL1       -0.2971
     22 H         -10.4319   -6.8496   17.0381 H       1  UNL1        0.1233
     23 C         -11.9847   -5.9287   17.9944 C.3     1  UNL1        0.0476
     24 C         -11.0994   -6.6737   18.9490 C.3     1  UNL1        0.0162
     25 C         -12.8699   -5.1836   17.0398 C.3     1  UNL1        0.0162
     26 C         -13.0798   -5.9168   19.0193 C.3     1  UNL1        0.0602
     27 C         -14.1655   -6.9505   18.9689 C.2     1  UNL1        0.0599
     28 C         -15.5397   -6.8152   19.5549 C.2     1  UNL1        0.0159
     29 C         -16.2911   -8.0822   19.2718 C.2     1  UNL1        0.0150
     30 C         -17.6862   -8.5183   19.6085 C.2     1  UNL1        0.0009
     31 C         -18.1716   -9.8728   19.1844 C.2     1  UNL1       -0.0041
     32 C         -17.2618  -10.7911   18.4236 C.2     1  UNL1       -0.0198
     33 C         -15.8666  -10.3550   18.0868 C.3     1  UNL1        0.0717
     34 C         -15.3813   -9.0005   18.5109 C.2     1  UNL1        0.0630
     35 N         -14.0676   -8.3011   18.3237 N.2     1  UNL1       -0.2536
@<TRIPOS>BOND
     1    16    17    1
     2    17     6    1
     3     6     7   ar
     4     7     8   ar
     5     8     9   ar
     6     9    10   ar
     7    10    11   ar
     8    11    12   ar
     9    12     5    1
    10     5     4    1
    11     4     1    1
    12     1     2    1
    13     1    20    1
    14    20    21    1
    15    21    23    1
    16    23    24    1
    17    23    25    1
    18    23    26    1
    19    26    27    1
    20    27    28    2
    21    28    29    1
    22    29    30    2
    23    30    31    1
    24    31    32    2
    25    32    33    1
    26    33    34    1
    27    34    35    2
    28    12    13   ar
    29    13    18    1
    30    18    19    1
    31    13    14   ar
    32    14    15   ar
    33    15     6   ar
    34    15    10   ar
    35    35    27    1
    36    34    29    1
    37     2     3    1
    38    21    22    1
@<TRIPOS>MOLECULE
*****
 35 38 0 0 0
SMALL
GASTEIGER

@<TRIPOS>ATOM
      1 C           8.5313   -4.9370   21.4858 C.3     1  UNL1        0.1697
      2 O           9.5126   -5.5607   20.5382 O.3     1  UNL1       -0.3793
      3 H          10.0789   -6.1821   21.0219 H       1  UNL1        0.2106
      4 C           8.5447   -5.3169   22.9368 C.3     1  UNL1        0.2359
      5 O           7.2532   -5.5523   23.6624 O.3     1  UNL1       -0.4697
      6 C           6.5063   -3.4276   29.2237 C.ar    1  UNL1        0.0622
      7 N           6.7986   -4.3026   30.4064 N.ar    1  UNL1       -0.2283
      8 C           7.2776   -5.7088   30.1988 C.ar    1  UNL1        0.1985
      9 N           7.4643   -6.2400   28.8086 N.ar    1  UNL1       -0.2239
     10 C           7.1720   -5.3650   27.6259 C.ar    1  UNL1        0.0874
     11 C           7.3587   -5.8962   26.2355 C.ar    1  UNL1        0.0592
     12 C           7.0665   -5.0211   25.0528 C.ar    1  UNL1        0.1738
     13 C           6.5875   -3.6149   25.2604 C.ar    1  UNL1        0.1725
     14 C           6.4008   -3.0837   26.6506 C.ar    1  UNL1        0.0427
     15 C           6.6930   -3.9588   27.8334 C.ar    1  UNL1        0.0345
     16 C           7.0169   -0.9191   29.6676 C.3     1  UNL1        0.0067
     17 C           6.0273   -2.0213   29.4313 C.3     1  UNL1        0.0459
     18 O           6.2952   -2.7398   24.0776 O.3     1  UNL1       -0.4684
     19 C           4.9517   -2.8008   23.4133 C.3     1  UNL1        0.2526
     20 C           7.5366   -3.9334   20.9824 C.3     1  UNL1        0.1020
     21 N           6.2380   -4.3961   20.3912 N.3     1  UNL1       -0.2971
     22 H           5.5740   -4.4716   21.1618 H       1  UNL1        0.1233
     23 C           5.5695   -3.5844   19.3215 C.3     1  UNL1        0.0476
     24 C           6.4066   -2.3982   19.6985 C.3     1  UNL1        0.0162
     25 C           4.7324   -4.7706   18.9445 C.3     1  UNL1        0.0162
     26 C           4.9009   -2.7727   18.2518 C.3     1  UNL1        0.0602
     27 C           3.8371   -1.7806   18.6178 C.2     1  UNL1        0.0599
     28 C           3.5688   -0.4788   17.9226 C.2     1  UNL1        0.0159
     29 C           2.4206    0.1902   18.6184 C.2     1  UNL1        0.0150
     30 C           1.7200    1.4936   18.3728 C.2     1  UNL1        0.0009
     31 C           0.5780    1.9085   19.2523 C.2     1  UNL1       -0.0041
     32 C           0.1366    1.0202   20.3774 C.2     1  UNL1       -0.0198
     33 C           0.8373   -0.2832   20.6231 C.3     1  UNL1        0.0717
     34 C           1.9793   -0.6982   19.7436 C.2     1  UNL1        0.0630
     35 N           2.8547   -1.9162   19.7432 N.2     1  UNL1       -0.2536
@<TRIPOS>BOND
     1    16    17    1
     2    17     6    1
     3     6     7   ar
     4     7     8   ar
     5     8     9   ar
     6     9    10   ar
     7    10    11   ar
     8    11    12   ar
     9    12     5    1
    10     5     4    1
    11     4     1    1
    12     1     2    1
    13     1    20    1
    14    20    21    1
    15    21    23    1
    16    23    24    1
    17    23    25    1
    18    23    26    1
    19    26    27    1
    20    27    28    2
    21    28    29    1
    22    29    30    2
    23    30    31    1
    24    31    32    2
    25    32    33    1
    26    33    34    1
    27    34    35    2
    28    12    13   ar
    29    13    18    1
    30    18    19    1
    31    13    14   ar
    32    14    15   ar
    33    15     6   ar
    34    15    10   ar
    35    35    27    1
    36    34    29    1
    37     2     3    1
    38    21    22    1
@<TRIPOS>MOLECULE
*****
 35 38 0 0 0
SMALL
GASTEIGER

@<TRIPOS>ATOM
      1 C          -8.4950  -15.4071   23.6960 C.3     1  UNL1        0.1697
      2 O          -9.1921  -15.4266   22.3680 O.3     1  UNL1       -0.3793
      3 H          -9.9291  -16.0565   22.3990 H       1  UNL1        0.2106
      4 C          -8.9799  -16.2860   24.8106 C.3     1  UNL1        0.2359
      5 O          -9.5810  -17.6253   24.5023 O.3     1  UNL1       -0.4697
      6 C          -8.2440  -20.4000   19.3531 C.ar    1  UNL1        0.0622
      7 N          -6.9579  -21.1609   19.2232 N.ar    1  UNL1       -0.2283
      8 C          -6.0061  -21.2282   20.3806 C.ar    1  UNL1        0.1985
      9 N          -6.3403  -20.5346   21.6678 N.ar    1  UNL1       -0.2239
     10 C          -7.6264  -19.7736   21.7977 C.ar    1  UNL1        0.0874
     11 C          -7.9606  -19.0799   23.0851 C.ar    1  UNL1        0.0592
     12 C          -9.2467  -18.3190   23.2150 C.ar    1  UNL1        0.1738
     13 C         -10.1986  -18.2517   22.0576 C.ar    1  UNL1        0.1725
     14 C          -9.8643  -18.9453   20.7704 C.ar    1  UNL1        0.0427
     15 C          -8.5782  -19.7063   20.6404 C.ar    1  UNL1        0.0345
     16 C          -9.1641  -21.3936   17.1360 C.3     1  UNL1        0.0067
     17 C          -9.1958  -20.3326   18.1958 C.3     1  UNL1        0.0459
     18 O         -11.4847  -17.4906   22.1876 O.3     1  UNL1       -0.4684
     19 C         -12.5544  -17.6425   21.1471 C.3     1  UNL1        0.2526
     20 C          -7.3130  -14.5086   23.9095 C.3     1  UNL1        0.1020
     21 N          -6.3484  -14.7900   25.0232 N.3     1  UNL1       -0.2971
     22 H          -6.9065  -15.0336   25.8415 H       1  UNL1        0.1233
     23 C          -5.3159  -15.8667   24.8670 C.3     1  UNL1        0.0476
     24 C          -5.5320  -16.2808   26.2924 C.3     1  UNL1        0.0162
     25 C          -5.0997  -15.4526   23.4416 C.3     1  UNL1        0.0162
     26 C          -4.2833  -16.9434   24.7108 C.3     1  UNL1        0.0602
     27 C          -3.7169  -17.2485   23.3558 C.2     1  UNL1        0.0599
     28 C          -2.4624  -16.6679   22.7734 C.2     1  UNL1        0.0159
     29 C          -2.2758  -17.2484   21.4029 C.2     1  UNL1        0.0150
     30 C          -1.2158  -17.0429   20.3617 C.2     1  UNL1        0.0009
     31 C          -1.2948  -17.7769   19.0559 C.2     1  UNL1       -0.0041
     32 C          -2.4339  -18.7162   18.7913 C.2     1  UNL1       -0.0198
     33 C          -3.4940  -18.9217   19.8325 C.3     1  UNL1        0.0717
     34 C          -3.4149  -18.1878   21.1383 C.2     1  UNL1        0.0630
     35 N          -4.3055  -18.1879   22.3453 N.2     1  UNL1       -0.2536
@<TRIPOS>BOND
     1    16    17    1
     2    17     6    1
     3     6     7   ar
     4     7     8   ar
     5     8     9   ar
     6     9    10   ar
     7    10    11   ar
     8    11    12   ar
     9    12     5    1
    10     5     4    1
    11     4     1    1
    12     1     2    1
    13     1    20    1
    14    20    21    1
    15    21    23    1
    16    23    24    1
    17    23    25    1
    18    23    26    1
    19    26    27    1
    20    27    28    2
    21    28    29    1
    22    29    30    2
    23    30    31    1
    24    31    32    2
    25    32    33    1
    26    33    34    1
    27    34    35    2
    28    12    13   ar
    29    13    18    1
    30    18    19    1
    31    13    14   ar
    32    14    15   ar
    33    15     6   ar
    34    15    10   ar
    35    35    27    1
    36    34    29    1
    37     2     3    1
    38    21    22    1
@<TRIPOS>MOLECULE
*****
 35 38 0 0 0
SMALL
GASTEIGER

@<TRIPOS>ATOM
      1 C           8.3973   -4.9839   21.5821 C.3     1  UNL1        0.1697
      2 O           9.2345   -6.0439   20.9299 O.3     1  UNL1       -0.3793
      3 H           9.6707   -6.5771   21.6128 H       1  UNL1        0.2106
      4 C           8.3419   -4.8867   23.0779 C.3     1  UNL1        0.2359
      5 O           7.0759   -5.2299   23.8054 O.3     1  UNL1       -0.4697
      6 C           6.7660   -4.5720   29.7613 C.ar    1  UNL1        0.0622
      7 N           6.4227   -3.2365   30.3514 N.ar    1  UNL1       -0.2283
      8 C           6.1569   -2.0653   29.4526 C.ar    1  UNL1        0.1985
      9 N           6.2344   -2.2297   27.9637 N.ar    1  UNL1       -0.2239
     10 C           6.5777   -3.5653   27.3736 C.ar    1  UNL1        0.0874
     11 C           6.6552   -3.7298   25.8846 C.ar    1  UNL1        0.0592
     12 C           6.9984   -5.0654   25.2944 C.ar    1  UNL1        0.1738
     13 C           7.2642   -6.2366   26.1932 C.ar    1  UNL1        0.1725
     14 C           7.1867   -6.0721   27.6821 C.ar    1  UNL1        0.0427
     15 C           6.8434   -4.7365   28.2723 C.ar    1  UNL1        0.0345
     16 C           8.4207   -6.0021   31.1636 C.3     1  UNL1        0.0067
     17 C           7.0317   -5.7432   30.6600 C.3     1  UNL1        0.0459
     18 O           7.6074   -7.5722   25.6030 O.3     1  UNL1       -0.4684
     19 C           9.0281   -7.8894   25.2408 C.3     1  UNL1        0.2526
     20 C           7.6154   -4.0211   20.7385 C.3     1  UNL1        0.1020
     21 N           6.2087   -4.3492   20.3342 N.3     1  UNL1       -0.2971
     22 H           5.6370   -4.2817   21.1763 H       1  UNL1        0.1233
     23 C           5.5223   -3.5343   19.2784 C.3     1  UNL1        0.0476
     24 C           4.6883   -4.7232   18.9029 C.3     1  UNL1        0.0162
     25 C           6.3562   -2.3453   19.6539 C.3     1  UNL1        0.0162
     26 C           4.8359   -2.7194   18.2226 C.3     1  UNL1        0.0602
     27 C           3.7835   -1.7233   18.6100 C.2     1  UNL1        0.0599
     28 C           2.8342   -1.8477   19.7648 C.2     1  UNL1        0.0159
     29 C           1.9596   -0.6292   19.7792 C.2     1  UNL1        0.0150
     30 C           0.8438   -0.2052   20.6876 C.2     1  UNL1        0.0009
     31 C           0.1367    1.0962   20.4502 C.2     1  UNL1       -0.0041
     32 C           0.5454    1.9736   19.3044 C.2     1  UNL1       -0.0198
     33 C           1.6612    1.5497   18.3959 C.3     1  UNL1        0.0717
     34 C           2.3683    0.2483   18.6333 C.2     1  UNL1        0.0630
     35 N           3.4955   -0.4279   17.9107 N.2     1  UNL1       -0.2536
@<TRIPOS>BOND
     1    16    17    1
     2    17     6    1
     3     6     7   ar
     4     7     8   ar
     5     8     9   ar
     6     9    10   ar
     7    10    11   ar
     8    11    12   ar
     9    12     5    1
    10     5     4    1
    11     4     1    1
    12     1     2    1
    13     1    20    1
    14    20    21    1
    15    21    23    1
    16    23    24    1
    17    23    25    1
    18    23    26    1
    19    26    27    1
    20    27    28    2
    21    28    29    1
    22    29    30    2
    23    30    31    1
    24    31    32    2
    25    32    33    1
    26    33    34    1
    27    34    35    2
    28    12    13   ar
    29    13    18    1
    30    18    19    1
    31    13    14   ar
    32    14    15   ar
    33    15     6   ar
    34    15    10   ar
    35    35    27    1
    36    34    29    1
    37     2     3    1
    38    21    22    1
@<TRIPOS>MOLECULE
*****
 35 38 0 0 0
SMALL
GASTEIGER

@<TRIPOS>ATOM
      1 C           4.4768   -2.4579   33.1044 C.3     1  UNL1        0.1697
      2 O           3.5391   -3.4150   33.7786 O.3     1  UNL1       -0.3793
      3 H           2.6772   -2.9883   33.9049 H       1  UNL1        0.2106
      4 C           4.0085   -1.0802   32.7404 C.3     1  UNL1        0.2359
      5 O           2.9147   -0.9025   31.7294 O.3     1  UNL1       -0.4697
      6 C           4.2130   -0.9151   25.8715 C.ar    1  UNL1        0.0622
      7 N           5.5902   -1.2886   25.4094 N.ar    1  UNL1       -0.2283
      8 C           6.6429   -1.6589   26.4117 C.ar    1  UNL1        0.1985
      9 N           6.3184   -1.6558   27.8761 N.ar    1  UNL1       -0.2239
     10 C           4.9411   -1.2823   28.3383 C.ar    1  UNL1        0.0874
     11 C           4.6165   -1.2791   29.8028 C.ar    1  UNL1        0.0592
     12 C           3.2393   -0.9056   30.2649 C.ar    1  UNL1        0.1738
     13 C           2.1866   -0.5353   29.2626 C.ar    1  UNL1        0.1725
     14 C           2.5111   -0.5384   27.7982 C.ar    1  UNL1        0.0427
     15 C           3.8884   -0.9119   27.3360 C.ar    1  UNL1        0.0345
     16 C           3.4437   -0.6727   23.4019 C.3     1  UNL1        0.0067
     17 C           3.1602   -0.5447   24.8692 C.3     1  UNL1        0.0459
     18 O           0.8092   -0.1618   29.7248 O.3     1  UNL1       -0.4684
     19 C           0.3270    1.2512   29.5799 C.3     1  UNL1        0.2526
     20 C           5.8828   -2.8785   32.7942 C.3     1  UNL1        0.1020
     21 N           6.1724   -4.2976   32.4040 N.3     1  UNL1       -0.2971
     22 H           5.3780   -4.6188   31.8507 H       1  UNL1        0.1233
     23 C           7.4075   -4.6220   31.6172 C.3     1  UNL1        0.0476
     24 C           7.0961   -6.0848   31.7315 C.3     1  UNL1        0.0162
     25 C           7.7189   -3.1591   31.5029 C.3     1  UNL1        0.0162
     26 C           8.6427   -4.9464   30.8304 C.3     1  UNL1        0.0602
     27 C           8.5243   -5.4517   29.4231 C.2     1  UNL1        0.0599
     28 C           9.2254   -6.6498   28.8546 C.2     1  UNL1        0.0159
     29 C           8.8185   -6.7863   27.4173 C.2     1  UNL1        0.0150
     30 C           9.1922   -7.7808   26.3584 C.2     1  UNL1        0.0009
     31 C           8.6134   -7.6616   24.9798 C.2     1  UNL1       -0.0041
     32 C           7.6608   -6.5479   24.6600 C.2     1  UNL1       -0.0198
     33 C           7.2870   -5.5534   25.7189 C.3     1  UNL1        0.0717
     34 C           7.8658   -5.6726   27.0976 C.2     1  UNL1        0.0630
     35 N           7.6841   -4.8478   28.3372 N.2     1  UNL1       -0.2536
@<TRIPOS>BOND
     1    16    17    1
     2    17     6    1
     3     6     7   ar
     4     7     8   ar
     5     8     9   ar
     6     9    10   ar
     7    10    11   ar
     8    11    12   ar
     9    12     5    1
    10     5     4    1
    11     4     1    1
    12     1     2    1
    13     1    20    1
    14    20    21    1
    15    21    23    1
    16    23    24    1
    17    23    25    1
    18    23    26    1
    19    26    27    1
    20    27    28    2
    21    28    29    1
    22    29    30    2
    23    30    31    1
    24    31    32    2
    25    32    33    1
    26    33    34    1
    27    34    35    2
    28    12    13   ar
    29    13    18    1
    30    18    19    1
    31    13    14   ar
    32    14    15   ar
    33    15     6   ar
    34    15    10   ar
    35    35    27    1
    36    34    29    1
    37     2     3    1
    38    21    22    1
@<TRIPOS>MOLECULE
*****
 35 38 0 0 0
SMALL
GASTEIGER

@<TRIPOS>ATOM
      1 C           5.7135   -3.6221   22.7447 C.3     1  UNL1        0.1697
      2 O           4.2775   -3.9945   22.5235 O.3     1  UNL1       -0.3793
      3 H           3.7812   -3.8729   23.3480 H       1  UNL1        0.2106
      4 C           6.1663   -3.1492   24.0943 C.3     1  UNL1        0.2359
      5 O           6.1974   -1.6816   24.4032 O.3     1  UNL1       -0.4697
      6 C           1.0667    1.3269   25.1942 C.ar    1  UNL1        0.0622
      7 N           0.4931    1.4822   26.5714 N.ar    1  UNL1       -0.2283
      8 C           1.2020    0.8854   27.7509 C.ar    1  UNL1        0.1985
      9 N           2.4847    0.1333   27.5532 N.ar    1  UNL1       -0.2239
     10 C           3.0583   -0.0220   26.1760 C.ar    1  UNL1        0.0874
     11 C           4.3410   -0.7742   25.9782 C.ar    1  UNL1        0.0592
     12 C           4.9147   -0.9295   24.6010 C.ar    1  UNL1        0.1738
     13 C           4.2057   -0.3327   23.4215 C.ar    1  UNL1        0.1725
     14 C           2.9231    0.4194   23.6192 C.ar    1  UNL1        0.0427
     15 C           2.3493    0.5748   24.9965 C.ar    1  UNL1        0.0345
     16 C          -0.7639    2.8966   24.2274 C.3     1  UNL1        0.0067
     17 C           0.3577    1.9237   24.0147 C.3     1  UNL1        0.0459
     18 O           4.7794   -0.4881   22.0442 O.3     1  UNL1       -0.4684
     19 C           5.1227    0.7263   21.2334 C.3     1  UNL1        0.2526
     20 C           6.6969   -3.7226   21.6165 C.3     1  UNL1        0.1020
     21 N           6.2938   -4.3723   20.3260 N.3     1  UNL1       -0.2971
     22 H           5.6714   -5.1438   20.5665 H       1  UNL1        0.1233
     23 C           5.5986   -3.5691   19.2670 C.3     1  UNL1        0.0476
     24 C           6.5082   -2.4101   19.5489 C.3     1  UNL1        0.0162
     25 C           4.6891   -4.7281   18.9850 C.3     1  UNL1        0.0162
     26 C           4.9034   -2.7659   18.2079 C.3     1  UNL1        0.0602
     27 C           3.8381   -1.7820   18.5912 C.2     1  UNL1        0.0599
     28 C           3.5808   -0.4596   17.9316 C.2     1  UNL1        0.0159
     29 C           2.4268    0.1921   18.6341 C.2     1  UNL1        0.0150
     30 C           1.7321    1.5040   18.4192 C.2     1  UNL1        0.0009
     31 C           0.5816    1.8963   19.2980 C.2     1  UNL1       -0.0041
     32 C           0.1257    0.9767   20.3918 C.2     1  UNL1       -0.0198
     33 C           0.8203   -0.3353   20.6067 C.3     1  UNL1        0.0717
     34 C           1.9708   -0.7277   19.7279 C.2     1  UNL1        0.0630
     35 N           2.8431   -1.9476   19.7014 N.2     1  UNL1       -0.2536
@<TRIPOS>BOND
     1    16    17    1
     2    17     6    1
     3     6     7   ar
     4     7     8   ar
     5     8     9   ar
     6     9    10   ar
     7    10    11   ar
     8    11    12   ar
     9    12     5    1
    10     5     4    1
    11     4     1    1
    12     1     2    1
    13     1    20    1
    14    20    21    1
    15    21    23    1
    16    23    24    1
    17    23    25    1
    18    23    26    1
    19    26    27    1
    20    27    28    2
    21    28    29    1
    22    29    30    2
    23    30    31    1
    24    31    32    2
    25    32    33    1
    26    33    34    1
    27    34    35    2
    28    12    13   ar
    29    13    18    1
    30    18    19    1
    31    13    14   ar
    32    14    15   ar
    33    15     6   ar
    34    15    10   ar
    35    35    27    1
    36    34    29    1
    37     2     3    1
    38    21    22    1
