@<TRIPOS>MOLECULE
*****
 25 27 0 0 0
SMALL
GASTEIGER

@<TRIPOS>ATOM
      1 C          -5.2945  -18.4975   22.1597 C.3     1  UNL1        0.0952
      2 C          -5.7908  -19.8023   21.6110 C.3     1  UNL1        0.0245
      3 C          -7.2414  -20.1641   21.7333 C.3     1  UNL1        0.0067
      4 C          -8.1956  -19.2212   22.4044 C.3     1  UNL1        0.0263
      5 C          -7.6992  -17.9164   22.9531 C.ar    1  UNL1       -0.0216
      6 C          -8.6534  -16.9734   23.6242 C.ar    1  UNL1        0.0150
      7 C          -8.1571  -15.6687   24.1730 C.ar    1  UNL1        0.0985
      8 N          -6.7065  -15.3068   24.0506 N.ar    1  UNL1       -0.2426
      9 C          -5.7523  -16.2497   23.3796 C.ar    1  UNL1        0.0959
     10 C          -6.2486  -17.5546   22.8308 C.ar    1  UNL1        0.0107
     11 C         -10.1040  -17.3353   23.7465 C.ar    1  UNL1        0.0012
     12 C         -11.1281  -16.6193   22.9169 C.ar    1  UNL1        0.0007
     13 C         -12.5787  -16.9812   23.0392 C.ar    1  UNL1        0.0103
     14 C         -13.0051  -18.0590   23.9912 C.ar    1  UNL1        0.0684
     15 C         -11.9809  -18.7751   24.8209 C.ar    1  UNL1        0.0103
     16 C         -10.5303  -18.4132   24.6986 C.ar    1  UNL1        0.0007
     17 C         -14.4556  -18.4209   24.1135 C.1     1  UNL1        0.1004
     18 N         -15.9062  -18.7827   24.2359 N.1     1  UNL1       -0.1908
     19 C          -3.2200  -17.9860   20.6816 C.2     1  UNL1        0.2222
     20 O          -4.0466  -18.1983   19.4480 O.2     1  UNL1       -0.2751
     21 N          -3.8439  -18.1356   22.0374 N.am    1  UNL1       -0.3022
     22 H          -3.3013  -17.9963   22.8470 H       1  UNL1        0.1497
     23 C          -0.8322  -18.5253   19.8111 C.3     1  UNL1        0.0096
     24 C          -1.7694  -17.6242   20.5592 C.3     1  UNL1        0.0765
     25 C          -1.2561  -16.3613   21.1850 C.3     1  UNL1        0.0096
@<TRIPOS>BOND
     1    23    24    1
     2    24    25    1
     3    24    19    1
     4    19    20    2
     5    19    21   am
     6    21     1    1
     7     1     2    1
     8     2     3    1
     9     3     4    1
    10     4     5    1
    11     5     6   ar
    12     6    11    1
    13    11    12   ar
    14    12    13   ar
    15    13    14   ar
    16    14    17    1
    17    17    18    3
    18    14    15   ar
    19    15    16   ar
    20     6     7   ar
    21     7     8   ar
    22     8     9   ar
    23     9    10   ar
    24    10     1    1
    25    10     5   ar
    26    16    11   ar
    27    21    22    1
@<TRIPOS>MOLECULE
*****
 25 27 0 0 0
SMALL
GASTEIGER

@<TRIPOS>ATOM
      1 C          -9.8749  -17.2225   23.1727 C.3     1  UNL1        0.0952
      2 C          -9.0315  -16.3548   24.0590 C.3     1  UNL1        0.0245
      3 C          -7.5423  -16.3250   23.8819 C.3     1  UNL1        0.0067
      4 C          -6.8965  -17.1628   22.8185 C.3     1  UNL1        0.0263
      5 C          -7.7399  -18.0304   21.9321 C.ar    1  UNL1       -0.0216
      6 C          -7.0942  -18.8683   20.8685 C.ar    1  UNL1        0.0150
      7 C          -7.9376  -19.7359   19.9821 C.ar    1  UNL1        0.0985
      8 N          -9.4268  -19.7658   20.1592 N.ar    1  UNL1       -0.2426
      9 C         -10.0726  -18.9280   21.2227 C.ar    1  UNL1        0.0959
     10 C          -9.2291  -18.0603   22.1092 C.ar    1  UNL1        0.0107
     11 C          -5.6050  -18.8384   20.6914 C.ar    1  UNL1        0.0012
     12 C          -5.0158  -18.5791   19.3366 C.ar    1  UNL1        0.0007
     13 C          -3.5266  -18.5492   19.1595 C.ar    1  UNL1        0.0103
     14 C          -2.6265  -18.7786   20.3372 C.ar    1  UNL1        0.0684
     15 C          -3.2156  -19.0379   21.6922 C.ar    1  UNL1        0.0103
     16 C          -4.7048  -19.0678   21.8693 C.ar    1  UNL1        0.0007
     17 C          -1.1373  -18.7488   20.1601 C.1     1  UNL1        0.1004
     18 N           0.3519  -18.7189   19.9830 N.1     1  UNL1       -0.1908
     19 C         -11.9966  -18.3096   24.2054 C.2     1  UNL1        0.2222
     20 O         -11.1398  -19.3370   24.8841 O.2     1  UNL1       -0.2751
     21 N         -11.3641  -17.2524   23.3497 N.am    1  UNL1       -0.3022
     22 H         -11.9264  -16.5781   22.9043 H       1  UNL1        0.1497
     23 C         -14.3859  -18.1712   23.1944 C.3     1  UNL1        0.0096
     24 C         -13.4858  -18.3395   24.3825 C.3     1  UNL1        0.0765
     25 C         -14.0749  -18.5375   25.7477 C.3     1  UNL1        0.0096
@<TRIPOS>BOND
     1    23    24    1
     2    24    25    1
     3    24    19    1
     4    19    20    2
     5    19    21   am
     6    21     1    1
     7     1     2    1
     8     2     3    1
     9     3     4    1
    10     4     5    1
    11     5     6   ar
    12     6    11    1
    13    11    12   ar
    14    12    13   ar
    15    13    14   ar
    16    14    17    1
    17    17    18    3
    18    14    15   ar
    19    15    16   ar
    20     6     7   ar
    21     7     8   ar
    22     8     9   ar
    23     9    10   ar
    24    10     1    1
    25    10     5   ar
    26    16    11   ar
    27    21    22    1
@<TRIPOS>MOLECULE
*****
 25 27 0 0 0
SMALL
GASTEIGER

@<TRIPOS>ATOM
      1 C           5.0690   -2.7790   23.9940 C.3     1  UNL1        0.0952
      2 C           4.7955   -1.5390   24.7923 C.3     1  UNL1        0.0245
      3 C           4.0238   -0.4078   24.1800 C.3     1  UNL1        0.0067
      4 C           3.5256   -0.5167   22.7693 C.3     1  UNL1        0.0263
      5 C           3.7991   -1.7568   21.9710 C.ar    1  UNL1       -0.0216
      6 C           3.3009   -1.8657   20.5603 C.ar    1  UNL1        0.0150
      7 C           3.5744   -3.1058   19.7620 C.ar    1  UNL1        0.0985
      8 N           4.3462   -4.2370   20.3743 N.ar    1  UNL1       -0.2426
      9 C           4.8443   -4.1281   21.7849 C.ar    1  UNL1        0.0959
     10 C           4.5708   -2.8879   22.5833 C.ar    1  UNL1        0.0107
     11 C           2.5292   -0.7346   19.9480 C.ar    1  UNL1        0.0012
     12 C           1.1063   -0.4905   20.3550 C.ar    1  UNL1        0.0007
     13 C           0.3346    0.6407   19.7426 C.ar    1  UNL1        0.0103
     14 C           0.9858    1.5278   18.7234 C.ar    1  UNL1        0.0684
     15 C           2.4088    1.2837   18.3164 C.ar    1  UNL1        0.0103
     16 C           3.1805    0.1526   18.9287 C.ar    1  UNL1        0.0007
     17 C           0.2141    2.6589   18.1111 C.1     1  UNL1        0.1004
     18 N          -0.5577    3.7901   17.4988 N.1     1  UNL1       -0.1908
     19 C           7.3232   -4.0057   24.3987 C.2     1  UNL1        0.2222
     20 O           8.0340   -2.9700   23.5788 O.2     1  UNL1       -0.2751
     21 N           5.8407   -3.9102   24.6063 N.am    1  UNL1       -0.3022
     22 H           5.3742   -4.5899   25.1444 H       1  UNL1        0.1497
     23 C           8.8976   -4.9090   26.2576 C.3     1  UNL1        0.0096
     24 C           8.0949   -5.1369   25.0110 C.3     1  UNL1        0.0765
     25 C           8.0639   -6.4958   24.3769 C.3     1  UNL1        0.0096
@<TRIPOS>BOND
     1    23    24    1
     2    24    25    1
     3    24    19    1
     4    19    20    2
     5    19    21   am
     6    21     1    1
     7     1     2    1
     8     2     3    1
     9     3     4    1
    10     4     5    1
    11     5     6   ar
    12     6    11    1
    13    11    12   ar
    14    12    13   ar
    15    13    14   ar
    16    14    17    1
    17    17    18    3
    18    14    15   ar
    19    15    16   ar
    20     6     7   ar
    21     7     8   ar
    22     8     9   ar
    23     9    10   ar
    24    10     1    1
    25    10     5   ar
    26    16    11   ar
    27    21    22    1
@<TRIPOS>MOLECULE
*****
 25 27 0 0 0
SMALL
GASTEIGER

@<TRIPOS>ATOM
      1 C           6.3519   -3.8923   27.4585 C.3     1  UNL1        0.0952
      2 C           5.9834   -2.4896   27.0759 C.3     1  UNL1        0.0245
      3 C           5.7879   -1.4491   28.1385 C.3     1  UNL1        0.0067
      4 C           5.9609   -1.8114   29.5838 C.3     1  UNL1        0.0263
      5 C           6.3293   -3.2141   29.9664 C.ar    1  UNL1       -0.0216
      6 C           6.5023   -3.5765   31.4117 C.ar    1  UNL1        0.0150
      7 C           6.8707   -4.9792   31.7943 C.ar    1  UNL1        0.0985
      8 N           7.0662   -6.0197   30.7317 N.ar    1  UNL1       -0.2426
      9 C           6.8933   -5.6574   29.2865 C.ar    1  UNL1        0.0959
     10 C           6.5248   -4.2546   28.9038 C.ar    1  UNL1        0.0107
     11 C           6.3068   -2.5360   32.4743 C.ar    1  UNL1        0.0012
     12 C           7.4480   -1.6484   32.8740 C.ar    1  UNL1        0.0007
     13 C           7.2525   -0.6079   33.9366 C.ar    1  UNL1        0.0103
     14 C           5.9158   -0.4550   34.5996 C.ar    1  UNL1        0.0684
     15 C           4.7744   -1.3426   34.2000 C.ar    1  UNL1        0.0103
     16 C           4.9699   -2.3831   33.1374 C.ar    1  UNL1        0.0007
     17 C           5.7203    0.5855   35.6622 C.1     1  UNL1        0.1004
     18 N           5.5248    1.6260   36.7248 N.1     1  UNL1       -0.1908
     19 C           7.8995   -5.1272   25.7763 C.2     1  UNL1        0.2222
     20 O           9.0562   -4.2811   26.2194 O.2     1  UNL1       -0.2751
     21 N           6.5474   -4.9328   26.3959 N.am    1  UNL1       -0.3022
     22 H           5.7882   -5.4881   26.1051 H       1  UNL1        0.1497
     23 C           8.3573   -5.7522   23.2964 C.3     1  UNL1        0.0096
     24 C           8.0950   -6.1677   24.7137 C.3     1  UNL1        0.0765
     25 C           8.0282   -7.6236   25.0683 C.3     1  UNL1        0.0096
@<TRIPOS>BOND
     1    23    24    1
     2    24    25    1
     3    24    19    1
     4    19    20    2
     5    19    21   am
     6    21     1    1
     7     1     2    1
     8     2     3    1
     9     3     4    1
    10     4     5    1
    11     5     6   ar
    12     6    11    1
    13    11    12   ar
    14    12    13   ar
    15    13    14   ar
    16    14    17    1
    17    17    18    3
    18    14    15   ar
    19    15    16   ar
    20     6     7   ar
    21     7     8   ar
    22     8     9   ar
    23     9    10   ar
    24    10     1    1
    25    10     5   ar
    26    16    11   ar
    27    21    22    1
@<TRIPOS>MOLECULE
*****
 25 27 0 0 0
SMALL
GASTEIGER

@<TRIPOS>ATOM
      1 C         -11.8971   -3.3534   19.0431 C.3     1  UNL1        0.0952
      2 C         -11.1910   -2.1003   18.6177 C.3     1  UNL1        0.0245
      3 C         -11.9593   -0.8209   18.4666 C.3     1  UNL1        0.0067
      4 C         -13.4338   -0.7947   18.7408 C.3     1  UNL1        0.0263
      5 C         -14.1399   -2.0479   19.1661 C.ar    1  UNL1       -0.0216
      6 C         -15.6144   -2.0217   19.4403 C.ar    1  UNL1        0.0150
      7 C         -16.3206   -3.2749   19.8656 C.ar    1  UNL1        0.0985
      8 N         -15.5522   -4.5543   20.0167 N.ar    1  UNL1       -0.2426
      9 C         -14.0777   -4.5805   19.7426 C.ar    1  UNL1        0.0959
     10 C         -13.3715   -3.3272   19.3172 C.ar    1  UNL1        0.0107
     11 C         -16.3828   -0.7424   19.2891 C.ar    1  UNL1        0.0012
     12 C         -16.9393   -0.3553   17.9510 C.ar    1  UNL1        0.0007
     13 C         -17.7076    0.9241   17.7999 C.ar    1  UNL1        0.0103
     14 C         -17.9195    1.8164   18.9868 C.ar    1  UNL1        0.0684
     15 C         -17.3631    1.4293   20.3250 C.ar    1  UNL1        0.0103
     16 C         -16.5947    0.1500   20.4761 C.ar    1  UNL1        0.0007
     17 C         -18.6879    3.0957   18.8357 C.1     1  UNL1        0.1004
     18 N         -19.4563    4.3751   18.6845 N.1     1  UNL1       -0.1908
     19 C         -11.0396   -5.5943   18.0463 C.2     1  UNL1        0.2222
     20 O         -11.7189   -5.2764   16.7472 O.2     1  UNL1       -0.2751
     21 N         -11.1287   -4.6328   19.1942 N.am    1  UNL1       -0.3022
     22 H         -10.6829   -4.8415   20.0468 H       1  UNL1        0.1497
     23 C         -10.6057   -8.0555   17.3364 C.3     1  UNL1        0.0096
     24 C         -10.2713   -6.8736   18.1975 C.3     1  UNL1        0.0765
     25 C          -9.1685   -6.9711   19.2096 C.3     1  UNL1        0.0096
@<TRIPOS>BOND
     1    23    24    1
     2    24    25    1
     3    24    19    1
     4    19    20    2
     5    19    21   am
     6    21     1    1
     7     1     2    1
     8     2     3    1
     9     3     4    1
    10     4     5    1
    11     5     6   ar
    12     6    11    1
    13    11    12   ar
    14    12    13   ar
    15    13    14   ar
    16    14    17    1
    17    17    18    3
    18    14    15   ar
    19    15    16   ar
    20     6     7   ar
    21     7     8   ar
    22     8     9   ar
    23     9    10   ar
    24    10     1    1
    25    10     5   ar
    26    16    11   ar
    27    21    22    1
@<TRIPOS>MOLECULE
*****
 25 27 0 0 0
SMALL
GASTEIGER

@<TRIPOS>ATOM
      1 C           2.3787   -1.0811   20.7130 C.3     1  UNL1        0.0952
      2 C           1.2893   -0.4105   19.9299 C.3     1  UNL1        0.0245
      3 C           0.4294    0.6315   20.5818 C.3     1  UNL1        0.0067
      4 C           0.6590    1.0027   22.0169 C.3     1  UNL1        0.0263
      5 C           1.7484    0.3320   22.8000 C.ar    1  UNL1       -0.0216
      6 C           1.9780    0.7032   24.2351 C.ar    1  UNL1        0.0150
      7 C           3.0675    0.0326   25.0182 C.ar    1  UNL1        0.0985
      8 N           3.9273   -1.0094   24.3663 N.ar    1  UNL1       -0.2426
      9 C           3.6978   -1.3806   22.9312 C.ar    1  UNL1        0.0959
     10 C           2.6083   -0.7099   22.1480 C.ar    1  UNL1        0.0107
     11 C           1.1182    1.7452   24.8871 C.ar    1  UNL1        0.0012
     12 C           1.5292    3.1872   24.8501 C.ar    1  UNL1        0.0007
     13 C           0.6694    4.2292   25.5021 C.ar    1  UNL1        0.0103
     14 C          -0.6015    3.8290   26.1910 C.ar    1  UNL1        0.0684
     15 C          -1.0126    2.3868   26.2280 C.ar    1  UNL1        0.0103
     16 C          -0.1528    1.3449   25.5760 C.ar    1  UNL1        0.0007
     17 C          -1.4614    4.8709   26.8430 C.1     1  UNL1        0.1004
     18 N          -2.3213    5.9128   27.4949 N.1     1  UNL1       -0.1908
     19 C           4.4576   -1.7136   19.2889 C.2     1  UNL1        0.2222
     20 O           4.8168   -0.2622   19.1686 O.2     1  UNL1       -0.2751
     21 N           3.2386   -2.1231   20.0610 N.am    1  UNL1       -0.3022
     22 H           3.0028   -3.0757   20.1399 H       1  UNL1        0.1497
     23 C           6.6212   -2.3647   18.0063 C.3     1  UNL1        0.0096
     24 C           5.3175   -2.7555   18.6369 C.3     1  UNL1        0.0765
     25 C           4.8736   -4.1882   18.6155 C.3     1  UNL1        0.0096
@<TRIPOS>BOND
     1    23    24    1
     2    24    25    1
     3    24    19    1
     4    19    20    2
     5    19    21   am
     6    21     1    1
     7     1     2    1
     8     2     3    1
     9     3     4    1
    10     4     5    1
    11     5     6   ar
    12     6    11    1
    13    11    12   ar
    14    12    13   ar
    15    13    14   ar
    16    14    17    1
    17    17    18    3
    18    14    15   ar
    19    15    16   ar
    20     6     7   ar
    21     7     8   ar
    22     8     9   ar
    23     9    10   ar
    24    10     1    1
    25    10     5   ar
    26    16    11   ar
    27    21    22    1
@<TRIPOS>MOLECULE
*****
 25 27 0 0 0
SMALL
GASTEIGER

@<TRIPOS>ATOM
      1 C         -12.5918   -3.6785   19.4944 C.3     1  UNL1        0.0952
      2 C         -13.8811   -4.0898   20.1412 C.3     1  UNL1        0.0245
      3 C         -15.0586   -3.1608   20.1240 C.3     1  UNL1        0.0067
      4 C         -14.9469   -1.8204   19.4600 C.3     1  UNL1        0.0263
      5 C         -13.6575   -1.4091   18.8132 C.ar    1  UNL1       -0.0216
      6 C         -13.5457   -0.0687   18.1492 C.ar    1  UNL1        0.0150
      7 C         -12.2564    0.3426   17.5024 C.ar    1  UNL1        0.0985
      8 N         -11.0788   -0.5865   17.5196 N.ar    1  UNL1       -0.2426
      9 C         -11.1906   -1.9268   18.1836 C.ar    1  UNL1        0.0959
     10 C         -12.4800   -2.3382   18.8304 C.ar    1  UNL1        0.0107
     11 C         -14.7232    0.8603   18.1319 C.ar    1  UNL1        0.0012
     12 C         -15.7039    0.8072   16.9982 C.ar    1  UNL1        0.0007
     13 C         -16.8814    1.7363   16.9810 C.ar    1  UNL1        0.0103
     14 C         -17.0783    2.7183   18.0975 C.ar    1  UNL1        0.0684
     15 C         -16.0976    2.7714   19.2314 C.ar    1  UNL1        0.0103
     16 C         -14.9201    1.8424   19.2486 C.ar    1  UNL1        0.0007
     17 C         -18.2559    3.6474   18.0803 C.1     1  UNL1        0.1004
     18 N         -19.4334    4.5764   18.0631 N.1     1  UNL1       -0.1908
     19 C         -11.3848   -5.7981   18.5998 C.2     1  UNL1        0.2222
     20 O         -12.5331   -6.0598   17.6706 O.2     1  UNL1       -0.2751
     21 N         -11.4142   -4.6075   19.5116 N.am    1  UNL1       -0.3022
     22 H         -10.6606   -4.4358   20.1214 H       1  UNL1        0.1497
     23 C         -10.2219   -7.9721   17.7803 C.3     1  UNL1        0.0096
     24 C         -10.2073   -6.7272   18.6170 C.3     1  UNL1        0.0765
     25 C          -9.0152   -6.4113   19.4708 C.3     1  UNL1        0.0096
@<TRIPOS>BOND
     1    23    24    1
     2    24    25    1
     3    24    19    1
     4    19    20    2
     5    19    21   am
     6    21     1    1
     7     1     2    1
     8     2     3    1
     9     3     4    1
    10     4     5    1
    11     5     6   ar
    12     6    11    1
    13    11    12   ar
    14    12    13   ar
    15    13    14   ar
    16    14    17    1
    17    17    18    3
    18    14    15   ar
    19    15    16   ar
    20     6     7   ar
    21     7     8   ar
    22     8     9   ar
    23     9    10   ar
    24    10     1    1
    25    10     5   ar
    26    16    11   ar
    27    21    22    1
@<TRIPOS>MOLECULE
*****
 25 27 0 0 0
SMALL
GASTEIGER

@<TRIPOS>ATOM
      1 C          -3.0299    4.4737   22.4787 C.3     1  UNL1        0.0952
      2 C          -3.5196    4.5859   21.0653 C.3     1  UNL1        0.0245
      3 C          -2.7588    3.9264   19.9534 C.3     1  UNL1        0.0067
      4 C          -1.5084    3.1548   20.2548 C.3     1  UNL1        0.0263
      5 C          -1.0187    3.0426   21.6681 C.ar    1  UNL1       -0.0216
      6 C           0.2318    2.2709   21.9695 C.ar    1  UNL1        0.0150
      7 C           0.7216    2.1587   23.3828 C.ar    1  UNL1        0.0985
      8 N          -0.0392    2.8181   24.4948 N.ar    1  UNL1       -0.2426
      9 C          -1.2896    3.5898   24.1934 C.ar    1  UNL1        0.0959
     10 C          -1.7794    3.7020   22.7800 C.ar    1  UNL1        0.0107
     11 C           0.9926    1.6114   20.8576 C.ar    1  UNL1        0.0012
     12 C           0.7864    0.1540   20.5692 C.ar    1  UNL1        0.0007
     13 C           1.5472   -0.5055   19.4572 C.ar    1  UNL1        0.0103
     14 C           2.5140    0.2926   18.6337 C.ar    1  UNL1        0.0684
     15 C           2.7202    1.7501   18.9221 C.ar    1  UNL1        0.0103
     16 C           1.9595    2.4096   20.0340 C.ar    1  UNL1        0.0007
     17 C           3.2748   -0.3669   17.5217 C.1     1  UNL1        0.1004
     18 N           4.0355   -1.0263   16.4098 N.1     1  UNL1       -0.1908
     19 C          -4.7922    4.3468   24.3834 C.2     1  UNL1        0.2222
     20 O          -5.0330    2.9011   24.0643 O.2     1  UNL1       -0.2751
     21 N          -3.7906    5.1331   23.5906 N.am    1  UNL1       -0.3022
     22 H          -3.6325    6.0820   23.8000 H       1  UNL1        0.1497
     23 C          -6.8945    5.6204   25.2250 C.3     1  UNL1        0.0096
     24 C          -5.5529    5.0063   25.4954 C.3     1  UNL1        0.0765
     25 C          -4.9721    5.0516   26.8776 C.3     1  UNL1        0.0096
@<TRIPOS>BOND
     1    23    24    1
     2    24    25    1
     3    24    19    1
     4    19    20    2
     5    19    21   am
     6    21     1    1
     7     1     2    1
     8     2     3    1
     9     3     4    1
    10     4     5    1
    11     5     6   ar
    12     6    11    1
    13    11    12   ar
    14    12    13   ar
    15    13    14   ar
    16    14    17    1
    17    17    18    3
    18    14    15   ar
    19    15    16   ar
    20     6     7   ar
    21     7     8   ar
    22     8     9   ar
    23     9    10   ar
    24    10     1    1
    25    10     5   ar
    26    16    11   ar
    27    21    22    1
@<TRIPOS>MOLECULE
*****
 25 27 0 0 0
SMALL
GASTEIGER

@<TRIPOS>ATOM
      1 C          -1.9709    3.8675   21.9200 C.3     1  UNL1        0.0952
      2 C          -1.1971    3.2448   23.0440 C.3     1  UNL1        0.0245
      3 C           0.0692    2.4937   22.7571 C.3     1  UNL1        0.0067
      4 C           0.5617    2.3652   21.3461 C.3     1  UNL1        0.0263
      5 C          -0.2121    2.9879   20.2221 C.ar    1  UNL1       -0.0216
      6 C           0.2803    2.8595   18.8110 C.ar    1  UNL1        0.0150
      7 C          -0.4935    3.4822   17.6870 C.ar    1  UNL1        0.0985
      8 N          -1.7597    4.2333   17.9739 N.ar    1  UNL1       -0.2426
      9 C          -2.2522    4.3617   19.3849 C.ar    1  UNL1        0.0959
     10 C          -1.4784    3.7390   20.5090 C.ar    1  UNL1        0.0107
     11 C           1.5466    2.1083   18.5240 C.ar    1  UNL1        0.0012
     12 C           2.8577    2.8359   18.4845 C.ar    1  UNL1        0.0007
     13 C           4.1240    2.0848   18.1975 C.ar    1  UNL1        0.0103
     14 C           4.0791    0.6061   17.9501 C.ar    1  UNL1        0.0684
     15 C           2.7680   -0.1216   17.9896 C.ar    1  UNL1        0.0103
     16 C           1.5017    0.6295   18.2766 C.ar    1  UNL1        0.0007
     17 C           5.3454   -0.1451   17.6631 C.1     1  UNL1        0.1004
     18 N           6.6117   -0.8962   17.3761 N.1     1  UNL1       -0.1908
     19 C          -4.5648    3.9392   22.0474 C.2     1  UNL1        0.2222
     20 O          -4.6263    2.5084   21.6008 O.2     1  UNL1       -0.2751
     21 N          -3.2371    4.6186   22.2070 N.am    1  UNL1       -0.3022
     22 H          -3.1968    5.5576   22.5001 H       1  UNL1        0.1497
     23 C          -6.3431    5.7006   21.3508 C.3     1  UNL1        0.0096
     24 C          -5.8311    4.6903   22.3343 C.3     1  UNL1        0.0765
     25 C          -6.5853    4.4312   23.6047 C.3     1  UNL1        0.0096
@<TRIPOS>BOND
     1    23    24    1
     2    24    25    1
     3    24    19    1
     4    19    20    2
     5    19    21   am
     6    21     1    1
     7     1     2    1
     8     2     3    1
     9     3     4    1
    10     4     5    1
    11     5     6   ar
    12     6    11    1
    13    11    12   ar
    14    12    13   ar
    15    13    14   ar
    16    14    17    1
    17    17    18    3
    18    14    15   ar
    19    15    16   ar
    20     6     7   ar
    21     7     8   ar
    22     8     9   ar
    23     9    10   ar
    24    10     1    1
    25    10     5   ar
    26    16    11   ar
    27    21    22    1
