@<TRIPOS>MOLECULE
*****
 36 41 0 0 0
SMALL
GASTEIGER

@<TRIPOS>ATOM
      1 C           5.7819   -1.9310   32.4933 C.2     1  UNL1       -0.0378
      2 C           5.7417   -1.1942   31.1873 C.2     1  UNL1       -0.0080
      3 C           6.1162   -1.8985   29.9170 C.2     1  UNL1        0.0022
      4 C           6.5309   -3.3396   29.9526 C.2     1  UNL1        0.0350
      5 C           6.9519   -4.2900   28.8711 C.2     1  UNL1        0.1040
      6 N           7.2523   -5.6141   29.5087 N.2     1  UNL1       -0.1483
      7 N           7.0170   -5.4821   30.9842 N.2     1  UNL1       -0.1520
      8 C           6.5712   -4.0764   31.2586 C.2     1  UNL1        0.0860
      9 C           6.1967   -3.3721   32.5289 C.3     1  UNL1        0.0697
     10 C           4.4196    1.4016   38.3113 C.ar    1  UNL1        0.1385
     11 C           5.7155    2.0470   38.7039 C.ar    1  UNL1        0.0382
     12 C           6.9336    1.8648   37.8476 C.ar    1  UNL1        0.0175
     13 C           6.8557    1.0374   36.5989 C.ar    1  UNL1        0.0469
     14 C           5.5598    0.3920   36.2064 C.ar    1  UNL1        0.0022
     15 C           4.3417    0.5741   37.0626 C.ar    1  UNL1        0.0343
     16 C           5.7854   -0.3617   34.9293 C.3     1  UNL1        0.0928
     17 C           4.3809   -0.8717   34.7981 C.3     1  UNL1        0.0179
     18 C           5.4074   -1.2267   33.7636 C.3     1  UNL1        0.0315
     19 C           7.2208   -0.1822   34.5326 C.2     1  UNL1        0.2293
     20 O           7.8791   -0.7651   33.3173 O.2     1  UNL1       -0.2744
     21 N           7.8823    0.6824   35.5644 N.am    1  UNL1       -0.2839
     22 H           8.8248    0.9670   35.5629 H       1  UNL1        0.1549
     23 C           1.9584    0.7948   38.8807 C.3     1  UNL1        0.2525
     24 O           3.2015    1.5837   39.1675 O.3     1  UNL1       -0.4714
     25 C           7.0544   -3.9720   27.4088 C.2     1  UNL1        0.0209
     26 C           6.9377   -5.0692   26.3927 C.2     1  UNL1        0.0016
     27 C           7.0402   -4.7513   24.9304 C.ar    1  UNL1        0.0000
     28 C           6.1165   -3.7418   24.3158 C.ar    1  UNL1       -0.0003
     29 C           6.2190   -3.4239   22.8535 C.ar    1  UNL1       -0.0029
     30 C           7.2451   -4.1155   22.0058 C.ar    1  UNL1       -0.0061
     31 C           8.1688   -5.1250   22.6203 C.ar    1  UNL1       -0.0029
     32 C           8.0663   -5.4429   24.0826 C.ar    1  UNL1       -0.0003
     33 C           7.3475   -3.7975   20.5434 C.3     1  UNL1        0.0992
     34 N           6.1365   -3.3331   19.7902 N.3     1  UNL1       -0.2665
     35 C           5.9859   -1.8843   19.4319 C.3     1  UNL1        0.0899
     36 C           5.0757   -4.3174   19.3951 C.3     1  UNL1        0.0899
@<TRIPOS>BOND
     1    23    24    1
     2    24    10    1
     3    10    11   ar
     4    11    12   ar
     5    12    13   ar
     6    13    14   ar
     7    14    15   ar
     8    14    16    1
     9    16    17    1
    10    17    18    1
    11    18     1    1
    12     1     2    2
    13     2     3    1
    14     3     4    2
    15     4     5    1
    16     5    25    1
    17    25    26    2
    18    26    27    1
    19    27    28   ar
    20    28    29   ar
    21    29    30   ar
    22    30    33    1
    23    33    34    1
    24    34    35    1
    25    34    36    1
    26    30    31   ar
    27    31    32   ar
    28     5     6    2
    29     6     7    1
    30     7     8    2
    31     8     9    1
    32    16    19    1
    33    19    20    2
    34    19    21   am
    35    15    10   ar
    36    18    16    1
    37     9     1    1
    38    21    13    1
    39     8     4    1
    40    32    27   ar
    41    21    22    1
@<TRIPOS>MOLECULE
*****
 36 41 0 0 0
SMALL
GASTEIGER

@<TRIPOS>ATOM
      1 C          -2.8404    4.4214   21.5964 C.2     1  UNL1       -0.0378
      2 C          -1.8055    3.4287   22.0364 C.2     1  UNL1       -0.0080
      3 C          -0.8140    2.8909   21.0475 C.2     1  UNL1        0.0022
      4 C          -0.8574    3.3457   19.6189 C.2     1  UNL1        0.0350
      5 C          -0.0170    2.9935   18.4274 C.2     1  UNL1        0.1040
      6 N          -0.5325    3.7684   17.2511 N.2     1  UNL1       -0.1483
      7 N          -1.6915    4.5996   17.7156 N.2     1  UNL1       -0.1520
      8 C          -1.8923    4.3384   19.1789 C.2     1  UNL1        0.0860
      9 C          -2.8838    4.8763   20.1677 C.3     1  UNL1        0.0697
     10 C          -7.6190    6.6637   25.9495 C.ar    1  UNL1        0.1385
     11 C          -8.8751    5.9460   25.5534 C.ar    1  UNL1        0.0382
     12 C          -8.8565    4.9789   24.4069 C.ar    1  UNL1        0.0175
     13 C          -7.5818    4.7295   23.6567 C.ar    1  UNL1        0.0469
     14 C          -6.3256    5.4472   24.0529 C.ar    1  UNL1        0.0022
     15 C          -6.3441    6.4143   25.1993 C.ar    1  UNL1        0.0343
     16 C          -5.2273    5.0009   23.1339 C.3     1  UNL1        0.0928
     17 C          -4.1539    5.8489   23.7490 C.3     1  UNL1        0.0179
     18 C          -3.8319    4.9592   22.5852 C.3     1  UNL1        0.0315
     19 C          -5.8047    4.0075   22.1697 C.2     1  UNL1        0.2293
     20 O          -5.0581    3.3051   21.0746 O.2     1  UNL1       -0.2744
     21 N          -7.2599    3.8397   22.4928 N.am    1  UNL1       -0.2839
     22 H          -7.8925    3.2492   22.0233 H       1  UNL1        0.1549
     23 C          -6.6027    7.5319   28.1774 C.3     1  UNL1        0.2525
     24 O          -7.6375    7.6308   27.0960 O.3     1  UNL1       -0.4714
     25 C           1.1364    2.0345   18.4145 C.2     1  UNL1        0.0209
     26 C           0.9610    0.6432   18.9469 C.2     1  UNL1        0.0016
     27 C           2.1144   -0.3158   18.9341 C.ar    1  UNL1        0.0000
     28 C           2.2902   -1.2924   20.0589 C.ar    1  UNL1       -0.0003
     29 C           3.4435   -2.2514   20.0462 C.ar    1  UNL1       -0.0029
     30 C           4.4209   -2.2337   18.9085 C.ar    1  UNL1       -0.0061
     31 C           4.2451   -1.2572   17.7837 C.ar    1  UNL1       -0.0029
     32 C           3.0918   -0.2981   17.7964 C.ar    1  UNL1       -0.0003
     33 C           5.5743   -3.1928   18.8958 C.3     1  UNL1        0.0992
     34 N           6.8545   -2.8355   19.5907 N.3     1  UNL1       -0.2665
     35 C           7.9402   -2.1207   18.8421 C.3     1  UNL1        0.0899
     36 C           7.0493   -3.1930   21.0345 C.3     1  UNL1        0.0899
@<TRIPOS>BOND
     1    23    24    1
     2    24    10    1
     3    10    11   ar
     4    11    12   ar
     5    12    13   ar
     6    13    14   ar
     7    14    15   ar
     8    14    16    1
     9    16    17    1
    10    17    18    1
    11    18     1    1
    12     1     2    2
    13     2     3    1
    14     3     4    2
    15     4     5    1
    16     5    25    1
    17    25    26    2
    18    26    27    1
    19    27    28   ar
    20    28    29   ar
    21    29    30   ar
    22    30    33    1
    23    33    34    1
    24    34    35    1
    25    34    36    1
    26    30    31   ar
    27    31    32   ar
    28     5     6    2
    29     6     7    1
    30     7     8    2
    31     8     9    1
    32    16    19    1
    33    19    20    2
    34    19    21   am
    35    15    10   ar
    36    18    16    1
    37     9     1    1
    38    21    13    1
    39     8     4    1
    40    32    27   ar
    41    21    22    1
@<TRIPOS>MOLECULE
*****
 36 41 0 0 0
SMALL
GASTEIGER

@<TRIPOS>ATOM
      1 C           7.5470   -2.5334   31.2980 C.2     1  UNL1       -0.0378
      2 C           7.4412   -1.8436   29.9702 C.2     1  UNL1       -0.0080
      3 C           7.5288   -2.6402   28.7022 C.2     1  UNL1        0.0022
      4 C           7.7223   -4.1264   28.7619 C.2     1  UNL1        0.0350
      5 C           7.8439   -5.1667   27.6882 C.2     1  UNL1        0.1040
      6 N           8.0250   -6.4995   28.3523 N.2     1  UNL1       -0.1483
      7 N           8.0152   -6.2828   29.8365 N.2     1  UNL1       -0.1520
      8 C           7.8281   -4.8162   30.0897 C.2     1  UNL1        0.0860
      9 C           7.7405   -4.0197   31.3577 C.3     1  UNL1        0.0697
     10 C           6.7884    1.0245   37.0926 C.ar    1  UNL1        0.1385
     11 C           5.3318    0.9108   37.4323 C.ar    1  UNL1        0.0382
     12 C           4.4129    0.1279   36.5419 C.ar    1  UNL1        0.0175
     13 C           4.9508   -0.5414   35.3119 C.ar    1  UNL1        0.0469
     14 C           6.4074   -0.4277   34.9723 C.ar    1  UNL1        0.0022
     15 C           7.3262    0.3552   35.8626 C.ar    1  UNL1        0.0343
     16 C           6.6482   -1.1900   33.7031 C.3     1  UNL1        0.0928
     17 C           8.1187   -0.9045   33.6253 C.3     1  UNL1        0.0179
     18 C           7.4594   -1.7370   32.5660 C.3     1  UNL1        0.0315
     19 C           5.3405   -1.7747   33.2583 C.2     1  UNL1        0.2293
     20 O           5.1204   -2.6132   32.0341 O.2     1  UNL1       -0.2744
     21 N           4.2913   -1.3739   34.2526 N.am    1  UNL1       -0.2839
     22 H           3.3375   -1.6149   34.2163 H       1  UNL1        0.1549
     23 C           7.1606    2.5187   39.1852 C.3     1  UNL1        0.2525
     24 O           7.7072    1.8074   37.9830 O.3     1  UNL1       -0.4714
     25 C           7.7934   -4.9180   26.2098 C.2     1  UNL1        0.0209
     26 C           6.5824   -4.2785   25.5978 C.2     1  UNL1        0.0016
     27 C           6.5318   -4.0296   24.1194 C.ar    1  UNL1        0.0000
     28 C           7.6845   -4.4372   23.2505 C.ar    1  UNL1       -0.0003
     29 C           7.6340   -4.1884   21.7721 C.ar    1  UNL1       -0.0029
     30 C           6.4307   -3.5321   21.1628 C.ar    1  UNL1       -0.0061
     31 C           5.2780   -3.1246   22.0318 C.ar    1  UNL1       -0.0029
     32 C           5.3285   -3.3733   23.5101 C.ar    1  UNL1       -0.0003
     33 C           6.3802   -3.2833   19.6844 C.3     1  UNL1        0.0992
     34 N           5.1093   -3.5268   18.9259 N.3     1  UNL1       -0.2665
     35 C           4.5356   -4.9106   18.8482 C.3     1  UNL1        0.0899
     36 C           4.4121   -2.3866   18.2449 C.3     1  UNL1        0.0899
@<TRIPOS>BOND
     1    23    24    1
     2    24    10    1
     3    10    11   ar
     4    11    12   ar
     5    12    13   ar
     6    13    14   ar
     7    14    15   ar
     8    14    16    1
     9    16    17    1
    10    17    18    1
    11    18     1    1
    12     1     2    2
    13     2     3    1
    14     3     4    2
    15     4     5    1
    16     5    25    1
    17    25    26    2
    18    26    27    1
    19    27    28   ar
    20    28    29   ar
    21    29    30   ar
    22    30    33    1
    23    33    34    1
    24    34    35    1
    25    34    36    1
    26    30    31   ar
    27    31    32   ar
    28     5     6    2
    29     6     7    1
    30     7     8    2
    31     8     9    1
    32    16    19    1
    33    19    20    2
    34    19    21   am
    35    15    10   ar
    36    18    16    1
    37     9     1    1
    38    21    13    1
    39     8     4    1
    40    32    27   ar
    41    21    22    1
@<TRIPOS>MOLECULE
*****
 36 41 0 0 0
SMALL
GASTEIGER

@<TRIPOS>ATOM
      1 C          -1.4663    3.2177   26.8699 C.2     1  UNL1       -0.0378
      2 C          -0.9989    1.7990   27.0068 C.2     1  UNL1       -0.0080
      3 C           0.3032    1.5009   27.6894 C.2     1  UNL1        0.0022
      4 C           1.1377    2.6215   28.2350 C.2     1  UNL1        0.0350
      5 C           2.4554    2.6347   28.9516 C.2     1  UNL1        0.1040
      6 N           2.8024    4.0616   29.2577 N.2     1  UNL1       -0.1483
      7 N           1.6991    4.9302   28.7301 N.2     1  UNL1       -0.1520
      8 C           0.6703    4.0402   28.0980 C.2     1  UNL1        0.0860
      9 C          -0.6317    4.3384   27.4155 C.3     1  UNL1        0.0697
     10 C          -7.2303    4.5555   23.4349 C.ar    1  UNL1        0.1385
     11 C          -6.8354    4.5367   21.9879 C.ar    1  UNL1        0.0382
     12 C          -5.4124    4.2598   21.6025 C.ar    1  UNL1        0.0175
     13 C          -4.3845    4.0018   22.6639 C.ar    1  UNL1        0.0469
     14 C          -4.7794    4.0206   24.1109 C.ar    1  UNL1        0.0022
     15 C          -6.2023    4.2975   24.4964 C.ar    1  UNL1        0.0343
     16 C          -3.5556    3.7328   24.9291 C.3     1  UNL1        0.0928
     17 C          -4.2361    3.8154   26.2633 C.3     1  UNL1        0.0179
     18 C          -2.7683    3.5159   26.1874 C.3     1  UNL1        0.0315
     19 C          -2.4044    3.5360   23.9879 C.2     1  UNL1        0.2293
     20 O          -0.9893    3.2272   24.3781 O.2     1  UNL1       -0.2744
     21 N          -2.9166    3.7022   22.5879 N.am    1  UNL1       -0.2839
     22 H          -2.3831    3.6278   21.7639 H       1  UNL1        0.1549
     23 C          -8.9645    5.9121   24.8141 C.3     1  UNL1        0.2525
     24 O          -8.6532    4.8324   23.8204 O.3     1  UNL1       -0.4714
     25 C           3.2811    1.4321   29.3010 C.2     1  UNL1        0.0209
     26 C           3.3465    0.9541   30.7213 C.2     1  UNL1        0.0016
     27 C           4.1722   -0.2485   31.0707 C.ar    1  UNL1        0.0000
     28 C           5.2491   -0.7158   30.1369 C.ar    1  UNL1       -0.0003
     29 C           6.0748   -1.9184   30.4863 C.ar    1  UNL1       -0.0029
     30 C           5.8236   -2.6535   31.7694 C.ar    1  UNL1       -0.0061
     31 C           4.7467   -2.1862   32.7031 C.ar    1  UNL1       -0.0029
     32 C           3.9210   -0.9836   32.3538 C.ar    1  UNL1       -0.0003
     33 C           6.6493   -3.8561   32.1187 C.3     1  UNL1        0.0992
     34 N           8.1154   -3.8767   31.8028 N.3     1  UNL1       -0.2665
     35 C           9.0320   -2.8678   32.4290 C.3     1  UNL1        0.0899
     36 C           8.6652   -4.9063   30.8605 C.3     1  UNL1        0.0899
@<TRIPOS>BOND
     1    23    24    1
     2    24    10    1
     3    10    11   ar
     4    11    12   ar
     5    12    13   ar
     6    13    14   ar
     7    14    15   ar
     8    14    16    1
     9    16    17    1
    10    17    18    1
    11    18     1    1
    12     1     2    2
    13     2     3    1
    14     3     4    2
    15     4     5    1
    16     5    25    1
    17    25    26    2
    18    26    27    1
    19    27    28   ar
    20    28    29   ar
    21    29    30   ar
    22    30    33    1
    23    33    34    1
    24    34    35    1
    25    34    36    1
    26    30    31   ar
    27    31    32   ar
    28     5     6    2
    29     6     7    1
    30     7     8    2
    31     8     9    1
    32    16    19    1
    33    19    20    2
    34    19    21   am
    35    15    10   ar
    36    18    16    1
    37     9     1    1
    38    21    13    1
    39     8     4    1
    40    32    27   ar
    41    21    22    1
@<TRIPOS>MOLECULE
*****
 36 41 0 0 0
SMALL
GASTEIGER

@<TRIPOS>ATOM
      1 C           6.5233   -3.8553   25.6483 C.2     1  UNL1       -0.0378
      2 C           6.0225   -2.8274   26.6193 C.2     1  UNL1       -0.0080
      3 C           6.1238   -3.0775   28.0949 C.2     1  UNL1        0.0022
      4 C           6.7258   -4.3553   28.5995 C.2     1  UNL1        0.0350
      5 C           6.9573   -4.8766   29.9868 C.2     1  UNL1        0.1040
      6 N           7.6011   -6.2267   29.8733 N.2     1  UNL1       -0.1483
      7 N           7.7675   -6.5397   28.4158 N.2     1  UNL1       -0.1520
      8 C           7.2266   -5.3831   27.6285 C.2     1  UNL1        0.0860
      9 C           7.1254   -5.1332   26.1530 C.3     1  UNL1        0.0697
     10 C           6.4123   -2.6076   18.9221 C.ar    1  UNL1        0.1385
     11 C           7.7919   -2.1193   18.5931 C.ar    1  UNL1        0.0382
     12 C           8.8253   -2.0067   19.6745 C.ar    1  UNL1        0.0175
     13 C           8.4790   -2.3823   21.0848 C.ar    1  UNL1        0.0469
     14 C           7.0994   -2.8705   21.4138 C.ar    1  UNL1        0.0022
     15 C           6.0659   -2.9832   20.3324 C.ar    1  UNL1        0.0343
     16 C           7.0504   -3.1658   22.8836 C.3     1  UNL1        0.0928
     17 C           5.6184   -3.6118   22.9063 C.3     1  UNL1        0.0179
     18 C           6.4221   -3.6053   24.1728 C.3     1  UNL1        0.0315
     19 C           8.3997   -2.8600   23.4631 C.2     1  UNL1        0.2293
     20 O           8.7965   -3.0118   24.9016 O.2     1  UNL1       -0.2744
     21 N           9.2827   -2.3758   22.3514 N.am    1  UNL1       -0.2839
     22 H          10.2244   -2.1018   22.4378 H       1  UNL1        0.1549
     23 C           4.3640   -1.6312   17.6567 C.3     1  UNL1        0.2525
     24 O           5.3788   -2.7203   17.8407 O.3     1  UNL1       -0.4714
     25 C           6.6065   -4.1716   31.2635 C.2     1  UNL1        0.0209
     26 C           6.4289   -2.6822   31.2734 C.2     1  UNL1        0.0016
     27 C           6.0781   -1.9771   32.5501 C.ar    1  UNL1        0.0000
     28 C           4.7288   -2.1808   33.1729 C.ar    1  UNL1       -0.0003
     29 C           4.3779   -1.4757   34.4496 C.ar    1  UNL1       -0.0029
     30 C           5.3764   -0.5671   35.1033 C.ar    1  UNL1       -0.0061
     31 C           6.7257   -0.3635   34.4805 C.ar    1  UNL1       -0.0029
     32 C           7.0766   -1.0685   33.2039 C.ar    1  UNL1       -0.0003
     33 C           5.0255    0.1379   36.3800 C.3     1  UNL1        0.0992
     34 N           3.9764    1.2099   36.3809 N.3     1  UNL1       -0.2665
     35 C           3.7666    2.0551   35.1596 C.3     1  UNL1        0.0899
     36 C           3.1369    1.4368   37.6032 C.3     1  UNL1        0.0899
@<TRIPOS>BOND
     1    23    24    1
     2    24    10    1
     3    10    11   ar
     4    11    12   ar
     5    12    13   ar
     6    13    14   ar
     7    14    15   ar
     8    14    16    1
     9    16    17    1
    10    17    18    1
    11    18     1    1
    12     1     2    2
    13     2     3    1
    14     3     4    2
    15     4     5    1
    16     5    25    1
    17    25    26    2
    18    26    27    1
    19    27    28   ar
    20    28    29   ar
    21    29    30   ar
    22    30    33    1
    23    33    34    1
    24    34    35    1
    25    34    36    1
    26    30    31   ar
    27    31    32   ar
    28     5     6    2
    29     6     7    1
    30     7     8    2
    31     8     9    1
    32    16    19    1
    33    19    20    2
    34    19    21   am
    35    15    10   ar
    36    18    16    1
    37     9     1    1
    38    21    13    1
    39     8     4    1
    40    32    27   ar
    41    21    22    1
@<TRIPOS>MOLECULE
*****
 36 41 0 0 0
SMALL
GASTEIGER

@<TRIPOS>ATOM
      1 C           2.1157    0.5943   24.3350 C.2     1  UNL1       -0.0378
      2 C           2.9882    0.8324   25.5316 C.2     1  UNL1       -0.0080
      3 C           2.4291    1.5180   26.7430 C.2     1  UNL1        0.0022
      4 C           0.9975    1.9654   26.7577 C.2     1  UNL1        0.0350
      5 C           0.1740    2.6612   27.8007 C.2     1  UNL1        0.1040
      6 N          -1.2075    2.8531   27.2487 N.2     1  UNL1       -0.1483
      7 N          -1.2378    2.2759   25.8645 N.2     1  UNL1       -0.1520
      8 C           0.1250    1.7274   25.5610 C.2     1  UNL1        0.0860
      9 C           0.6840    1.0418   24.3497 C.3     1  UNL1        0.0697
     10 C           4.6469   -2.2125   18.6317 C.ar    1  UNL1        0.1385
     11 C           4.7021   -1.0915   17.6366 C.ar    1  UNL1        0.0382
     12 C           4.2448    0.2824   18.0285 C.ar    1  UNL1        0.0175
     13 C           3.7324    0.5351   19.4153 C.ar    1  UNL1        0.0469
     14 C           3.6772   -0.5859   20.4105 C.ar    1  UNL1        0.0022
     15 C           4.1345   -1.9597   20.0187 C.ar    1  UNL1        0.0343
     16 C           3.1278   -0.0391   21.6946 C.3     1  UNL1        0.0928
     17 C           3.1902   -1.3308   22.4545 C.3     1  UNL1        0.0179
     18 C           2.6748   -0.0913   23.1236 C.3     1  UNL1        0.0315
     19 C           2.8433    1.4199   21.4931 C.2     1  UNL1        0.2293
     20 O           2.2835    2.3590   22.5200 O.2     1  UNL1       -0.2744
     21 N           3.2170    1.7748   20.0845 N.am    1  UNL1       -0.2839
     22 H           3.1379    2.6650   19.6716 H       1  UNL1        0.1549
     23 C           4.4978   -4.7931   18.8926 C.3     1  UNL1        0.2525
     24 O           5.1042   -3.5863   18.2400 O.3     1  UNL1       -0.4714
     25 C           0.6487    3.0898   29.1575 C.2     1  UNL1        0.0209
     26 C           0.5437    2.1485   30.3207 C.2     1  UNL1        0.0016
     27 C           1.0184    2.5770   31.6776 C.ar    1  UNL1        0.0000
     28 C           2.0134    1.7382   32.4234 C.ar    1  UNL1       -0.0003
     29 C           2.4881    2.1666   33.7803 C.ar    1  UNL1       -0.0029
     30 C           1.9678    3.4338   34.3913 C.ar    1  UNL1       -0.0061
     31 C           0.9727    4.2726   33.6454 C.ar    1  UNL1       -0.0029
     32 C           0.4980    3.8442   32.2885 C.ar    1  UNL1       -0.0003
     33 C           2.4425    3.8622   35.7482 C.3     1  UNL1        0.0992
     34 N           3.2483    2.9204   36.5928 N.3     1  UNL1       -0.2665
     35 C           4.7468    2.9742   36.5552 C.3     1  UNL1        0.0899
     36 C           2.5555    1.9245   37.4752 C.3     1  UNL1        0.0899
@<TRIPOS>BOND
     1    23    24    1
     2    24    10    1
     3    10    11   ar
     4    11    12   ar
     5    12    13   ar
     6    13    14   ar
     7    14    15   ar
     8    14    16    1
     9    16    17    1
    10    17    18    1
    11    18     1    1
    12     1     2    2
    13     2     3    1
    14     3     4    2
    15     4     5    1
    16     5    25    1
    17    25    26    2
    18    26    27    1
    19    27    28   ar
    20    28    29   ar
    21    29    30   ar
    22    30    33    1
    23    33    34    1
    24    34    35    1
    25    34    36    1
    26    30    31   ar
    27    31    32   ar
    28     5     6    2
    29     6     7    1
    30     7     8    2
    31     8     9    1
    32    16    19    1
    33    19    20    2
    34    19    21   am
    35    15    10   ar
    36    18    16    1
    37     9     1    1
    38    21    13    1
    39     8     4    1
    40    32    27   ar
    41    21    22    1
@<TRIPOS>MOLECULE
*****
 36 41 0 0 0
SMALL
GASTEIGER

@<TRIPOS>ATOM
      1 C           1.8400    3.2039   29.6386 C.2     1  UNL1       -0.0378
      2 C           2.8646    2.4300   28.8632 C.2     1  UNL1       -0.0080
      3 C           2.5107    1.8461   27.5276 C.2     1  UNL1        0.0022
      4 C           1.1323    2.0360   26.9674 C.2     1  UNL1        0.0350
      5 C           0.4977    1.5805   25.6869 C.2     1  UNL1        0.1040
      6 N          -0.9191    2.0729   25.6708 N.2     1  UNL1       -0.1483
      7 N          -1.1601    2.8327   26.9415 N.2     1  UNL1       -0.1520
      8 C           0.1077    2.8099   27.7429 C.2     1  UNL1        0.0860
      9 C           0.4615    3.3938   29.0784 C.3     1  UNL1        0.0697
     10 C           3.3436    5.5539   35.8859 C.ar    1  UNL1        0.1385
     11 C           2.9853    4.4361   36.8198 C.ar    1  UNL1        0.0382
     12 C           2.4269    3.1545   36.2761 C.ar    1  UNL1        0.0175
     13 C           2.2268    2.9907   34.7986 C.ar    1  UNL1        0.0469
     14 C           2.5852    4.1084   33.8647 C.ar    1  UNL1        0.0022
     15 C           3.1436    5.3901   34.4083 C.ar    1  UNL1        0.0343
     16 C           2.2795    3.6601   32.4663 C.3     1  UNL1        0.0928
     17 C           2.7210    4.9270   31.7954 C.3     1  UNL1        0.0179
     18 C           2.1938    3.7879   30.9742 C.3     1  UNL1        0.0315
     19 C           1.7322    2.2653   32.5359 C.2     1  UNL1        0.2293
     20 O           1.2943    1.4307   31.3690 O.2     1  UNL1       -0.2744
     21 N           1.6996    1.8515   33.9773 N.am    1  UNL1       -0.2839
     22 H           1.3871    0.9845   34.3236 H       1  UNL1        0.1549
     23 C           5.0696    7.4913   35.7537 C.3     1  UNL1        0.2525
     24 O           3.9020    6.8356   36.4295 O.3     1  UNL1       -0.4714
     25 C           1.1631    0.7742   24.6112 C.2     1  UNL1        0.0209
     26 C           0.9320    1.1131   23.1684 C.2     1  UNL1        0.0016
     27 C           1.5974    0.3068   22.0926 C.ar    1  UNL1        0.0000
     28 C           2.8129   -0.5119   22.4124 C.ar    1  UNL1       -0.0003
     29 C           3.4783   -1.3182   21.3367 C.ar    1  UNL1       -0.0029
     30 C           2.9282   -1.3057   19.9413 C.ar    1  UNL1       -0.0061
     31 C           1.7127   -0.4869   19.6215 C.ar    1  UNL1       -0.0029
     32 C           1.0473    0.3193   20.6972 C.ar    1  UNL1       -0.0003
     33 C           3.5937   -2.1120   18.8656 C.3     1  UNL1        0.0992
     34 N           4.3138   -3.3802   19.2158 N.3     1  UNL1       -0.2665
     35 C           3.5455   -4.6580   19.3805 C.3     1  UNL1        0.0899
     36 C           5.8023   -3.3709   19.4013 C.3     1  UNL1        0.0899
@<TRIPOS>BOND
     1    23    24    1
     2    24    10    1
     3    10    11   ar
     4    11    12   ar
     5    12    13   ar
     6    13    14   ar
     7    14    15   ar
     8    14    16    1
     9    16    17    1
    10    17    18    1
    11    18     1    1
    12     1     2    2
    13     2     3    1
    14     3     4    2
    15     4     5    1
    16     5    25    1
    17    25    26    2
    18    26    27    1
    19    27    28   ar
    20    28    29   ar
    21    29    30   ar
    22    30    33    1
    23    33    34    1
    24    34    35    1
    25    34    36    1
    26    30    31   ar
    27    31    32   ar
    28     5     6    2
    29     6     7    1
    30     7     8    2
    31     8     9    1
    32    16    19    1
    33    19    20    2
    34    19    21   am
    35    15    10   ar
    36    18    16    1
    37     9     1    1
    38    21    13    1
    39     8     4    1
    40    32    27   ar
    41    21    22    1
@<TRIPOS>MOLECULE
*****
 36 41 0 0 0
SMALL
GASTEIGER

@<TRIPOS>ATOM
      1 C           4.8524   -2.3616   21.6091 C.2     1  UNL1       -0.0378
      2 C           3.5858   -1.6568   21.9951 C.2     1  UNL1       -0.0080
      3 C           2.7941   -0.9157   20.9587 C.2     1  UNL1        0.0022
      4 C           3.2690   -0.8794   19.5364 C.2     1  UNL1        0.0350
      5 C           2.7037   -0.2348   18.3056 C.2     1  UNL1        0.1040
      6 N           3.6209   -0.5411   17.1589 N.2     1  UNL1       -0.1483
      7 N           4.7530   -1.3751   17.6810 N.2     1  UNL1       -0.1520
      8 C           4.5356   -1.5842   19.1504 C.2     1  UNL1        0.0860
      9 C           5.3273   -2.3253   20.1867 C.3     1  UNL1        0.0697
     10 C           8.6147   -5.4225   26.4348 C.ar    1  UNL1        0.1385
     11 C           9.4050   -4.3183   27.0720 C.ar    1  UNL1        0.0382
     12 C           9.2447   -2.9068   26.5904 C.ar    1  UNL1        0.0175
     13 C           8.2941   -2.5996   25.4715 C.ar    1  UNL1        0.0469
     14 C           7.5037   -3.7038   24.8343 C.ar    1  UNL1        0.0022
     15 C           7.6640   -5.1153   25.3159 C.ar    1  UNL1        0.0343
     16 C           6.6495   -3.1013   23.7585 C.3     1  UNL1        0.0928
     17 C           6.0098   -4.3876   23.3273 C.3     1  UNL1        0.0179
     18 C           5.6440   -3.1027   22.6454 C.3     1  UNL1        0.0315
     19 C           6.9119   -1.6246   23.7309 C.2     1  UNL1        0.2293
     20 O           6.2705   -0.6323   22.8069 O.2     1  UNL1       -0.2744
     21 N           7.9283   -1.3145   24.7896 N.am    1  UNL1       -0.2839
     22 H           8.2915   -0.4240   25.0000 H       1  UNL1        0.1549
     23 C           7.7209   -7.8558   26.6085 C.3     1  UNL1        0.2525
     24 O           8.7750   -6.8341   26.9164 O.3     1  UNL1       -0.4714
     25 C           1.4426    0.5742   18.2341 C.2     1  UNL1        0.0209
     26 C           1.2857    1.7960   19.0900 C.2     1  UNL1        0.0016
     27 C           0.0246    2.6050   19.0186 C.ar    1  UNL1        0.0000
     28 C          -0.3591    3.2842   17.7374 C.ar    1  UNL1       -0.0003
     29 C          -1.6202    4.0933   17.6658 C.ar    1  UNL1       -0.0029
     30 C          -2.4975    4.2231   18.8755 C.ar    1  UNL1       -0.0061
     31 C          -2.1138    3.5439   20.1567 C.ar    1  UNL1       -0.0029
     32 C          -0.8527    2.7349   20.2283 C.ar    1  UNL1       -0.0003
     33 C          -3.7586    5.0322   18.8040 C.3     1  UNL1        0.0992
     34 N          -4.9353    4.5199   18.0277 N.3     1  UNL1       -0.2665
     35 C          -5.1878    5.0150   16.6344 C.3     1  UNL1        0.0899
     36 C          -5.8598    3.5125   18.6446 C.3     1  UNL1        0.0899
@<TRIPOS>BOND
     1    23    24    1
     2    24    10    1
     3    10    11   ar
     4    11    12   ar
     5    12    13   ar
     6    13    14   ar
     7    14    15   ar
     8    14    16    1
     9    16    17    1
    10    17    18    1
    11    18     1    1
    12     1     2    2
    13     2     3    1
    14     3     4    2
    15     4     5    1
    16     5    25    1
    17    25    26    2
    18    26    27    1
    19    27    28   ar
    20    28    29   ar
    21    29    30   ar
    22    30    33    1
    23    33    34    1
    24    34    35    1
    25    34    36    1
    26    30    31   ar
    27    31    32   ar
    28     5     6    2
    29     6     7    1
    30     7     8    2
    31     8     9    1
    32    16    19    1
    33    19    20    2
    34    19    21   am
    35    15    10   ar
    36    18    16    1
    37     9     1    1
    38    21    13    1
    39     8     4    1
    40    32    27   ar
    41    21    22    1
@<TRIPOS>MOLECULE
*****
 36 41 0 0 0
SMALL
GASTEIGER

@<TRIPOS>ATOM
      1 C           2.3112    0.9170   26.9871 C.2     1  UNL1       -0.0378
      2 C           3.4640    1.5346   27.7217 C.2     1  UNL1       -0.0080
      3 C           3.3114    1.9294   29.1607 C.2     1  UNL1        0.0022
      4 C           2.0060    1.7068   29.8652 C.2     1  UNL1        0.0350
      5 C           1.5617    1.9921   31.2692 C.2     1  UNL1        0.1040
      6 N           0.1342    1.5510   31.4024 N.2     1  UNL1       -0.1483
      7 N          -0.3036    0.9930   30.0807 N.2     1  UNL1       -0.1520
      8 C           0.8532    1.0892   29.1306 C.2     1  UNL1        0.0860
      9 C           1.0057    0.6944   27.6917 C.3     1  UNL1        0.0697
     10 C           3.2216   -1.1610   20.5323 C.ar    1  UNL1        0.1385
     11 C           4.1162   -2.3610   20.6313 C.ar    1  UNL1        0.0382
     12 C           4.5930   -2.8322   21.9732 C.ar    1  UNL1        0.0175
     13 C           4.1753   -2.1034   23.2159 C.ar    1  UNL1        0.0469
     14 C           3.2808   -0.9035   23.1169 C.ar    1  UNL1        0.0022
     15 C           2.8039   -0.4322   21.7751 C.ar    1  UNL1        0.0343
     16 C           3.0369   -0.3913   24.5055 C.3     1  UNL1        0.0928
     17 C           2.1548    0.7516   24.0984 C.3     1  UNL1        0.0179
     18 C           2.4637    0.5221   25.5481 C.3     1  UNL1        0.0315
     19 C           3.7807   -1.2747   25.4627 C.2     1  UNL1        0.2293
     20 O           3.8149   -1.1261   26.9549 O.2     1  UNL1       -0.2744
     21 N           4.4843   -2.3329   24.6658 N.am    1  UNL1       -0.2839
     22 H           5.0496   -3.0518   25.0302 H       1  UNL1        0.1549
     23 C           1.5965    0.2710   19.0975 C.3     1  UNL1        0.2525
     24 O           2.7447   -0.6897   19.1905 O.3     1  UNL1       -0.4714
     25 C           2.3980    2.6102   32.3502 C.2     1  UNL1        0.0209
     26 C           2.0027    2.4502   33.7882 C.2     1  UNL1        0.0016
     27 C           2.8390    3.0682   34.8693 C.ar    1  UNL1        0.0000
     28 C           4.3339    3.0790   34.7472 C.ar    1  UNL1       -0.0003
     29 C           5.1703    3.6970   35.8282 C.ar    1  UNL1       -0.0029
     30 C           4.5116    4.3042   37.0313 C.ar    1  UNL1       -0.0061
     31 C           3.0166    4.2933   37.1534 C.ar    1  UNL1       -0.0029
     32 C           2.1803    3.6753   36.0724 C.ar    1  UNL1       -0.0003
     33 C           5.3480    4.9221   38.1123 C.3     1  UNL1        0.0992
     34 N           5.1526    4.5084   39.5408 N.3     1  UNL1       -0.2665
     35 C           4.4214    5.4111   40.4898 C.3     1  UNL1        0.0899
     36 C           5.6883    3.1919   40.0203 C.3     1  UNL1        0.0899
@<TRIPOS>BOND
     1    23    24    1
     2    24    10    1
     3    10    11   ar
     4    11    12   ar
     5    12    13   ar
     6    13    14   ar
     7    14    15   ar
     8    14    16    1
     9    16    17    1
    10    17    18    1
    11    18     1    1
    12     1     2    2
    13     2     3    1
    14     3     4    2
    15     4     5    1
    16     5    25    1
    17    25    26    2
    18    26    27    1
    19    27    28   ar
    20    28    29   ar
    21    29    30   ar
    22    30    33    1
    23    33    34    1
    24    34    35    1
    25    34    36    1
    26    30    31   ar
    27    31    32   ar
    28     5     6    2
    29     6     7    1
    30     7     8    2
    31     8     9    1
    32    16    19    1
    33    19    20    2
    34    19    21   am
    35    15    10   ar
    36    18    16    1
    37     9     1    1
    38    21    13    1
    39     8     4    1
    40    32    27   ar
    41    21    22    1
