@<TRIPOS>MOLECULE
*****
 33 35 0 0 0
SMALL
GASTEIGER

@<TRIPOS>ATOM
      1 N           7.7221   -4.7803   28.8999 N.am    1  UNL1       -0.2560
      2 C           7.4517   -5.2956   30.2825 C.3     1  UNL1        0.1394
      3 C           6.9230   -4.1588   31.1058 C.ar    1  UNL1        0.0662
      4 C           6.4291   -3.7747   32.4691 C.ar    1  UNL1        0.0247
      5 C           6.0675   -2.3193   32.4381 C.ar    1  UNL1        0.0614
      6 C           6.3379   -1.8038   31.0556 C.ar    1  UNL1        0.0922
      7 N           6.8666   -2.9407   30.2322 N.ar    1  UNL1       -0.2624
      8 C           7.3605   -3.3248   28.8689 C.2     1  UNL1        0.3234
      9 O           7.4730   -2.4135   27.6828 O.2     1  UNL1       -0.2490
     10 C           5.5299   -1.5196   33.5876 C.1     1  UNL1       -0.0497
     11 C           4.9923   -0.7200   34.7372 C.1     1  UNL1       -0.0094
     12 C           4.4547    0.0796   35.8869 C.1     1  UNL1       -0.0126
     13 C           3.9171    0.8791   37.0366 C.1     1  UNL1       -0.0652
     14 C           3.3795    1.6786   38.1862 C.3     1  UNL1        0.0947
     15 N           3.1133    0.5764   39.1682 N.3     1  UNL1       -0.3139
     16 C           2.9343    2.8609   38.9949 C.3     1  UNL1        0.0290
     17 C           3.4589    3.0586   37.6036 C.3     1  UNL1        0.0290
     18 H           3.3729   -0.3185   38.7533 H       1  UNL1        0.1196
     19 H           2.1217    0.5657   39.4067 H       1  UNL1        0.1196
     20 C           8.2597   -5.5799   27.7504 C.3     1  UNL1        0.0977
     21 C           7.3720   -5.9122   26.5877 C.3     1  UNL1        0.0524
     22 C           8.5101   -7.2868   24.1763 C.3     1  UNL1        0.0331
     23 C           7.9411   -6.5994   25.3821 C.3     1  UNL1        0.1820
     24 C           7.9854   -7.8929   26.1403 C.2     1  UNL1        0.2640
     25 O           9.3019   -8.5590   26.4108 O.2     1  UNL1       -0.2713
     26 N           6.7132   -8.5204   26.6280 N.am    1  UNL1       -0.1956
     27 O           6.7576   -9.8139   27.3862 O.3     1  UNL1       -0.2951
     28 H           5.8492   -8.0833   26.4504 H       1  UNL1        0.1823
     29 H           7.6783  -10.1063   27.4732 H       1  UNL1        0.2414
     30 S           7.8968   -5.3060   24.6238 S.O2    1  UNL1       -0.0034
     31 C           7.8524   -4.0126   23.8655 C.3     1  UNL1        0.1765
     32 O           6.5227   -5.0375   25.1622 O.2     1  UNL1       -0.1726
     33 O           9.2708   -5.5745   24.0854 O.2     1  UNL1       -0.1726
@<TRIPOS>BOND
     1    23    22    1
     2    23    21    1
     3    21    20    1
     4    20     1    1
     5     1     2    1
     6     2     3    1
     7     3     4   ar
     8     4     5   ar
     9     5    10    1
    10    10    11    3
    11    11    12    1
    12    12    13    3
    13    13    14    1
    14    14    15    1
    15    14    16    1
    16    16    17    1
    17     5     6   ar
    18     6     7   ar
    19     7     8   am
    20     8     9    2
    21    23    24    1
    22    24    25    2
    23    24    26   am
    24    26    27    1
    25    23    30    1
    26    30    31    1
    27    30    32    2
    28    30    33    2
    29     8     1   am
    30     7     3   ar
    31    17    14    1
    32    15    18    1
    33    15    19    1
    34    26    28    1
    35    27    29    1
@<TRIPOS>MOLECULE
*****
 33 35 0 0 0
SMALL
GASTEIGER

@<TRIPOS>ATOM
      1 N           5.2910    0.0894   35.3263 N.am    1  UNL1       -0.2560
      2 C           4.2772   -0.6714   34.5241 C.3     1  UNL1        0.1394
      3 C           5.0078   -1.4413   33.4642 C.ar    1  UNL1        0.0662
      4 C           4.8327   -2.3873   32.3133 C.ar    1  UNL1        0.0247
      5 C           6.1899   -2.6871   31.7492 C.ar    1  UNL1        0.0614
      6 C           7.2037   -1.9264   32.5514 C.ar    1  UNL1        0.0922
      7 N           6.4732   -1.1565   33.6113 N.ar    1  UNL1       -0.2624
      8 C           6.6482   -0.2105   34.7621 C.2     1  UNL1        0.3234
      9 O           7.9516    0.3392   35.2612 O.2     1  UNL1       -0.2490
     10 C           6.4820   -3.5893   30.5870 C.1     1  UNL1       -0.0497
     11 C           6.7741   -4.4914   29.4247 C.1     1  UNL1       -0.0094
     12 C           7.0661   -5.3936   28.2625 C.1     1  UNL1       -0.0126
     13 C           7.3582   -6.2958   27.1002 C.1     1  UNL1       -0.0652
     14 C           7.6502   -7.1979   25.9380 C.3     1  UNL1        0.0947
     15 N           6.9799   -8.4545   26.4087 N.3     1  UNL1       -0.3139
     16 C           8.1751   -7.6637   24.6123 C.3     1  UNL1        0.0290
     17 C           8.4221   -6.2546   25.0635 C.3     1  UNL1        0.0290
     18 H           6.5620   -8.2941   27.3253 H       1  UNL1        0.1196
     19 H           7.6695   -9.2031   26.4757 H       1  UNL1        0.1196
     20 C           4.9990    0.9914   36.4885 C.3     1  UNL1        0.0977
     21 C           3.5900    1.4249   36.7661 C.3     1  UNL1        0.0524
     22 C           3.0699    3.8012   38.5217 C.3     1  UNL1        0.0331
     23 C           3.3299    2.6130   37.6438 C.3     1  UNL1        0.1820
     24 C           3.4342    1.7387   38.8582 C.2     1  UNL1        0.2640
     25 O           4.5451    1.9525   39.8432 O.2     1  UNL1       -0.2713
     26 N           2.4275    0.6507   39.0876 N.am    1  UNL1       -0.1956
     27 O           2.5317   -0.2237   40.3020 O.3     1  UNL1       -0.2951
     28 H           1.6983    0.5104   38.4412 H       1  UNL1        0.1823
     29 H           3.2996    0.0461   40.8297 H       1  UNL1        0.2414
     30 S           3.2257    3.4874   36.4296 S.O2    1  UNL1       -0.0034
     31 C           3.1216    4.3619   35.2153 C.3     1  UNL1        0.1765
     32 O           4.2959    4.3818   36.9818 O.2     1  UNL1       -0.1726
     33 O           2.1556    2.5932   35.8774 O.2     1  UNL1       -0.1726
@<TRIPOS>BOND
     1    23    22    1
     2    23    21    1
     3    21    20    1
     4    20     1    1
     5     1     2    1
     6     2     3    1
     7     3     4   ar
     8     4     5   ar
     9     5    10    1
    10    10    11    3
    11    11    12    1
    12    12    13    3
    13    13    14    1
    14    14    15    1
    15    14    16    1
    16    16    17    1
    17     5     6   ar
    18     6     7   ar
    19     7     8   am
    20     8     9    2
    21    23    24    1
    22    24    25    2
    23    24    26   am
    24    26    27    1
    25    23    30    1
    26    30    31    1
    27    30    32    2
    28    30    33    2
    29     8     1   am
    30     7     3   ar
    31    17    14    1
    32    15    18    1
    33    15    19    1
    34    26    28    1
    35    27    29    1
@<TRIPOS>MOLECULE
*****
 33 35 0 0 0
SMALL
GASTEIGER

@<TRIPOS>ATOM
      1 N           4.6889   -1.2337   29.6710 N.am    1  UNL1       -0.2560
      2 C           4.4805   -0.7211   28.2767 C.3     1  UNL1        0.1394
      3 C           3.1325   -0.0654   28.2205 C.ar    1  UNL1        0.0662
      4 C           2.1707    0.6566   27.3241 C.ar    1  UNL1        0.0247
      5 C           0.9515    0.9954   28.1296 C.ar    1  UNL1        0.0614
      6 C           1.1599    0.4828   29.5239 C.ar    1  UNL1        0.0922
      7 N           2.5078   -0.1728   29.5801 N.ar    1  UNL1       -0.2624
      8 C           3.4697   -0.8948   30.4765 C.2     1  UNL1        0.3234
      9 O           3.2508   -1.2207   31.9242 O.2     1  UNL1       -0.2490
     10 C          -0.2628    1.7197   27.6289 C.1     1  UNL1       -0.0497
     11 C          -1.4772    2.4439   27.1281 C.1     1  UNL1       -0.0094
     12 C          -2.6915    3.1682   26.6272 C.1     1  UNL1       -0.0126
     13 C          -3.9059    3.8925   26.1264 C.1     1  UNL1       -0.0652
     14 C          -5.1201    4.6168   25.6257 C.3     1  UNL1        0.0947
     15 N          -5.8096    3.4991   24.9008 N.3     1  UNL1       -0.3139
     16 C          -6.0951    5.7292   25.3766 C.3     1  UNL1        0.0290
     17 C          -4.8525    5.9861   26.1766 C.3     1  UNL1        0.0290
     18 H          -5.2533    2.6479   24.9806 H       1  UNL1        0.1196
     19 H          -5.9145    3.7458   23.9166 H       1  UNL1        0.1196
     20 C           5.9032   -1.9579   30.1717 C.3     1  UNL1        0.0977
     21 C           6.0741   -2.2091   31.6407 C.3     1  UNL1        0.0524
     22 C           8.8246   -2.4939   32.8039 C.3     1  UNL1        0.0331
     23 C           7.4493   -2.3515   32.2223 C.3     1  UNL1        0.1820
     24 C           7.4444   -3.8111   31.8766 C.2     1  UNL1        0.2640
     25 O           8.4388   -4.3521   30.8925 O.2     1  UNL1       -0.2713
     26 N           6.4452   -4.7297   32.5151 N.am    1  UNL1       -0.1956
     27 O           6.4404   -6.1893   32.1694 O.3     1  UNL1       -0.2951
     28 H           5.7926   -4.3746   33.1610 H       1  UNL1        0.1823
     29 H           7.1411   -6.3710   31.5238 H       1  UNL1        0.2414
     30 S           7.4543   -0.8919   32.5680 S.O2    1  UNL1       -0.0034
     31 C           7.4592    0.5677   32.9137 C.3     1  UNL1        0.1765
     32 O           6.2499   -1.0941   33.4390 O.2     1  UNL1       -0.1726
     33 O           8.6585   -0.6896   31.6970 O.2     1  UNL1       -0.1726
@<TRIPOS>BOND
     1    23    22    1
     2    23    21    1
     3    21    20    1
     4    20     1    1
     5     1     2    1
     6     2     3    1
     7     3     4   ar
     8     4     5   ar
     9     5    10    1
    10    10    11    3
    11    11    12    1
    12    12    13    3
    13    13    14    1
    14    14    15    1
    15    14    16    1
    16    16    17    1
    17     5     6   ar
    18     6     7   ar
    19     7     8   am
    20     8     9    2
    21    23    24    1
    22    24    25    2
    23    24    26   am
    24    26    27    1
    25    23    30    1
    26    30    31    1
    27    30    32    2
    28    30    33    2
    29     8     1   am
    30     7     3   ar
    31    17    14    1
    32    15    18    1
    33    15    19    1
    34    26    28    1
    35    27    29    1
@<TRIPOS>MOLECULE
*****
 33 35 0 0 0
SMALL
GASTEIGER

@<TRIPOS>ATOM
      1 N           4.1989    0.5794   34.7805 N.am    1  UNL1       -0.2560
      2 C           5.2975   -0.4226   34.9784 C.3     1  UNL1        0.1394
      3 C           5.4596   -1.1913   33.7005 C.ar    1  UNL1        0.0662
      4 C           6.2387   -2.2856   33.0332 C.ar    1  UNL1        0.0247
      5 C           5.7218   -2.4351   31.6330 C.ar    1  UNL1        0.0614
      6 C           4.6232   -1.4331   31.4351 C.ar    1  UNL1        0.0922
      7 N           4.4611   -0.6644   32.7129 N.ar    1  UNL1       -0.2624
      8 C           3.6819    0.4299   33.3803 C.2     1  UNL1        0.3234
      9 O           2.5794    1.2336   32.7570 O.2     1  UNL1       -0.2490
     10 C           6.2166   -3.4145   30.6103 C.1     1  UNL1       -0.0497
     11 C           6.7114   -4.3939   29.5876 C.1     1  UNL1       -0.0094
     12 C           7.2062   -5.3734   28.5650 C.1     1  UNL1       -0.0126
     13 C           7.7010   -6.3530   27.5424 C.1     1  UNL1       -0.0652
     14 C           8.1958   -7.3325   26.5199 C.3     1  UNL1        0.0947
     15 N           7.3327   -8.5136   26.8516 N.3     1  UNL1       -0.3139
     16 C           8.9903   -7.9019   25.3821 C.3     1  UNL1        0.0290
     17 C           9.2307   -6.4916   25.8329 C.3     1  UNL1        0.0290
     18 H           6.7174   -8.2772   27.6299 H       1  UNL1        0.1196
     19 H           7.9231   -9.3035   27.1125 H       1  UNL1        0.1196
     20 C           3.7041    1.5587   35.8031 C.3     1  UNL1        0.0977
     21 C           4.0292    1.3572   37.2536 C.3     1  UNL1        0.0524
     22 C           3.2723    3.4499   39.2654 C.3     1  UNL1        0.0331
     23 C           3.6507    2.4035   38.2594 C.3     1  UNL1        0.1820
     24 C           2.4052    1.6357   38.5896 C.2     1  UNL1        0.2640
     25 O           1.0593    2.2648   38.3825 O.2     1  UNL1       -0.2713
     26 N           2.5054    0.2388   39.1269 N.am    1  UNL1       -0.1956
     27 O           1.2598   -0.5290   39.4570 O.3     1  UNL1       -0.2951
     28 H           3.3888   -0.1741   39.2628 H       1  UNL1        0.1823
     29 H           0.4823    0.0187   39.2662 H       1  UNL1        0.2414
     30 S           4.8963    3.1714   37.9294 S.O2    1  UNL1       -0.0034
     31 C           6.1417    3.9394   37.5993 C.3     1  UNL1        0.1765
     32 O           4.0623    4.3535   37.5329 O.2     1  UNL1       -0.1726
     33 O           5.7301    1.9893   38.3258 O.2     1  UNL1       -0.1726
@<TRIPOS>BOND
     1    23    22    1
     2    23    21    1
     3    21    20    1
     4    20     1    1
     5     1     2    1
     6     2     3    1
     7     3     4   ar
     8     4     5   ar
     9     5    10    1
    10    10    11    3
    11    11    12    1
    12    12    13    3
    13    13    14    1
    14    14    15    1
    15    14    16    1
    16    16    17    1
    17     5     6   ar
    18     6     7   ar
    19     7     8   am
    20     8     9    2
    21    23    24    1
    22    24    25    2
    23    24    26   am
    24    26    27    1
    25    23    30    1
    26    30    31    1
    27    30    32    2
    28    30    33    2
    29     8     1   am
    30     7     3   ar
    31    17    14    1
    32    15    18    1
    33    15    19    1
    34    26    28    1
    35    27    29    1
@<TRIPOS>MOLECULE
*****
 33 35 0 0 0
SMALL
GASTEIGER

@<TRIPOS>ATOM
      1 N           5.2930    0.1263   20.6523 N.am    1  UNL1       -0.2560
      2 C           5.1293    0.2254   22.1401 C.3     1  UNL1        0.1394
      3 C           3.8069    0.8762   22.4187 C.ar    1  UNL1        0.0662
      4 C           2.8885    1.3397   23.5103 C.ar    1  UNL1        0.0247
      5 C           1.6672    1.9293   22.8694 C.ar    1  UNL1        0.0614
      6 C           1.8308    1.8302   21.3816 C.ar    1  UNL1        0.0922
      7 N           3.1532    1.1794   21.1030 N.ar    1  UNL1       -0.2624
      8 C           4.0716    0.7159   20.0114 C.2     1  UNL1        0.3234
      9 O           3.8140    0.8232   18.5376 O.2     1  UNL1       -0.2490
     10 C           0.4891    2.5151   23.5897 C.1     1  UNL1       -0.0497
     11 C          -0.6890    3.1009   24.3101 C.1     1  UNL1       -0.0094
     12 C          -1.8671    3.6868   25.0305 C.1     1  UNL1       -0.0126
     13 C          -3.0452    4.2727   25.7508 C.1     1  UNL1       -0.0652
     14 C          -4.2232    4.8585   26.4711 C.3     1  UNL1        0.0947
     15 N          -3.5211    5.5378   27.6094 N.3     1  UNL1       -0.3139
     16 C          -5.6451    5.2086   26.7961 C.3     1  UNL1        0.0290
     17 C          -5.3345    4.3828   25.5830 C.3     1  UNL1        0.0290
     18 H          -2.5156    5.3871   27.5271 H       1  UNL1        0.1196
     19 H          -3.8519    5.1499   28.4928 H       1  UNL1        0.1196
     20 C           6.4710   -0.4595   19.9320 C.3     1  UNL1        0.0977
     21 C           6.6094   -1.9479   19.8069 C.3     1  UNL1        0.0524
     22 C           4.1799   -3.6471   19.3482 C.3     1  UNL1        0.0331
     23 C           5.3947   -2.7975   19.5776 C.3     1  UNL1        0.1820
     24 C           5.3117   -2.2977   18.1657 C.2     1  UNL1        0.2640
     25 O           6.5445   -2.2521   17.3125 O.2     1  UNL1       -0.2713
     26 N           3.9957   -1.8437   17.6070 N.am    1  UNL1       -0.1956
     27 O           3.9127   -1.3439   16.1951 O.3     1  UNL1       -0.2951
     28 H           3.1866   -1.8737   18.1670 H       1  UNL1        0.1823
     29 H           4.7920   -1.3800   15.7872 H       1  UNL1        0.2414
     30 S           5.4777   -3.2973   20.9894 S.O2    1  UNL1       -0.0034
     31 C           5.5605   -3.7970   22.4013 C.3     1  UNL1        0.1765
     32 O           4.0371   -2.9369   21.2016 O.2     1  UNL1       -0.1726
     33 O           6.9181   -3.6577   20.7773 O.2     1  UNL1       -0.1726
@<TRIPOS>BOND
     1    23    22    1
     2    23    21    1
     3    21    20    1
     4    20     1    1
     5     1     2    1
     6     2     3    1
     7     3     4   ar
     8     4     5   ar
     9     5    10    1
    10    10    11    3
    11    11    12    1
    12    12    13    3
    13    13    14    1
    14    14    15    1
    15    14    16    1
    16    16    17    1
    17     5     6   ar
    18     6     7   ar
    19     7     8   am
    20     8     9    2
    21    23    24    1
    22    24    25    2
    23    24    26   am
    24    26    27    1
    25    23    30    1
    26    30    31    1
    27    30    32    2
    28    30    33    2
    29     8     1   am
    30     7     3   ar
    31    17    14    1
    32    15    18    1
    33    15    19    1
    34    26    28    1
    35    27    29    1
@<TRIPOS>MOLECULE
*****
 33 35 0 0 0
SMALL
GASTEIGER

@<TRIPOS>ATOM
      1 N           4.4172   -0.1150   29.5859 N.am    1  UNL1       -0.2560
      2 C           4.2887    0.7304   28.3535 C.3     1  UNL1        0.1394
      3 C           2.8450    1.1068   28.1980 C.ar    1  UNL1        0.0662
      4 C           1.8734    1.8618   27.3402 C.ar    1  UNL1        0.0247
      5 C           0.5091    1.7157   27.9463 C.ar    1  UNL1        0.0614
      6 C           0.6376    0.8703   29.1787 C.ar    1  UNL1        0.0922
      7 N           2.0812    0.4940   29.3343 N.ar    1  UNL1       -0.2624
      8 C           3.0528   -0.2611   30.1921 C.2     1  UNL1        0.3234
      9 O           2.7188   -1.0277   31.4374 O.2     1  UNL1       -0.2490
     10 C          -0.7607    2.3105   27.4136 C.1     1  UNL1       -0.0497
     11 C          -2.0305    2.9053   26.8809 C.1     1  UNL1       -0.0094
     12 C          -3.3004    3.5001   26.3482 C.1     1  UNL1       -0.0126
     13 C          -4.5703    4.0949   25.8157 C.1     1  UNL1       -0.0652
     14 C          -5.8401    4.6896   25.2831 C.3     1  UNL1        0.0947
     15 N          -6.1411    3.7174   24.1813 N.3     1  UNL1       -0.3139
     16 C          -7.0055    5.6221   25.1332 C.3     1  UNL1        0.0290
     17 C          -5.9802    5.8686   26.2000 C.3     1  UNL1        0.0290
     18 H          -5.4167    2.9999   24.1536 H       1  UNL1        0.1196
     19 H          -6.1647    4.2112   23.2891 H       1  UNL1        0.1196
     20 C           5.6869   -0.7097   30.1187 C.3     1  UNL1        0.0977
     21 C           5.7796   -2.1874   30.3599 C.3     1  UNL1        0.0524
     22 C           7.8710   -3.2761   32.2147 C.3     1  UNL1        0.0331
     23 C           6.8253   -2.7317   31.2873 C.3     1  UNL1        0.1820
     24 C           6.0008   -2.3072   32.4663 C.2     1  UNL1        0.2640
     25 O           6.5232   -1.2656   33.4108 O.2     1  UNL1       -0.2713
     26 N           4.6538   -2.9242   32.7007 N.am    1  UNL1       -0.1956
     27 O           3.8293   -2.4997   33.8797 O.3     1  UNL1       -0.2951
     28 H           4.3109   -3.6078   32.0808 H       1  UNL1        0.1823
     29 H           4.3096   -1.8243   34.3838 H       1  UNL1        0.2414
     30 S           7.6498   -3.1563   30.1084 S.O2    1  UNL1       -0.0034
     31 C           8.4743   -3.5810   28.9295 C.3     1  UNL1        0.1765
     32 O           6.5549   -4.0869   29.6778 O.2     1  UNL1       -0.1726
     33 O           8.7446   -2.2258   30.5389 O.2     1  UNL1       -0.1726
@<TRIPOS>BOND
     1    23    22    1
     2    23    21    1
     3    21    20    1
     4    20     1    1
     5     1     2    1
     6     2     3    1
     7     3     4   ar
     8     4     5   ar
     9     5    10    1
    10    10    11    3
    11    11    12    1
    12    12    13    3
    13    13    14    1
    14    14    15    1
    15    14    16    1
    16    16    17    1
    17     5     6   ar
    18     6     7   ar
    19     7     8   am
    20     8     9    2
    21    23    24    1
    22    24    25    2
    23    24    26   am
    24    26    27    1
    25    23    30    1
    26    30    31    1
    27    30    32    2
    28    30    33    2
    29     8     1   am
    30     7     3   ar
    31    17    14    1
    32    15    18    1
    33    15    19    1
    34    26    28    1
    35    27    29    1
@<TRIPOS>MOLECULE
*****
 33 35 0 0 0
SMALL
GASTEIGER

@<TRIPOS>ATOM
      1 N           3.9727   -2.4358   20.3891 N.am    1  UNL1       -0.2560
      2 C           3.1119   -1.4157   21.0736 C.3     1  UNL1        0.1394
      3 C           3.4243   -1.4546   22.5402 C.ar    1  UNL1        0.0662
      4 C           3.0854   -0.8482   23.8696 C.ar    1  UNL1        0.0247
      5 C           3.9298   -1.5175   24.9132 C.ar    1  UNL1        0.0614
      6 C           4.7906   -2.5375   24.2287 C.ar    1  UNL1        0.0922
      7 N           4.4782   -2.4987   22.7621 N.ar    1  UNL1       -0.2624
      8 C           4.8171   -3.1051   21.4327 C.2     1  UNL1        0.3234
      9 O           5.8238   -4.1903   21.1895 O.2     1  UNL1       -0.2490
     10 C           3.9159   -1.2191   26.3831 C.1     1  UNL1       -0.0497
     11 C           3.9020   -0.9207   27.8531 C.1     1  UNL1       -0.0094
     12 C           3.8879   -0.6224   29.3231 C.1     1  UNL1       -0.0126
     13 C           3.8740   -0.3240   30.7931 C.1     1  UNL1       -0.0652
     14 C           3.8601   -0.0257   32.2630 C.3     1  UNL1        0.0947
     15 N           3.7846   -1.4199   32.8111 N.3     1  UNL1       -0.3139
     16 C           3.8723    0.7568   33.5426 C.3     1  UNL1        0.0290
     17 C           3.9307    1.4722   32.2255 C.3     1  UNL1        0.0290
     18 H           3.7680   -2.0878   32.0403 H       1  UNL1        0.1196
     19 H           2.9354   -1.5212   33.3670 H       1  UNL1        0.1196
     20 C           3.9866   -2.7342   18.9192 C.3     1  UNL1        0.0977
     21 C           5.1783   -2.3590   18.0890 C.3     1  UNL1        0.0524
     22 C           6.2629    0.4359   18.1983 C.3     1  UNL1        0.0331
     23 C           5.7206   -0.9616   18.1436 C.3     1  UNL1        0.1820
     24 C           4.4134   -0.4343   17.6306 C.2     1  UNL1        0.2640
     25 O           3.8778   -0.9106   16.3130 O.2     1  UNL1       -0.2713
     26 N           3.6419    0.5694   18.4351 N.am    1  UNL1       -0.1956
     27 O           2.3348    1.0968   17.9221 O.3     1  UNL1       -0.2951
     28 H           3.9935    0.8821   19.2999 H       1  UNL1        0.1823
     29 H           2.1360    0.6895   17.0645 H       1  UNL1        0.2414
     30 S           7.0278   -1.4889   18.6567 S.O2    1  UNL1       -0.0034
     31 C           8.3350   -2.0162   19.1696 C.3     1  UNL1        0.1765
     32 O           7.1684   -2.3366   17.4271 O.2     1  UNL1       -0.1726
     33 O           6.8872   -0.6413   19.8861 O.2     1  UNL1       -0.1726
@<TRIPOS>BOND
     1    23    22    1
     2    23    21    1
     3    21    20    1
     4    20     1    1
     5     1     2    1
     6     2     3    1
     7     3     4   ar
     8     4     5   ar
     9     5    10    1
    10    10    11    3
    11    11    12    1
    12    12    13    3
    13    13    14    1
    14    14    15    1
    15    14    16    1
    16    16    17    1
    17     5     6   ar
    18     6     7   ar
    19     7     8   am
    20     8     9    2
    21    23    24    1
    22    24    25    2
    23    24    26   am
    24    26    27    1
    25    23    30    1
    26    30    31    1
    27    30    32    2
    28    30    33    2
    29     8     1   am
    30     7     3   ar
    31    17    14    1
    32    15    18    1
    33    15    19    1
    34    26    28    1
    35    27    29    1
@<TRIPOS>MOLECULE
*****
 33 35 0 0 0
SMALL
GASTEIGER

@<TRIPOS>ATOM
      1 N           4.8432    0.9538   34.4465 N.am    1  UNL1       -0.2560
      2 C           5.4247   -0.4100   34.6741 C.3     1  UNL1        0.1394
      3 C           5.6100   -1.0641   33.3370 C.ar    1  UNL1        0.0662
      4 C           6.0839   -2.3112   32.6513 C.ar    1  UNL1        0.0247
      5 C           5.9097   -2.1223   31.1735 C.ar    1  UNL1        0.0614
      6 C           5.3282   -0.7585   30.9458 C.ar    1  UNL1        0.0922
      7 N           5.1430   -0.1044   32.2829 N.ar    1  UNL1       -0.2624
      8 C           4.6691    1.1427   32.9686 C.2     1  UNL1        0.3234
      9 O           4.1178    2.3642   32.2947 O.2     1  UNL1       -0.2490
     10 C           6.2562   -3.1218   30.1100 C.1     1  UNL1       -0.0497
     11 C           6.6028   -4.1213   29.0465 C.1     1  UNL1       -0.0094
     12 C           6.9492   -5.1208   27.9831 C.1     1  UNL1       -0.0126
     13 C           7.2957   -6.1204   26.9197 C.1     1  UNL1       -0.0652
     14 C           7.6421   -7.1199   25.8563 C.3     1  UNL1        0.0947
     15 N           6.9674   -8.3380   26.4140 N.3     1  UNL1       -0.3139
     16 C           8.2228   -7.6965   24.5992 C.3     1  UNL1        0.0290
     17 C           8.4372   -6.2491   24.9292 C.3     1  UNL1        0.0290
     18 H           6.5126   -8.1011   27.2957 H       1  UNL1        0.1196
     19 H           7.6617   -9.0677   26.5748 H       1  UNL1        0.1196
     20 C           4.4967    1.9533   35.5099 C.3     1  UNL1        0.0977
     21 C           3.1059    2.0009   36.0699 C.3     1  UNL1        0.0524
     22 C           1.7006    4.6339   36.3738 C.3     1  UNL1        0.0331
     23 C           2.4033    3.3173   36.2218 C.3     1  UNL1        0.1820
     24 C           2.0575    3.3013   34.7623 C.2     1  UNL1        0.2640
     25 O           2.2801    4.5260   33.9253 O.2     1  UNL1       -0.2713
     26 N           1.4891    2.0606   34.1398 N.am    1  UNL1       -0.1956
     27 O           1.1433    2.0446   32.6803 O.3     1  UNL1       -0.2951
     28 H           1.3429    1.2568   34.6892 H       1  UNL1        0.1823
     29 H           1.3472    2.9089   32.2902 H       1  UNL1        0.2414
     30 S           2.7490    3.3335   37.6813 S.O2    1  UNL1       -0.0034
     31 C           3.0946    3.3495   39.1409 C.3     1  UNL1        0.1765
     32 O           1.9598    2.0737   37.8822 O.2     1  UNL1       -0.1726
     33 O           3.5381    4.5931   37.4806 O.2     1  UNL1       -0.1726
@<TRIPOS>BOND
     1    23    22    1
     2    23    21    1
     3    21    20    1
     4    20     1    1
     5     1     2    1
     6     2     3    1
     7     3     4   ar
     8     4     5   ar
     9     5    10    1
    10    10    11    3
    11    11    12    1
    12    12    13    3
    13    13    14    1
    14    14    15    1
    15    14    16    1
    16    16    17    1
    17     5     6   ar
    18     6     7   ar
    19     7     8   am
    20     8     9    2
    21    23    24    1
    22    24    25    2
    23    24    26   am
    24    26    27    1
    25    23    30    1
    26    30    31    1
    27    30    32    2
    28    30    33    2
    29     8     1   am
    30     7     3   ar
    31    17    14    1
    32    15    18    1
    33    15    19    1
    34    26    28    1
    35    27    29    1
@<TRIPOS>MOLECULE
*****
 33 35 0 0 0
SMALL
GASTEIGER

@<TRIPOS>ATOM
      1 N           3.6523    0.3279   20.4772 N.am    1  UNL1       -0.2560
      2 C           2.6902    0.4887   21.6168 C.3     1  UNL1        0.1394
      3 C           1.4735    1.1975   21.0997 C.ar    1  UNL1        0.0662
      4 C           0.1270    1.7349   21.4845 C.ar    1  UNL1        0.0247
      5 C          -0.4951    2.3443   20.2631 C.ar    1  UNL1        0.0614
      6 C           0.4669    2.1834   19.1236 C.ar    1  UNL1        0.0922
      7 N           1.6836    1.4747   19.6406 N.ar    1  UNL1       -0.2624
      8 C           3.0301    0.9373   19.2558 C.2     1  UNL1        0.3234
      9 O           3.6463    0.9984   17.8896 O.2     1  UNL1       -0.2490
     10 C          -1.8427    2.9994   20.1935 C.1     1  UNL1       -0.0497
     11 C          -3.1902    3.6546   20.1239 C.1     1  UNL1       -0.0094
     12 C          -4.5378    4.3099   20.0543 C.1     1  UNL1       -0.0126
     13 C          -5.8853    4.9652   19.9847 C.1     1  UNL1       -0.0652
     14 C          -7.2327    5.6205   19.9151 C.3     1  UNL1        0.0947
     15 N          -7.6865    5.4343   21.3327 N.3     1  UNL1       -0.3139
     16 C          -8.4226    6.3405   19.3533 C.3     1  UNL1        0.0290
     17 C          -7.2470    6.0344   18.4734 C.3     1  UNL1        0.0290
     18 H          -6.9634    4.9444   21.8596 H       1  UNL1        0.1196
     19 H          -8.5466    4.8861   21.3451 H       1  UNL1        0.1196
     20 C           4.9997   -0.3273   20.5468 C.3     1  UNL1        0.0977
     21 C           5.1915   -1.7088   19.9947 C.3     1  UNL1        0.0524
     22 C           7.7234   -2.4068   18.5449 C.3     1  UNL1        0.0331
     23 C           6.4574   -2.0578   19.2699 C.3     1  UNL1        0.1820
     24 C           5.8562   -1.5702   17.9850 C.2     1  UNL1        0.2640
     25 O           6.6487   -0.6767   17.0776 O.2     1  UNL1       -0.2713
     26 N           4.4624   -1.9762   17.6076 N.am    1  UNL1       -0.1956
     27 O           3.8611   -1.4886   16.3227 O.3     1  UNL1       -0.2951
     28 H           3.9421   -2.5626   18.2031 H       1  UNL1        0.1823
     29 H           4.5011   -0.9261   15.8593 H       1  UNL1        0.2414
     30 S           7.0587   -2.5454   20.5546 S.O2    1  UNL1       -0.0034
     31 C           7.6601   -3.0329   21.8393 C.3     1  UNL1        0.1765
     32 O           8.1566   -1.5314   20.4255 O.2     1  UNL1       -0.1726
     33 O           5.9610   -3.5593   20.6837 O.2     1  UNL1       -0.1726
@<TRIPOS>BOND
     1    23    22    1
     2    23    21    1
     3    21    20    1
     4    20     1    1
     5     1     2    1
     6     2     3    1
     7     3     4   ar
     8     4     5   ar
     9     5    10    1
    10    10    11    3
    11    11    12    1
    12    12    13    3
    13    13    14    1
    14    14    15    1
    15    14    16    1
    16    16    17    1
    17     5     6   ar
    18     6     7   ar
    19     7     8   am
    20     8     9    2
    21    23    24    1
    22    24    25    2
    23    24    26   am
    24    26    27    1
    25    23    30    1
    26    30    31    1
    27    30    32    2
    28    30    33    2
    29     8     1   am
    30     7     3   ar
    31    17    14    1
    32    15    18    1
    33    15    19    1
    34    26    28    1
    35    27    29    1
