@<TRIPOS>MOLECULE
*****
 34 37 0 0 0
SMALL
GASTEIGER

@<TRIPOS>ATOM
      1 C          -9.6956  -17.5187   21.3306 C.3     1  UNL1        0.1379
      2 C          -8.2323  -15.9643   26.9380 C.3     1  UNL1        0.0310
      3 C          -8.5982  -16.3529   25.5362 C.ar    1  UNL1       -0.0219
      4 C          -9.2816  -17.6623   25.2750 C.ar    1  UNL1       -0.0045
      5 C          -9.6474  -18.0509   23.8731 C.ar    1  UNL1       -0.0029
      6 C          -9.3298  -17.1301   22.7325 C.ar    1  UNL1       -0.0007
      7 C          -8.6463  -15.8206   22.9937 C.ar    1  UNL1       -0.0029
      8 C          -8.2805  -15.4320   24.3955 C.ar    1  UNL1       -0.0045
      9 C         -10.7919  -16.7895   20.6121 C.ar    1  UNL1        0.1791
     10 N         -10.6546  -16.0461   19.3165 N.ar    1  UNL1       -0.1110
     11 N         -11.9959  -15.4729   18.9666 N.ar    1  UNL1       -0.0229
     12 N         -12.9621  -15.8621   20.0460 N.ar    1  UNL1       -0.0432
     13 N         -12.2180  -16.6758   21.0629 N.ar    1  UNL1       -0.2192
     14 C         -12.7982  -17.2713   22.3114 C.3     1  UNL1        0.0896
     15 C         -12.6446  -15.9536   23.0114 C.3     1  UNL1        0.0245
     16 C         -13.0326  -18.4237   22.0061 C.3     1  UNL1        0.0245
     17 C         -13.3783  -17.8668   23.5599 C.3     1  UNL1        0.0245
     18 N          -8.9650  -18.6365   20.6473 N.3     1  UNL1       -0.2876
     19 H          -9.0899  -18.5001   19.6442 H       1  UNL1        0.1239
     20 C          -7.4949  -18.8237   20.8791 C.3     1  UNL1        0.0905
     21 C          -7.0132  -19.8940   21.8131 C.3     1  UNL1        0.1044
     22 N          -5.5914  -19.8881   22.2912 N.pl3   1  UNL1       -0.3315
     23 H          -5.1318  -20.7382   22.4793 H       1  UNL1        0.1469
     24 C          -4.8699  -18.5870   22.4825 C.ar    1  UNL1        0.0477
     25 C          -5.4534  -17.5296   23.3721 C.ar    1  UNL1        0.0350
     26 C          -4.7320  -16.2285   23.5635 C.ar    1  UNL1        0.1001
     27 N          -3.4269  -15.9849   22.8652 N.ar    1  UNL1       -0.2437
     28 C          -2.8434  -17.0422   21.9756 C.ar    1  UNL1        0.0833
     29 C          -1.5384  -16.7986   21.2774 C.ar    1  UNL1        0.0305
     30 C          -0.9549  -17.8559   20.3878 C.ar    1  UNL1        0.0592
     31 CL          0.3502  -17.6123   19.6896 Cl      1  UNL1       -0.0822
     32 C          -1.6764  -19.1571   20.1964 C.ar    1  UNL1        0.0115
     33 C          -2.9814  -19.4008   20.8947 C.ar    1  UNL1        0.0036
     34 C          -3.5649  -18.3433   21.7843 C.ar    1  UNL1        0.0309
@<TRIPOS>BOND
     1     2     3    1
     2     3     4   ar
     3     4     5   ar
     4     5     6   ar
     5     6     1    1
     6     1    18    1
     7    18    20    1
     8    20    21    1
     9    21    22    1
    10    22    24    1
    11    24    25   ar
    12    25    26   ar
    13    26    27   ar
    14    27    28   ar
    15    28    29   ar
    16    29    30   ar
    17    30    31    1
    18    30    32   ar
    19    32    33   ar
    20    33    34   ar
    21     1     9    1
    22     9    10   ar
    23    10    11   ar
    24    11    12   ar
    25    12    13   ar
    26    13    14    1
    27    14    15    1
    28    14    16    1
    29    14    17    1
    30     6     7   ar
    31     7     8   ar
    32     8     3   ar
    33    34    24   ar
    34    13     9   ar
    35    34    28   ar
    36    18    19    1
    37    22    23    1
@<TRIPOS>MOLECULE
*****
 34 37 0 0 0
SMALL
GASTEIGER

@<TRIPOS>ATOM
      1 C          -8.8082  -16.9428   22.2279 C.3     1  UNL1        0.1379
      2 C          -6.6538  -14.9896   27.4761 C.3     1  UNL1        0.0310
      3 C          -7.1924  -15.4779   26.1640 C.ar    1  UNL1       -0.0219
      4 C          -6.3291  -15.4396   24.9380 C.ar    1  UNL1       -0.0045
      5 C          -6.8677  -15.9279   23.6259 C.ar    1  UNL1       -0.0029
      6 C          -8.2696  -16.4545   23.5400 C.ar    1  UNL1       -0.0007
      7 C          -9.1329  -16.4928   24.7661 C.ar    1  UNL1       -0.0029
      8 C          -8.5943  -16.0045   26.0781 C.ar    1  UNL1       -0.0045
      9 C         -10.2850  -16.9163   21.9669 C.ar    1  UNL1        0.1791
     10 N         -11.0390  -15.8178   21.2778 N.ar    1  UNL1       -0.1110
     11 N         -12.4872  -16.2062   21.2341 N.ar    1  UNL1       -0.0229
     12 N         -12.6282  -17.5448   21.8962 N.ar    1  UNL1       -0.0432
     13 N         -11.2672  -17.9836   22.3490 N.ar    1  UNL1       -0.2192
     14 C         -10.9450  -19.2648   23.0594 C.3     1  UNL1        0.0896
     15 C         -10.8071  -19.9625   21.7387 C.3     1  UNL1        0.0245
     16 C         -10.9902  -18.9677   24.2366 C.3     1  UNL1        0.0245
     17 C         -10.6228  -20.5460   23.7698 C.3     1  UNL1        0.0245
     18 N          -7.8698  -17.4576   21.1769 N.3     1  UNL1       -0.2876
     19 H          -6.9628  -17.0266   21.3553 H       1  UNL1        0.1239
     20 C          -7.6297  -18.9322   21.0432 C.3     1  UNL1        0.0905
     21 C          -6.7650  -19.4538   19.9341 C.3     1  UNL1        0.1044
     22 N          -5.3653  -19.9081   20.2247 N.pl3   1  UNL1       -0.3315
     23 H          -5.0024  -20.7041   19.7731 H       1  UNL1        0.1469
     24 C          -4.5186  -19.1496   21.2034 C.ar    1  UNL1        0.0477
     25 C          -4.9845  -18.9716   22.6180 C.ar    1  UNL1        0.0350
     26 C          -4.1378  -18.2131   23.5966 C.ar    1  UNL1        0.1001
     27 N          -2.8251  -17.6327   23.1607 N.ar    1  UNL1       -0.2437
     28 C          -2.3592  -17.8107   21.7460 C.ar    1  UNL1        0.0833
     29 C          -1.0466  -17.2303   21.3100 C.ar    1  UNL1        0.0305
     30 C          -0.5807  -17.4083   19.8954 C.ar    1  UNL1        0.0592
     31 CL          0.7320  -16.8279   19.4594 Cl      1  UNL1       -0.0822
     32 C          -1.4274  -18.1668   18.9167 C.ar    1  UNL1        0.0115
     33 C          -2.7400  -18.7472   19.3527 C.ar    1  UNL1        0.0036
     34 C          -3.2059  -18.5692   20.7674 C.ar    1  UNL1        0.0309
@<TRIPOS>BOND
     1     2     3    1
     2     3     4   ar
     3     4     5   ar
     4     5     6   ar
     5     6     1    1
     6     1    18    1
     7    18    20    1
     8    20    21    1
     9    21    22    1
    10    22    24    1
    11    24    25   ar
    12    25    26   ar
    13    26    27   ar
    14    27    28   ar
    15    28    29   ar
    16    29    30   ar
    17    30    31    1
    18    30    32   ar
    19    32    33   ar
    20    33    34   ar
    21     1     9    1
    22     9    10   ar
    23    10    11   ar
    24    11    12   ar
    25    12    13   ar
    26    13    14    1
    27    14    15    1
    28    14    16    1
    29    14    17    1
    30     6     7   ar
    31     7     8   ar
    32     8     3   ar
    33    34    24   ar
    34    13     9   ar
    35    34    28   ar
    36    18    19    1
    37    22    23    1
@<TRIPOS>MOLECULE
*****
 34 37 0 0 0
SMALL
GASTEIGER

@<TRIPOS>ATOM
      1 C          -8.5537  -16.8839   22.6702 C.3     1  UNL1        0.1379
      2 C          -6.9359  -14.9374   28.1102 C.3     1  UNL1        0.0310
      3 C          -7.3404  -15.4240   26.7502 C.ar    1  UNL1       -0.0219
      4 C          -8.5087  -16.3531   26.6029 C.ar    1  UNL1       -0.0045
      5 C          -8.9131  -16.8397   25.2429 C.ar    1  UNL1       -0.0029
      6 C          -8.1493  -16.3973   24.0302 C.ar    1  UNL1       -0.0007
      7 C          -6.9809  -15.4681   24.1775 C.ar    1  UNL1       -0.0029
      8 C          -6.5764  -14.9815   25.5375 C.ar    1  UNL1       -0.0045
      9 C          -9.0285  -15.9078   21.6349 C.ar    1  UNL1        0.1791
     10 N          -8.2322  -14.7727   21.0625 N.ar    1  UNL1       -0.1110
     11 N          -9.0944  -14.0588   20.0641 N.ar    1  UNL1       -0.0229
     12 N         -10.4236  -14.7527   20.0194 N.ar    1  UNL1       -0.0432
     13 N         -10.3828  -15.8954   20.9902 N.ar    1  UNL1       -0.2192
     14 C         -11.5002  -16.8569   21.2676 C.3     1  UNL1        0.0896
     15 C         -11.1919  -17.5833   19.9920 C.3     1  UNL1        0.0245
     16 C         -11.9615  -16.4745   22.3246 C.3     1  UNL1        0.0245
     17 C         -12.6175  -17.8183   21.5451 C.3     1  UNL1        0.0245
     18 N          -8.4835  -18.3467   22.3455 N.3     1  UNL1       -0.2876
     19 H          -9.4347  -18.7090   22.4114 H       1  UNL1        0.1239
     20 C          -7.9398  -18.7958   21.0216 C.3     1  UNL1        0.0905
     21 C          -6.9265  -19.9001   20.9626 C.3     1  UNL1        0.1044
     22 N          -5.8611  -19.9974   22.0140 N.pl3   1  UNL1       -0.3315
     23 H          -5.8250  -20.7824   22.6071 H       1  UNL1        0.1469
     24 C          -4.8506  -18.8987   22.1618 C.ar    1  UNL1        0.0477
     25 C          -4.8259  -18.0652   23.4087 C.ar    1  UNL1        0.0350
     26 C          -3.8155  -16.9665   23.5565 C.ar    1  UNL1        0.1001
     27 N          -2.8298  -16.7013   22.4574 N.ar    1  UNL1       -0.2437
     28 C          -2.8545  -17.5347   21.2105 C.ar    1  UNL1        0.0833
     29 C          -1.8688  -17.2694   20.1114 C.ar    1  UNL1        0.0305
     30 C          -1.8935  -18.1029   18.8645 C.ar    1  UNL1        0.0592
     31 CL         -0.9078  -17.8376   17.7654 Cl      1  UNL1       -0.0822
     32 C          -2.9040  -19.2017   18.7167 C.ar    1  UNL1        0.0115
     33 C          -3.8897  -19.4669   19.8158 C.ar    1  UNL1        0.0036
     34 C          -3.8649  -18.6334   21.0627 C.ar    1  UNL1        0.0309
@<TRIPOS>BOND
     1     2     3    1
     2     3     4   ar
     3     4     5   ar
     4     5     6   ar
     5     6     1    1
     6     1    18    1
     7    18    20    1
     8    20    21    1
     9    21    22    1
    10    22    24    1
    11    24    25   ar
    12    25    26   ar
    13    26    27   ar
    14    27    28   ar
    15    28    29   ar
    16    29    30   ar
    17    30    31    1
    18    30    32   ar
    19    32    33   ar
    20    33    34   ar
    21     1     9    1
    22     9    10   ar
    23    10    11   ar
    24    11    12   ar
    25    12    13   ar
    26    13    14    1
    27    14    15    1
    28    14    16    1
    29    14    17    1
    30     6     7   ar
    31     7     8   ar
    32     8     3   ar
    33    34    24   ar
    34    13     9   ar
    35    34    28   ar
    36    18    19    1
    37    22    23    1
@<TRIPOS>MOLECULE
*****
 34 37 0 0 0
SMALL
GASTEIGER

@<TRIPOS>ATOM
      1 C         -10.2785  -18.4003   23.9856 C.3     1  UNL1        0.1379
      2 C          -7.0013  -14.7157   27.4038 C.3     1  UNL1        0.0310
      3 C          -7.8206  -15.6369   26.5492 C.ar    1  UNL1       -0.0219
      4 C          -8.1172  -15.2728   25.1247 C.ar    1  UNL1       -0.0045
      5 C          -8.9365  -16.1939   24.2701 C.ar    1  UNL1       -0.0029
      6 C          -9.4592  -17.4791   24.8402 C.ar    1  UNL1       -0.0007
      7 C          -9.1626  -17.8433   26.2648 C.ar    1  UNL1       -0.0029
      8 C          -8.3433  -16.9221   27.1193 C.ar    1  UNL1       -0.0045
      9 C         -11.7754  -18.3054   24.0021 C.ar    1  UNL1        0.1791
     10 N         -12.6769  -18.7801   25.1030 N.ar    1  UNL1       -0.1110
     11 N         -14.0923  -18.4873   24.7018 N.ar    1  UNL1       -0.0229
     12 N         -14.0655  -17.8316   23.3529 N.ar    1  UNL1       -0.0432
     13 N         -12.6336  -17.7193   22.9204 N.ar    1  UNL1       -0.2192
     14 C         -12.1456  -17.1250   21.6325 C.3     1  UNL1        0.0896
     15 C         -12.1312  -15.7652   22.2653 C.3     1  UNL1        0.0245
     16 C         -12.0613  -18.0773   20.8827 C.3     1  UNL1        0.0245
     17 C         -11.6576  -16.5309   20.3446 C.3     1  UNL1        0.0245
     18 N          -9.6009  -19.4163   23.1146 N.3     1  UNL1       -0.2876
     19 H         -10.2119  -19.5712   22.3128 H       1  UNL1        0.1239
     20 C          -8.2310  -19.1418   22.5686 C.3     1  UNL1        0.0905
     21 C          -7.2550  -20.2669   22.3912 C.3     1  UNL1        0.1044
     22 N          -5.8832  -19.9916   21.8505 N.pl3   1  UNL1       -0.3315
     23 H          -5.4588  -20.6325   21.2353 H       1  UNL1        0.1469
     24 C          -5.1581  -18.7398   22.2471 C.ar    1  UNL1        0.0477
     25 C          -5.7853  -17.7860   23.2200 C.ar    1  UNL1        0.0350
     26 C          -5.0601  -16.5343   23.6166 C.ar    1  UNL1        0.1001
     27 N          -3.7077  -16.2364   23.0401 N.ar    1  UNL1       -0.2437
     28 C          -3.0805  -17.1902   22.0671 C.ar    1  UNL1        0.0833
     29 C          -1.7281  -16.8924   21.4906 C.ar    1  UNL1        0.0305
     30 C          -1.1009  -17.8462   20.5176 C.ar    1  UNL1        0.0592
     31 CL          0.2515  -17.5483   19.9412 Cl      1  UNL1       -0.0822
     32 C          -1.8261  -19.0980   20.1211 C.ar    1  UNL1        0.0115
     33 C          -3.1785  -19.3959   20.6975 C.ar    1  UNL1        0.0036
     34 C          -3.8057  -18.4420   21.6706 C.ar    1  UNL1        0.0309
@<TRIPOS>BOND
     1     2     3    1
     2     3     4   ar
     3     4     5   ar
     4     5     6   ar
     5     6     1    1
     6     1    18    1
     7    18    20    1
     8    20    21    1
     9    21    22    1
    10    22    24    1
    11    24    25   ar
    12    25    26   ar
    13    26    27   ar
    14    27    28   ar
    15    28    29   ar
    16    29    30   ar
    17    30    31    1
    18    30    32   ar
    19    32    33   ar
    20    33    34   ar
    21     1     9    1
    22     9    10   ar
    23    10    11   ar
    24    11    12   ar
    25    12    13   ar
    26    13    14    1
    27    14    15    1
    28    14    16    1
    29    14    17    1
    30     6     7   ar
    31     7     8   ar
    32     8     3   ar
    33    34    24   ar
    34    13     9   ar
    35    34    28   ar
    36    18    19    1
    37    22    23    1
@<TRIPOS>MOLECULE
*****
 34 37 0 0 0
SMALL
GASTEIGER

@<TRIPOS>ATOM
      1 C          -5.1083  -17.7285   22.8007 C.3     1  UNL1        0.1379
      2 C           0.2444  -17.6593   20.0909 C.3     1  UNL1        0.0310
      3 C          -1.0938  -17.6766   20.7683 C.ar    1  UNL1       -0.0219
      4 C          -1.8567  -18.9624   20.8892 C.ar    1  UNL1       -0.0045
      5 C          -3.1949  -18.9797   21.5666 C.ar    1  UNL1       -0.0029
      6 C          -3.7701  -17.7112   22.1233 C.ar    1  UNL1       -0.0007
      7 C          -3.0072  -16.4253   22.0025 C.ar    1  UNL1       -0.0029
      8 C          -1.6690  -16.4080   21.3250 C.ar    1  UNL1       -0.0045
      9 C          -5.3745  -16.8131   23.9588 C.ar    1  UNL1        0.1791
     10 N          -4.4615  -16.5790   25.1257 N.ar    1  UNL1       -0.1110
     11 N          -5.1232  -15.5924   26.0414 N.ar    1  UNL1       -0.0229
     12 N          -6.4453  -15.2167   25.4405 N.ar    1  UNL1       -0.0432
     13 N          -6.6006  -15.9712   24.1534 N.ar    1  UNL1       -0.2192
     14 C          -7.7757  -15.8967   23.2241 C.3     1  UNL1        0.0896
     15 C          -8.5588  -16.7868   24.1429 C.3     1  UNL1        0.0245
     16 C          -7.3905  -15.1826   22.3198 C.3     1  UNL1        0.0245
     17 C          -8.9507  -15.8222   22.2948 C.3     1  UNL1        0.0245
     18 N          -6.1803  -18.6612   22.3200 N.3     1  UNL1       -0.2876
     19 H          -7.0421  -18.3875   22.7920 H       1  UNL1        0.1239
     20 C          -6.4972  -18.7489   20.8565 C.3     1  UNL1        0.0905
     21 C          -7.7175  -19.4899   20.3964 C.3     1  UNL1        0.1044
     22 N          -8.8835  -19.6637   21.3239 N.pl3   1  UNL1       -0.3315
     23 H          -8.8377  -20.3223   22.0542 H       1  UNL1        0.1469
     24 C         -10.1193  -18.8339   21.1386 C.ar    1  UNL1        0.0477
     25 C         -10.3549  -18.1185   19.8414 C.ar    1  UNL1        0.0350
     26 C         -11.5906  -17.2887   19.6562 C.ar    1  UNL1        0.1001
     27 N         -12.5909  -17.1744   20.7682 N.ar    1  UNL1       -0.2437
     28 C         -12.3554  -17.8898   22.0653 C.ar    1  UNL1        0.0833
     29 C         -13.3556  -17.7755   23.1773 C.ar    1  UNL1        0.0305
     30 C         -13.1201  -18.4909   24.4744 C.ar    1  UNL1        0.0592
     31 CL        -14.1204  -18.3766   25.5864 Cl      1  UNL1       -0.0822
     32 C         -11.8843  -19.3207   24.6597 C.ar    1  UNL1        0.0115
     33 C         -10.8840  -19.4350   23.5478 C.ar    1  UNL1        0.0036
     34 C         -11.1196  -18.7195   22.2505 C.ar    1  UNL1        0.0309
@<TRIPOS>BOND
     1     2     3    1
     2     3     4   ar
     3     4     5   ar
     4     5     6   ar
     5     6     1    1
     6     1    18    1
     7    18    20    1
     8    20    21    1
     9    21    22    1
    10    22    24    1
    11    24    25   ar
    12    25    26   ar
    13    26    27   ar
    14    27    28   ar
    15    28    29   ar
    16    29    30   ar
    17    30    31    1
    18    30    32   ar
    19    32    33   ar
    20    33    34   ar
    21     1     9    1
    22     9    10   ar
    23    10    11   ar
    24    11    12   ar
    25    12    13   ar
    26    13    14    1
    27    14    15    1
    28    14    16    1
    29    14    17    1
    30     6     7   ar
    31     7     8   ar
    32     8     3   ar
    33    34    24   ar
    34    13     9   ar
    35    34    28   ar
    36    18    19    1
    37    22    23    1
@<TRIPOS>MOLECULE
*****
 34 37 0 0 0
SMALL
GASTEIGER

@<TRIPOS>ATOM
      1 C         -12.8934   -4.9735   17.6206 C.3     1  UNL1        0.1379
      2 C         -16.9926   -1.1603   19.7786 C.3     1  UNL1        0.0310
      3 C         -15.9678   -2.1136   19.2391 C.ar    1  UNL1       -0.0219
      4 C         -15.9323   -2.4256   17.7723 C.ar    1  UNL1       -0.0045
      5 C         -14.9075   -3.3789   17.2329 C.ar    1  UNL1       -0.0029
      6 C         -13.9182   -4.0202   18.1601 C.ar    1  UNL1       -0.0007
      7 C         -13.9536   -3.7083   19.6269 C.ar    1  UNL1       -0.0029
      8 C         -14.9784   -2.7550   20.1664 C.ar    1  UNL1       -0.0045
      9 C         -11.5195   -5.0165   18.2210 C.ar    1  UNL1        0.1791
     10 N         -10.9398   -6.1487   19.0161 N.ar    1  UNL1       -0.1110
     11 N          -9.5461   -5.7668   19.4183 N.ar    1  UNL1       -0.0229
     12 N          -9.2645   -4.3985   18.8717 N.ar    1  UNL1       -0.0432
     13 N         -10.4841   -3.9349   18.1318 N.ar    1  UNL1       -0.2192
     14 C         -10.6408   -2.6203   17.4266 C.3     1  UNL1        0.0896
     15 C         -10.9985   -1.9649   18.7274 C.3     1  UNL1        0.0245
     16 C         -10.3904   -2.8778   16.2658 C.3     1  UNL1        0.0245
     17 C         -10.7975   -1.3059   16.7212 C.3     1  UNL1        0.0245
     18 N         -13.2426   -5.8839   16.4807 N.3     1  UNL1       -0.2876
     19 H         -12.3619   -6.1787   16.0589 H       1  UNL1        0.1239
     20 C         -14.0404   -7.1289   16.7324 C.3     1  UNL1        0.0905
     21 C         -13.5243   -8.1719   17.6787 C.3     1  UNL1        0.1044
     22 N         -14.3236   -8.5454   18.8918 N.pl3   1  UNL1       -0.3315
     23 H         -13.8964   -8.5562   19.7787 H       1  UNL1        0.1469
     24 C         -15.7740   -8.9025   18.7535 C.ar    1  UNL1        0.0477
     25 C         -16.1710  -10.3071   18.4083 C.ar    1  UNL1        0.0350
     26 C         -17.6213  -10.6641   18.2701 C.ar    1  UNL1        0.1001
     27 N         -18.6746   -9.6164   18.4771 N.ar    1  UNL1       -0.2437
     28 C         -18.2776   -8.2117   18.8223 C.ar    1  UNL1        0.0833
     29 C         -19.3310   -7.1641   19.0293 C.ar    1  UNL1        0.0305
     30 C         -18.9340   -5.7594   19.3745 C.ar    1  UNL1        0.0592
     31 CL        -19.9873   -4.7117   19.5815 Cl      1  UNL1       -0.0822
     32 C         -17.4836   -5.4023   19.5128 C.ar    1  UNL1        0.0115
     33 C         -16.4303   -6.4500   19.3058 C.ar    1  UNL1        0.0036
     34 C         -16.8273   -7.8548   18.9605 C.ar    1  UNL1        0.0309
@<TRIPOS>BOND
     1     2     3    1
     2     3     4   ar
     3     4     5   ar
     4     5     6   ar
     5     6     1    1
     6     1    18    1
     7    18    20    1
     8    20    21    1
     9    21    22    1
    10    22    24    1
    11    24    25   ar
    12    25    26   ar
    13    26    27   ar
    14    27    28   ar
    15    28    29   ar
    16    29    30   ar
    17    30    31    1
    18    30    32   ar
    19    32    33   ar
    20    33    34   ar
    21     1     9    1
    22     9    10   ar
    23    10    11   ar
    24    11    12   ar
    25    12    13   ar
    26    13    14    1
    27    14    15    1
    28    14    16    1
    29    14    17    1
    30     6     7   ar
    31     7     8   ar
    32     8     3   ar
    33    34    24   ar
    34    13     9   ar
    35    34    28   ar
    36    18    19    1
    37    22    23    1
@<TRIPOS>MOLECULE
*****
 34 37 0 0 0
SMALL
GASTEIGER

@<TRIPOS>ATOM
      1 C           6.8628   -3.4559   20.9335 C.3     1  UNL1        0.1379
      2 C           5.1154   -0.5174   25.8642 C.3     1  UNL1        0.0310
      3 C           5.5523   -1.2520   24.6316 C.ar    1  UNL1       -0.0219
      4 C           4.7140   -2.3713   24.0889 C.ar    1  UNL1       -0.0045
      5 C           5.1508   -3.1059   22.8562 C.ar    1  UNL1       -0.0029
      6 C           6.4259   -2.7213   22.1662 C.ar    1  UNL1       -0.0007
      7 C           7.2643   -1.6020   22.7089 C.ar    1  UNL1       -0.0029
      8 C           6.8274   -0.8673   23.9415 C.ar    1  UNL1       -0.0045
      9 C           6.6308   -2.8533   19.5796 C.ar    1  UNL1        0.1791
     10 N           7.5557   -1.9156   18.8616 N.ar    1  UNL1       -0.1110
     11 N           6.9298   -1.5654   17.5442 N.ar    1  UNL1       -0.0229
     12 N           5.6180   -2.2868   17.4480 N.ar    1  UNL1       -0.0432
     13 N           5.4333   -3.0827   18.7059 N.ar    1  UNL1       -0.2192
     14 C           4.2575   -3.9548   19.0327 C.3     1  UNL1        0.0896
     15 C           3.4945   -2.7511   19.5003 C.3     1  UNL1        0.0245
     16 C           4.6267   -5.0719   18.7292 C.3     1  UNL1        0.0245
     17 C           3.0818   -4.8271   19.3594 C.3     1  UNL1        0.0245
     18 N           7.5316   -4.7931   21.0548 N.3     1  UNL1       -0.2876
     19 H           7.6373   -5.1564   20.1075 H       1  UNL1        0.1239
     20 C           8.8749   -4.9028   21.7131 C.3     1  UNL1        0.0905
     21 C           8.9764   -5.3565   23.1392 C.3     1  UNL1        0.1044
     22 N           7.7338   -5.6892   23.9107 N.pl3   1  UNL1       -0.3315
     23 H           6.8493   -5.4715   23.5370 H       1  UNL1        0.1469
     24 C           7.8387   -6.3534   25.2515 C.ar    1  UNL1        0.0477
     25 C           8.2996   -7.7775   25.3490 C.ar    1  UNL1        0.0350
     26 C           8.4046   -8.4417   26.6898 C.ar    1  UNL1        0.1001
     27 N           8.0486   -7.6818   27.9331 N.ar    1  UNL1       -0.2437
     28 C           7.5877   -6.2577   27.8357 C.ar    1  UNL1        0.0833
     29 C           7.2318   -5.4978   29.0790 C.ar    1  UNL1        0.0305
     30 C           6.7709   -4.0738   28.9815 C.ar    1  UNL1        0.0592
     31 CL          6.4150   -3.3139   30.2249 Cl      1  UNL1       -0.0822
     32 C           6.6659   -3.4095   27.6407 C.ar    1  UNL1        0.0115
     33 C           7.0219   -4.1694   26.3973 C.ar    1  UNL1        0.0036
     34 C           7.4828   -5.5935   26.4949 C.ar    1  UNL1        0.0309
@<TRIPOS>BOND
     1     2     3    1
     2     3     4   ar
     3     4     5   ar
     4     5     6   ar
     5     6     1    1
     6     1    18    1
     7    18    20    1
     8    20    21    1
     9    21    22    1
    10    22    24    1
    11    24    25   ar
    12    25    26   ar
    13    26    27   ar
    14    27    28   ar
    15    28    29   ar
    16    29    30   ar
    17    30    31    1
    18    30    32   ar
    19    32    33   ar
    20    33    34   ar
    21     1     9    1
    22     9    10   ar
    23    10    11   ar
    24    11    12   ar
    25    12    13   ar
    26    13    14    1
    27    14    15    1
    28    14    16    1
    29    14    17    1
    30     6     7   ar
    31     7     8   ar
    32     8     3   ar
    33    34    24   ar
    34    13     9   ar
    35    34    28   ar
    36    18    19    1
    37    22    23    1
@<TRIPOS>MOLECULE
*****
 34 37 0 0 0
SMALL
GASTEIGER

@<TRIPOS>ATOM
      1 C           3.7331   -1.7360   18.5276 C.3     1  UNL1        0.1379
      2 C          -0.4594    2.2034   20.2317 C.3     1  UNL1        0.0310
      3 C           0.5887    1.2185   19.8057 C.ar    1  UNL1       -0.0219
      4 C           1.3125    1.4089   18.5058 C.ar    1  UNL1       -0.0045
      5 C           2.3607    0.4240   18.0798 C.ar    1  UNL1       -0.0029
      6 C           2.6849   -0.7512   18.9536 C.ar    1  UNL1       -0.0007
      7 C           1.9611   -0.9416   20.2536 C.ar    1  UNL1       -0.0029
      8 C           0.9130    0.0433   20.6797 C.ar    1  UNL1       -0.0045
      9 C           3.9189   -3.0120   19.2939 C.ar    1  UNL1        0.1791
     10 N           3.1747   -4.2942   19.0654 N.ar    1  UNL1       -0.1110
     11 N           3.6775   -5.3045   20.0536 N.ar    1  UNL1       -0.0229
     12 N           4.7325   -4.6467   20.8928 N.ar    1  UNL1       -0.0432
     13 N           4.8817   -3.2299   20.4233 N.ar    1  UNL1       -0.2192
     14 C           5.8276   -2.2101   20.9847 C.3     1  UNL1        0.0896
     15 C           6.9273   -2.7553   20.1225 C.3     1  UNL1        0.0245
     16 C           5.1488   -1.5816   21.7724 C.3     1  UNL1        0.0245
     17 C           6.7735   -1.1902   21.5461 C.3     1  UNL1        0.0245
     18 N           4.5953   -1.4449   17.3352 N.3     1  UNL1       -0.2876
     19 H           4.0314   -0.8882   16.6929 H       1  UNL1        0.1239
     20 C           5.8963   -0.7189   17.5098 C.3     1  UNL1        0.0905
     21 C           6.1258    0.5877   16.8097 C.3     1  UNL1        0.1044
     22 N           6.5442    1.7957   17.5944 N.pl3   1  UNL1       -0.3315
     23 H           7.4620    1.8617   17.9443 H       1  UNL1        0.1469
     24 C           5.5641    2.9030   17.8459 C.ar    1  UNL1        0.0477
     25 C           5.3811    3.9885   16.8270 C.ar    1  UNL1        0.0350
     26 C           4.4010    5.0958   17.0786 C.ar    1  UNL1        0.1001
     27 N           3.6039    5.1176   18.3490 N.ar    1  UNL1       -0.2437
     28 C           3.7868    4.0321   19.3679 C.ar    1  UNL1        0.0833
     29 C           2.9897    4.0539   20.6384 C.ar    1  UNL1        0.0305
     30 C           3.1726    2.9684   21.6573 C.ar    1  UNL1        0.0592
     31 CL          2.3755    2.9902   22.9278 Cl      1  UNL1       -0.0822
     32 C           4.1527    1.8611   21.4058 C.ar    1  UNL1        0.0115
     33 C           4.9499    1.8393   20.1353 C.ar    1  UNL1        0.0036
     34 C           4.7669    2.9248   19.1164 C.ar    1  UNL1        0.0309
@<TRIPOS>BOND
     1     2     3    1
     2     3     4   ar
     3     4     5   ar
     4     5     6   ar
     5     6     1    1
     6     1    18    1
     7    18    20    1
     8    20    21    1
     9    21    22    1
    10    22    24    1
    11    24    25   ar
    12    25    26   ar
    13    26    27   ar
    14    27    28   ar
    15    28    29   ar
    16    29    30   ar
    17    30    31    1
    18    30    32   ar
    19    32    33   ar
    20    33    34   ar
    21     1     9    1
    22     9    10   ar
    23    10    11   ar
    24    11    12   ar
    25    12    13   ar
    26    13    14    1
    27    14    15    1
    28    14    16    1
    29    14    17    1
    30     6     7   ar
    31     7     8   ar
    32     8     3   ar
    33    34    24   ar
    34    13     9   ar
    35    34    28   ar
    36    18    19    1
    37    22    23    1
@<TRIPOS>MOLECULE
*****
 34 37 0 0 0
SMALL
GASTEIGER

@<TRIPOS>ATOM
      1 C           5.0625   -0.3004   17.5161 C.3     1  UNL1        0.1379
      2 C           0.2413    2.7791   19.3251 C.3     1  UNL1        0.0310
      3 C           1.4466    2.0092   18.8728 C.ar    1  UNL1       -0.0219
      4 C           1.2901    0.6155   18.3409 C.ar    1  UNL1       -0.0045
      5 C           2.4954   -0.1544   17.8887 C.ar    1  UNL1       -0.0029
      6 C           3.8572    0.4694   17.9683 C.ar    1  UNL1       -0.0007
      7 C           4.0137    1.8633   18.5003 C.ar    1  UNL1       -0.0029
      8 C           2.8084    2.6332   18.9525 C.ar    1  UNL1       -0.0045
      9 C           6.3959    0.3802   17.4236 C.ar    1  UNL1        0.1791
     10 N           6.9026    1.1718   16.2546 N.ar    1  UNL1       -0.1110
     11 N           8.2766    1.6696   16.5924 N.ar    1  UNL1       -0.0229
     12 N           8.6192    1.1857   17.9703 N.ar    1  UNL1       -0.0432
     13 N           7.4568    0.3888   18.4840 N.ar    1  UNL1       -0.2192
     14 C           7.3706   -0.2818   19.8230 C.3     1  UNL1        0.0896
     15 C           8.3029   -1.3554   19.3454 C.3     1  UNL1        0.0245
     16 C           6.6209    0.4306   20.4608 C.3     1  UNL1        0.0245
     17 C           7.2843   -0.9522   21.1620 C.3     1  UNL1        0.0245
     18 N           4.9343   -1.7511   17.1563 N.3     1  UNL1       -0.2876
     19 H           5.4645   -1.8890   16.2960 H       1  UNL1        0.1239
     20 C           5.3907   -2.8059   18.1201 C.3     1  UNL1        0.0905
     21 C           4.3835   -3.5741   18.9235 C.3     1  UNL1        0.1044
     22 N           3.5107   -2.8600   19.9125 N.pl3   1  UNL1       -0.3315
     23 H           2.6381   -2.5019   19.6303 H       1  UNL1        0.1469
     24 C           3.9673   -2.6914   21.3313 C.ar    1  UNL1        0.0477
     25 C           4.9101   -3.6872   21.9391 C.ar    1  UNL1        0.0350
     26 C           5.3667   -3.5186   23.3579 C.ar    1  UNL1        0.1001
     27 N           4.8806   -2.3541   24.1689 N.ar    1  UNL1       -0.2437
     28 C           3.9378   -1.3583   23.5611 C.ar    1  UNL1        0.0833
     29 C           3.4517   -0.1938   24.3721 C.ar    1  UNL1        0.0305
     30 C           2.5089    0.8020   23.7643 C.ar    1  UNL1        0.0592
     31 CL          2.0227    1.9665   24.5753 Cl      1  UNL1       -0.0822
     32 C           2.0522    0.6334   22.3454 C.ar    1  UNL1        0.0115
     33 C           2.5384   -0.5310   21.5344 C.ar    1  UNL1        0.0036
     34 C           3.4812   -1.5269   22.1423 C.ar    1  UNL1        0.0309
@<TRIPOS>BOND
     1     2     3    1
     2     3     4   ar
     3     4     5   ar
     4     5     6   ar
     5     6     1    1
     6     1    18    1
     7    18    20    1
     8    20    21    1
     9    21    22    1
    10    22    24    1
    11    24    25   ar
    12    25    26   ar
    13    26    27   ar
    14    27    28   ar
    15    28    29   ar
    16    29    30   ar
    17    30    31    1
    18    30    32   ar
    19    32    33   ar
    20    33    34   ar
    21     1     9    1
    22     9    10   ar
    23    10    11   ar
    24    11    12   ar
    25    12    13   ar
    26    13    14    1
    27    14    15    1
    28    14    16    1
    29    14    17    1
    30     6     7   ar
    31     7     8   ar
    32     8     3   ar
    33    34    24   ar
    34    13     9   ar
    35    34    28   ar
    36    18    19    1
    37    22    23    1
