@<TRIPOS>MOLECULE
*****
 28 31 0 0 0
SMALL
GASTEIGER

@<TRIPOS>ATOM
      1 C         -10.2833  -17.6741   24.2579 C.ar    1  UNL1        0.0284
      2 C          -9.8449  -16.2552   24.0471 C.ar    1  UNL1        0.0027
      3 C          -8.9014  -15.6095   25.0181 C.ar    1  UNL1        0.0339
      4 C          -8.3962  -16.3827   26.2000 C.ar    1  UNL1        0.1311
      5 N          -8.8347  -17.8017   26.4108 N.ar    1  UNL1       -0.2035
      6 C          -9.7781  -18.4474   25.4398 C.ar    1  UNL1        0.2196
      7 F         -10.2165  -19.8663   25.6507 F       1  UNL1       -0.1835
      8 N          -7.4528  -15.7370   27.1711 N.pl3   1  UNL1       -0.3144
      9 H          -7.6524  -15.7514   28.1350 H       1  UNL1        0.1485
     10 C          -6.2052  -15.0694   26.6734 C.3     1  UNL1        0.1169
     11 C          -5.3876  -15.7161   25.5949 C.ar    1  UNL1        0.0166
     12 C          -4.5649  -16.9316   25.9043 C.ar    1  UNL1        0.0014
     13 C          -3.7473  -17.5784   24.8258 C.ar    1  UNL1        0.0305
     14 C          -3.7523  -17.0097   23.4378 C.ar    1  UNL1        0.1383
     15 CL         -2.9347  -17.6565   22.3593 Cl      1  UNL1       -0.0613
     16 N          -4.5750  -15.7941   23.1284 N.ar    1  UNL1       -0.2327
     17 C          -5.3925  -15.1474   24.2069 C.ar    1  UNL1        0.0972
     18 C         -11.2268  -18.3198   23.2869 C.3     1  UNL1        0.0603
     19 C          -5.6884  -19.9433   22.0693 C.3     1  UNL1        0.0307
     20 C          -6.9580  -19.6218   21.3379 C.2     1  UNL1        0.0074
     21 C          -6.9974  -19.6859   19.8398 C.2     1  UNL1        0.2278
     22 N          -8.2669  -19.3644   19.1085 N.2     1  UNL1       -0.0314
     23 C          -9.4971  -18.9788   19.8752 C.2     1  UNL1        0.3716
     24 N         -10.8819  -18.6104   19.4318 N.2     1  UNL1       -0.0311
     25 C         -11.6984  -18.3187   20.6558 C.2     1  UNL1        0.2319
     26 C         -10.8182  -18.5068   21.8558 C.2     1  UNL1        0.0328
     27 C          -9.4577  -18.9148   21.3733 C.2     1  UNL1        0.0704
     28 C          -8.1882  -19.2363   22.1047 C.3     1  UNL1        0.0598
@<TRIPOS>BOND
     1    19    20    1
     2    20    21    2
     3    21    22    1
     4    22    23    2
     5    23    24    1
     6    24    25    2
     7    25    26    1
     8    26    18    1
     9    18     1    1
    10     1     2   ar
    11     2     3   ar
    12     3     4   ar
    13     4     8    1
    14     8    10    1
    15    10    11    1
    16    11    12   ar
    17    12    13   ar
    18    13    14   ar
    19    14    15    1
    20    14    16   ar
    21    16    17   ar
    22     4     5   ar
    23     5     6   ar
    24     6     7    1
    25    26    27    2
    26    27    28    1
    27    28    20    1
    28    27    23    1
    29     6     1   ar
    30    17    11   ar
    31     8     9    1
@<TRIPOS>MOLECULE
*****
 28 31 0 0 0
SMALL
GASTEIGER

@<TRIPOS>ATOM
      1 C          -6.8615  -20.2016   20.9768 C.ar    1  UNL1        0.0284
      2 C          -7.2087  -20.4083   22.4213 C.ar    1  UNL1        0.0027
      3 C          -8.4735  -19.8264   22.9794 C.ar    1  UNL1        0.0339
      4 C          -9.3912  -19.0376   22.0930 C.ar    1  UNL1        0.1311
      5 N          -9.0440  -18.8309   20.6484 N.ar    1  UNL1       -0.2035
      6 C          -7.7791  -19.4129   20.0903 C.ar    1  UNL1        0.2196
      7 F          -7.4320  -19.2061   18.6457 F       1  UNL1       -0.1835
      8 N         -10.6560  -18.4557   22.6511 N.pl3   1  UNL1       -0.3144
      9 H         -11.4827  -18.9902   22.6580 H       1  UNL1        0.1485
     10 C         -10.6613  -17.0592   23.1987 C.3     1  UNL1        0.1169
     11 C          -9.6557  -16.6568   24.2364 C.ar    1  UNL1        0.0166
     12 C          -9.5919  -17.3902   25.5433 C.ar    1  UNL1        0.0014
     13 C          -8.5863  -16.9878   26.5809 C.ar    1  UNL1        0.0305
     14 C          -7.6444  -15.8518   26.3118 C.ar    1  UNL1        0.1383
     15 CL         -6.6388  -15.4493   27.3494 Cl      1  UNL1       -0.0613
     16 N          -7.7082  -15.1183   25.0048 N.ar    1  UNL1       -0.2327
     17 C          -8.7138  -15.5208   23.9672 C.ar    1  UNL1        0.0972
     18 C          -5.5967  -20.7836   20.4186 C.3     1  UNL1        0.0603
     19 C          -4.4793  -16.6108   24.4349 C.3     1  UNL1        0.0307
     20 C          -3.8821  -17.1481   23.1682 C.2     1  UNL1        0.0074
     21 C          -2.6177  -16.5527   22.6236 C.2     1  UNL1        0.2278
     22 N          -2.0206  -17.0900   21.3568 N.2     1  UNL1       -0.0314
     23 C          -2.6878  -18.2228   20.6347 C.2     1  UNL1        0.3716
     24 N          -2.3356  -18.9559   19.3743 N.2     1  UNL1       -0.0311
     25 C          -3.3824  -20.0044   19.1400 C.2     1  UNL1        0.2319
     26 C          -4.3816  -19.9194   20.2555 C.2     1  UNL1        0.0328
     27 C          -3.9523  -18.8182   21.1793 C.2     1  UNL1        0.0704
     28 C          -4.5494  -18.2809   22.4461 C.3     1  UNL1        0.0598
@<TRIPOS>BOND
     1    19    20    1
     2    20    21    2
     3    21    22    1
     4    22    23    2
     5    23    24    1
     6    24    25    2
     7    25    26    1
     8    26    18    1
     9    18     1    1
    10     1     2   ar
    11     2     3   ar
    12     3     4   ar
    13     4     8    1
    14     8    10    1
    15    10    11    1
    16    11    12   ar
    17    12    13   ar
    18    13    14   ar
    19    14    15    1
    20    14    16   ar
    21    16    17   ar
    22     4     5   ar
    23     5     6   ar
    24     6     7    1
    25    26    27    2
    26    27    28    1
    27    28    20    1
    28    27    23    1
    29     6     1   ar
    30    17    11   ar
    31     8     9    1
@<TRIPOS>MOLECULE
*****
 28 31 0 0 0
SMALL
GASTEIGER

@<TRIPOS>ATOM
      1 C          -5.4351  -16.5952   23.9047 C.ar    1  UNL1        0.0284
      2 C          -6.3621  -17.3054   22.9633 C.ar    1  UNL1        0.0027
      3 C          -7.8266  -16.9809   22.9656 C.ar    1  UNL1        0.0339
      4 C          -8.3641  -15.9462   23.9092 C.ar    1  UNL1        0.1311
      5 N          -7.4370  -15.2360   24.8506 N.ar    1  UNL1       -0.2035
      6 C          -5.9725  -15.5604   24.8484 C.ar    1  UNL1        0.2196
      7 F          -5.0455  -14.8502   25.7898 F       1  UNL1       -0.1835
      8 N          -9.8285  -15.6217   23.9115 N.pl3   1  UNL1       -0.3144
      9 H         -10.1293  -14.7048   24.1066 H       1  UNL1        0.1485
     10 C         -10.8348  -16.6943   23.6164 C.3     1  UNL1        0.1169
     11 C         -10.7126  -17.5138   22.3661 C.ar    1  UNL1        0.0166
     12 C         -10.6761  -19.0109   22.4511 C.ar    1  UNL1        0.0014
     13 C         -10.5539  -19.8305   21.2008 C.ar    1  UNL1        0.0305
     14 C         -10.4683  -19.1529   19.8653 C.ar    1  UNL1        0.1383
     15 CL        -10.3461  -19.9724   18.6149 Cl      1  UNL1       -0.0613
     16 N         -10.5048  -17.6557   19.7802 N.ar    1  UNL1       -0.2327
     17 C         -10.6270  -16.8363   21.0306 C.ar    1  UNL1        0.0972
     18 C          -3.9706  -16.9197   23.9024 C.3     1  UNL1        0.0603
     19 C          -5.6395  -21.3607   20.3977 C.3     1  UNL1        0.0307
     20 C          -4.6229  -20.2580   20.4173 C.2     1  UNL1        0.0074
     21 C          -3.6656  -20.1000   19.2733 C.2     1  UNL1        0.2278
     22 N          -2.6490  -18.9973   19.2929 N.2     1  UNL1       -0.0314
     23 C          -2.5897  -18.0524   20.4563 C.2     1  UNL1        0.3716
     24 N          -1.7031  -16.8793   20.7525 N.2     1  UNL1       -0.0311
     25 C          -2.1125  -16.3121   22.0794 C.2     1  UNL1        0.2319
     26 C          -3.2521  -17.1348   22.6034 C.2     1  UNL1        0.0328
     27 C          -3.5470  -18.2103   21.6003 C.2     1  UNL1        0.0704
     28 C          -4.5636  -19.3131   21.5807 C.3     1  UNL1        0.0598
@<TRIPOS>BOND
     1    19    20    1
     2    20    21    2
     3    21    22    1
     4    22    23    2
     5    23    24    1
     6    24    25    2
     7    25    26    1
     8    26    18    1
     9    18     1    1
    10     1     2   ar
    11     2     3   ar
    12     3     4   ar
    13     4     8    1
    14     8    10    1
    15    10    11    1
    16    11    12   ar
    17    12    13   ar
    18    13    14   ar
    19    14    15    1
    20    14    16   ar
    21    16    17   ar
    22     4     5   ar
    23     5     6   ar
    24     6     7    1
    25    26    27    2
    26    27    28    1
    27    28    20    1
    28    27    23    1
    29     6     1   ar
    30    17    11   ar
    31     8     9    1
@<TRIPOS>MOLECULE
*****
 28 31 0 0 0
SMALL
GASTEIGER

@<TRIPOS>ATOM
      1 C          -9.0686  -15.8978   23.6508 C.ar    1  UNL1        0.0284
      2 C          -8.6496  -16.4251   24.9910 C.ar    1  UNL1        0.0027
      3 C          -7.1995  -16.4316   25.3746 C.ar    1  UNL1        0.0339
      4 C          -6.1683  -15.9108   24.4179 C.ar    1  UNL1        0.1311
      5 N          -6.5873  -15.3834   23.0775 N.ar    1  UNL1       -0.2035
      6 C          -8.0374  -15.3769   22.6940 C.ar    1  UNL1        0.2196
      7 F          -8.4563  -14.8496   21.3537 F       1  UNL1       -0.1835
      8 N          -4.7182  -15.9173   24.8015 N.pl3   1  UNL1       -0.3144
      9 H          -4.3188  -15.1261   25.2302 H       1  UNL1        0.1485
     10 C          -3.8765  -17.1293   24.5319 C.3     1  UNL1        0.1169
     11 C          -3.4674  -17.4609   23.1274 C.ar    1  UNL1        0.0166
     12 C          -3.8057  -18.8007   22.5441 C.ar    1  UNL1        0.0014
     13 C          -3.3966  -19.1324   21.1396 C.ar    1  UNL1        0.0305
     14 C          -2.6490  -18.1241   20.3183 C.ar    1  UNL1        0.1383
     15 CL         -2.2398  -18.4557   18.9139 Cl      1  UNL1       -0.0613
     16 N          -2.3106  -16.7842   20.9017 N.ar    1  UNL1       -0.2327
     17 C          -2.7198  -16.4526   22.3061 C.ar    1  UNL1        0.0972
     18 C         -10.5187  -15.8913   23.2672 C.3     1  UNL1        0.0603
     19 C          -7.0248  -19.9905   20.8628 C.3     1  UNL1        0.0307
     20 C          -8.3582  -19.3524   20.6083 C.2     1  UNL1        0.0074
     21 C          -9.1771  -19.7729   19.4240 C.2     1  UNL1        0.2278
     22 N         -10.5105  -19.1347   19.1695 N.2     1  UNL1       -0.0314
     23 C         -11.0250  -18.0761   20.0993 C.2     1  UNL1        0.3716
     24 N         -12.2928  -17.2744   20.1041 N.2     1  UNL1       -0.0311
     25 C         -12.2574  -16.3583   21.2914 C.2     1  UNL1        0.2319
     26 C         -10.9678  -16.5939   22.0204 C.2     1  UNL1        0.0328
     27 C         -10.2062  -17.6556   21.2836 C.2     1  UNL1        0.0704
     28 C          -8.8727  -18.2938   21.5381 C.3     1  UNL1        0.0598
@<TRIPOS>BOND
     1    19    20    1
     2    20    21    2
     3    21    22    1
     4    22    23    2
     5    23    24    1
     6    24    25    2
     7    25    26    1
     8    26    18    1
     9    18     1    1
    10     1     2   ar
    11     2     3   ar
    12     3     4   ar
    13     4     8    1
    14     8    10    1
    15    10    11    1
    16    11    12   ar
    17    12    13   ar
    18    13    14   ar
    19    14    15    1
    20    14    16   ar
    21    16    17   ar
    22     4     5   ar
    23     5     6   ar
    24     6     7    1
    25    26    27    2
    26    27    28    1
    27    28    20    1
    28    27    23    1
    29     6     1   ar
    30    17    11   ar
    31     8     9    1
@<TRIPOS>MOLECULE
*****
 28 31 0 0 0
SMALL
GASTEIGER

@<TRIPOS>ATOM
      1 C          -7.0303  -16.2364   23.9696 C.ar    1  UNL1        0.0284
      2 C          -5.9361  -15.6736   24.8275 C.ar    1  UNL1        0.0027
      3 C          -4.5225  -16.1393   24.6415 C.ar    1  UNL1        0.0339
      4 C          -4.2029  -17.1679   23.5976 C.ar    1  UNL1        0.1311
      5 N          -5.2971  -17.7307   22.7396 N.ar    1  UNL1       -0.2035
      6 C          -6.7108  -17.2650   22.9256 C.ar    1  UNL1        0.2196
      7 F          -7.8048  -17.8278   22.0676 F       1  UNL1       -0.1835
      8 N          -2.7892  -17.6336   23.4116 N.pl3   1  UNL1       -0.3144
      9 H          -2.0575  -17.1938   23.9018 H       1  UNL1        0.1485
     10 C          -2.4904  -18.7695   22.4786 C.3     1  UNL1        0.1169
     11 C          -2.2325  -18.4989   21.0259 C.ar    1  UNL1        0.0166
     12 C          -3.3612  -18.5588   20.0399 C.ar    1  UNL1        0.0014
     13 C          -3.1033  -18.2882   18.5872 C.ar    1  UNL1        0.0305
     14 C          -1.7166  -17.9576   18.1206 C.ar    1  UNL1        0.1383
     15 CL         -1.4587  -17.6870   16.6679 Cl      1  UNL1       -0.0613
     16 N          -0.5878  -17.8977   19.1067 N.ar    1  UNL1       -0.2327
     17 C          -0.8458  -18.1684   20.5593 C.ar    1  UNL1        0.0972
     18 C          -8.4439  -15.7707   24.1556 C.3     1  UNL1        0.0603
     19 C         -11.9827  -15.7331   19.4367 C.3     1  UNL1        0.0307
     20 C         -11.8259  -16.4851   20.7251 C.2     1  UNL1        0.0074
     21 C         -12.7765  -17.5940   21.0667 C.2     1  UNL1        0.2278
     22 N         -12.6197  -18.3460   22.3551 N.2     1  UNL1       -0.0314
     23 C         -11.5123  -17.9892   23.3018 C.2     1  UNL1        0.3716
     24 N         -11.1118  -18.5489   24.6346 N.2     1  UNL1       -0.0311
     25 C          -9.9137  -17.7859   25.1167 C.2     1  UNL1        0.2319
     26 C          -9.5736  -16.7547   24.0818 C.2     1  UNL1        0.0328
     27 C         -10.5616  -16.8804   22.9601 C.2     1  UNL1        0.0704
     28 C         -10.7184  -16.1284   21.6718 C.3     1  UNL1        0.0598
@<TRIPOS>BOND
     1    19    20    1
     2    20    21    2
     3    21    22    1
     4    22    23    2
     5    23    24    1
     6    24    25    2
     7    25    26    1
     8    26    18    1
     9    18     1    1
    10     1     2   ar
    11     2     3   ar
    12     3     4   ar
    13     4     8    1
    14     8    10    1
    15    10    11    1
    16    11    12   ar
    17    12    13   ar
    18    13    14   ar
    19    14    15    1
    20    14    16   ar
    21    16    17   ar
    22     4     5   ar
    23     5     6   ar
    24     6     7    1
    25    26    27    2
    26    27    28    1
    27    28    20    1
    28    27    23    1
    29     6     1   ar
    30    17    11   ar
    31     8     9    1
@<TRIPOS>MOLECULE
*****
 28 31 0 0 0
SMALL
GASTEIGER

@<TRIPOS>ATOM
      1 C          -8.6311  -19.0120   22.0247 C.ar    1  UNL1        0.0284
      2 C          -7.5138  -19.7629   22.6861 C.ar    1  UNL1        0.0027
      3 C          -6.4854  -20.4665   21.8511 C.ar    1  UNL1        0.0339
      4 C          -6.5743  -20.4193   20.3545 C.ar    1  UNL1        0.1311
      5 N          -7.6917  -19.6683   19.6930 N.ar    1  UNL1       -0.2035
      6 C          -8.7201  -18.9647   20.5280 C.ar    1  UNL1        0.2196
      7 F          -9.8374  -18.2138   19.8664 F       1  UNL1       -0.1835
      8 N          -5.5459  -21.1229   19.5194 N.pl3   1  UNL1       -0.3144
      9 H          -5.8216  -21.6248   18.7187 H       1  UNL1        0.1485
     10 C          -4.0975  -21.0617   19.9045 C.3     1  UNL1        0.1169
     11 C          -3.4936  -19.7622   20.3480 C.ar    1  UNL1        0.0166
     12 C          -2.9232  -19.6328   21.7292 C.ar    1  UNL1        0.0014
     13 C          -2.3193  -18.3334   22.1727 C.ar    1  UNL1        0.0305
     14 C          -2.2858  -17.1632   21.2348 C.ar    1  UNL1        0.1383
     15 CL         -1.6819  -15.8637   21.6783 Cl      1  UNL1       -0.0613
     16 N          -2.8562  -17.2926   19.8535 N.ar    1  UNL1       -0.2327
     17 C          -3.4600  -18.5920   19.4101 C.ar    1  UNL1        0.0972
     18 C          -9.6595  -18.3084   22.8597 C.3     1  UNL1        0.0603
     19 C          -4.8631  -14.9153   23.3824 C.3     1  UNL1        0.0307
     20 C          -5.9499  -15.4764   24.2507 C.2     1  UNL1        0.0074
     21 C          -5.9652  -15.1772   25.7205 C.2     1  UNL1        0.2278
     22 N          -7.0520  -15.7383   26.5888 N.2     1  UNL1       -0.0314
     23 C          -8.1236  -16.5984   25.9874 C.2     1  UNL1        0.3716
     24 N          -9.3135  -17.2864   26.5881 N.2     1  UNL1       -0.0311
     25 C         -10.0337  -18.0107   25.4896 C.2     1  UNL1        0.2319
     26 C          -9.2889  -17.7704   24.2099 C.2     1  UNL1        0.0328
     27 C          -8.1084  -16.8975   24.5177 C.2     1  UNL1        0.0704
     28 C          -7.0215  -16.3365   23.6493 C.3     1  UNL1        0.0598
@<TRIPOS>BOND
     1    19    20    1
     2    20    21    2
     3    21    22    1
     4    22    23    2
     5    23    24    1
     6    24    25    2
     7    25    26    1
     8    26    18    1
     9    18     1    1
    10     1     2   ar
    11     2     3   ar
    12     3     4   ar
    13     4     8    1
    14     8    10    1
    15    10    11    1
    16    11    12   ar
    17    12    13   ar
    18    13    14   ar
    19    14    15    1
    20    14    16   ar
    21    16    17   ar
    22     4     5   ar
    23     5     6   ar
    24     6     7    1
    25    26    27    2
    26    27    28    1
    27    28    20    1
    28    27    23    1
    29     6     1   ar
    30    17    11   ar
    31     8     9    1
@<TRIPOS>MOLECULE
*****
 28 31 0 0 0
SMALL
GASTEIGER

@<TRIPOS>ATOM
      1 C         -11.3905   -4.3593   18.8386 C.ar    1  UNL1        0.0284
      2 C         -12.6793   -4.5390   19.5847 C.ar    1  UNL1        0.0027
      3 C         -13.3514   -5.8797   19.6087 C.ar    1  UNL1        0.0339
      4 C         -12.7348   -7.0409   18.8865 C.ar    1  UNL1        0.1311
      5 N         -11.4459   -6.8611   18.1404 N.ar    1  UNL1       -0.2035
      6 C         -10.7738   -5.5204   18.1164 C.ar    1  UNL1        0.2196
      7 F          -9.4849   -5.3407   17.3703 F       1  UNL1       -0.1835
      8 N         -13.4069   -8.3816   18.9105 N.pl3   1  UNL1       -0.3144
      9 H         -13.0874   -9.0815   19.5248 H       1  UNL1        0.1485
     10 C         -14.5657   -8.6560   17.9985 C.3     1  UNL1        0.1169
     11 C         -15.9455   -8.8130   18.5655 C.ar    1  UNL1        0.0166
     12 C         -16.4690   -7.8124   19.5527 C.ar    1  UNL1        0.0014
     13 C         -17.8488   -7.9693   20.1197 C.ar    1  UNL1        0.0305
     14 C         -18.7052   -9.1269   19.6994 C.ar    1  UNL1        0.1383
     15 CL        -20.0850   -9.2838   20.2664 Cl      1  UNL1       -0.0613
     16 N         -18.1817  -10.1276   18.7121 N.ar    1  UNL1       -0.2327
     17 C         -16.8019   -9.9706   18.1452 C.ar    1  UNL1        0.0972
     18 C         -10.7184   -3.0185   18.8146 C.3     1  UNL1        0.0603
     19 C         -15.8877   -0.3545   19.8009 C.3     1  UNL1        0.0307
     20 C         -14.7699   -0.3163   18.8014 C.2     1  UNL1        0.0074
     21 C         -14.8332    0.6323   17.6412 C.2     1  UNL1        0.2278
     22 N         -13.7153    0.6704   16.6418 N.2     1  UNL1       -0.0314
     23 C         -12.5341   -0.2400   16.8025 C.2     1  UNL1        0.3716
     24 N         -11.2913   -0.4258   15.9835 N.2     1  UNL1       -0.0311
     25 C         -10.4598   -1.4893   16.6376 C.2     1  UNL1        0.2319
     26 C         -11.1888   -1.9607   17.8608 C.2     1  UNL1        0.0328
     27 C         -12.4708   -1.1886   17.9628 C.2     1  UNL1        0.0704
     28 C         -13.5887   -1.2267   18.9622 C.3     1  UNL1        0.0598
@<TRIPOS>BOND
     1    19    20    1
     2    20    21    2
     3    21    22    1
     4    22    23    2
     5    23    24    1
     6    24    25    2
     7    25    26    1
     8    26    18    1
     9    18     1    1
    10     1     2   ar
    11     2     3   ar
    12     3     4   ar
    13     4     8    1
    14     8    10    1
    15    10    11    1
    16    11    12   ar
    17    12    13   ar
    18    13    14   ar
    19    14    15    1
    20    14    16   ar
    21    16    17   ar
    22     4     5   ar
    23     5     6   ar
    24     6     7    1
    25    26    27    2
    26    27    28    1
    27    28    20    1
    28    27    23    1
    29     6     1   ar
    30    17    11   ar
    31     8     9    1
@<TRIPOS>MOLECULE
*****
 28 31 0 0 0
SMALL
GASTEIGER

@<TRIPOS>ATOM
      1 C         -14.6816   -3.3970   19.9794 C.ar    1  UNL1        0.0284
      2 C         -15.8574   -2.5331   19.6313 C.ar    1  UNL1        0.0027
      3 C         -17.1764   -3.1623   19.2929 C.ar    1  UNL1        0.0339
      4 C         -17.3195   -4.6554   19.3025 C.ar    1  UNL1        0.1311
      5 N         -16.1437   -5.5193   19.6506 N.ar    1  UNL1       -0.2035
      6 C         -14.8247   -4.8901   19.9891 C.ar    1  UNL1        0.2196
      7 F         -13.6490   -5.7541   20.3371 F       1  UNL1       -0.1835
      8 N         -18.6385   -5.2846   18.9641 N.pl3   1  UNL1       -0.3144
      9 H         -19.2102   -4.8857   18.2689 H       1  UNL1        0.1485
     10 C         -19.0864   -6.5214   19.6850 C.3     1  UNL1        0.1169
     11 C         -18.4312   -7.8386   19.3926 C.ar    1  UNL1        0.0166
     12 C         -18.7576   -8.5741   18.1267 C.ar    1  UNL1        0.0014
     13 C         -18.1023   -9.8913   17.8344 C.ar    1  UNL1        0.0305
     14 C         -17.1207  -10.4732   18.8079 C.ar    1  UNL1        0.1383
     15 CL        -16.4655  -11.7905   18.5156 Cl      1  UNL1       -0.0613
     16 N         -16.7943   -9.7377   20.0739 N.ar    1  UNL1       -0.2327
     17 C         -17.4495   -8.4205   20.3662 C.ar    1  UNL1        0.0972
     18 C         -13.3627   -2.7678   20.3178 C.3     1  UNL1        0.0603
     19 C          -9.6870   -7.0114   18.5088 C.3     1  UNL1        0.0307
     20 C          -9.9901   -5.5742   18.2045 C.2     1  UNL1        0.0074
     21 C          -9.2118   -4.8515   17.1454 C.2     1  UNL1        0.2278
     22 N          -9.5149   -3.4143   16.8412 N.2     1  UNL1       -0.0314
     23 C         -10.5963   -2.6998   17.5961 C.2     1  UNL1        0.3716
     24 N         -11.1160   -1.2950   17.5163 N.2     1  UNL1       -0.0311
     25 C         -12.2156   -1.1495   18.5261 C.2     1  UNL1        0.2319
     26 C         -12.3754   -2.4643   19.2301 C.2     1  UNL1        0.0328
     27 C         -11.3746   -3.4225   18.6552 C.2     1  UNL1        0.0704
     28 C         -11.0715   -4.8597   18.9595 C.3     1  UNL1        0.0598
@<TRIPOS>BOND
     1    19    20    1
     2    20    21    2
     3    21    22    1
     4    22    23    2
     5    23    24    1
     6    24    25    2
     7    25    26    1
     8    26    18    1
     9    18     1    1
    10     1     2   ar
    11     2     3   ar
    12     3     4   ar
    13     4     8    1
    14     8    10    1
    15    10    11    1
    16    11    12   ar
    17    12    13   ar
    18    13    14   ar
    19    14    15    1
    20    14    16   ar
    21    16    17   ar
    22     4     5   ar
    23     5     6   ar
    24     6     7    1
    25    26    27    2
    26    27    28    1
    27    28    20    1
    28    27    23    1
    29     6     1   ar
    30    17    11   ar
    31     8     9    1
@<TRIPOS>MOLECULE
*****
 28 31 0 0 0
SMALL
GASTEIGER

@<TRIPOS>ATOM
      1 C           1.5870    0.8700   18.7493 C.ar    1  UNL1        0.0284
      2 C           1.1900    2.2839   18.4439 C.ar    1  UNL1        0.0027
      3 C           0.0953    2.9421   19.2304 C.ar    1  UNL1        0.0339
      4 C          -0.6023    2.1864   20.3223 C.ar    1  UNL1        0.1311
      5 N          -0.2053    0.7725   20.6276 N.ar    1  UNL1       -0.2035
      6 C           0.8894    0.1143   19.8412 C.ar    1  UNL1        0.2196
      7 F           1.2863   -1.2996   20.1466 F       1  UNL1       -0.1835
      8 N          -1.6970    2.8447   21.1087 N.pl3   1  UNL1       -0.3144
      9 H          -1.6098    2.9461   22.0841 H       1  UNL1        0.1485
     10 C          -2.9244    3.3484   20.4091 C.3     1  UNL1        0.1169
     11 C          -4.1783    3.6104   21.1896 C.ar    1  UNL1        0.0166
     12 C          -4.2024    3.3760   22.6709 C.ar    1  UNL1        0.0014
     13 C          -5.4563    3.6380   23.4514 C.ar    1  UNL1        0.0305
     14 C          -6.6861    4.1344   22.7506 C.ar    1  UNL1        0.1383
     15 CL         -7.9399    4.3965   23.5311 Cl      1  UNL1       -0.0613
     16 N          -6.6619    4.3689   21.2692 N.ar    1  UNL1       -0.2327
     17 C          -5.4081    4.1068   20.4887 C.ar    1  UNL1        0.0972
     18 C           2.6816    0.2118   17.9629 C.3     1  UNL1        0.0603
     19 C           3.9299   -5.3738   19.3894 C.3     1  UNL1        0.0307
     20 C           4.5632   -4.0169   19.4775 C.2     1  UNL1        0.0074
     21 C           5.9253   -3.8631   20.0865 C.2     1  UNL1        0.2278
     22 N           6.5586   -2.5062   20.1747 N.2     1  UNL1       -0.0314
     23 C           5.8298   -1.3031   19.6539 C.2     1  UNL1        0.3716
     24 N           6.1982    0.1501   19.6045 N.2     1  UNL1       -0.0311
     25 C           5.0638    0.8945   18.9650 C.2     1  UNL1        0.2319
     26 C           3.9942   -0.0987   18.6192 C.2     1  UNL1        0.0328
     27 C           4.4677   -1.4569   19.0449 C.2     1  UNL1        0.0704
     28 C           3.8344   -2.8138   18.9568 C.3     1  UNL1        0.0598
@<TRIPOS>BOND
     1    19    20    1
     2    20    21    2
     3    21    22    1
     4    22    23    2
     5    23    24    1
     6    24    25    2
     7    25    26    1
     8    26    18    1
     9    18     1    1
    10     1     2   ar
    11     2     3   ar
    12     3     4   ar
    13     4     8    1
    14     8    10    1
    15    10    11    1
    16    11    12   ar
    17    12    13   ar
    18    13    14   ar
    19    14    15    1
    20    14    16   ar
    21    16    17   ar
    22     4     5   ar
    23     5     6   ar
    24     6     7    1
    25    26    27    2
    26    27    28    1
    27    28    20    1
    28    27    23    1
    29     6     1   ar
    30    17    11   ar
    31     8     9    1
