@<TRIPOS>MOLECULE
*****
 30 33 0 0 0
SMALL
GASTEIGER

@<TRIPOS>ATOM
      1 C           7.2048   -3.0268   32.1697 C.ar    1  UNL1        0.1105
      2 C           8.1278   -1.9442   32.6449 C.ar    1  UNL1        0.0200
      3 C           7.6073   -0.8486   33.5273 C.ar    1  UNL1        0.0160
      4 C           6.1636   -0.8357   33.9345 C.ar    1  UNL1        0.0504
      5 C           5.2406   -1.9183   33.4593 C.ar    1  UNL1        0.0160
      6 C           5.7612   -3.0139   32.5769 C.ar    1  UNL1        0.0200
      7 N           5.6431    0.2600   34.8170 N.am    1  UNL1       -0.2839
      8 C           5.9608    0.2571   36.2829 C.2     1  UNL1        0.2260
      9 O           6.7991   -0.8414   36.8665 O.2     1  UNL1       -0.2748
     10 H           5.0929    0.9810   34.4340 H       1  UNL1        0.1549
     11 C           5.4403    1.3528   37.1653 C.3     1  UNL1        0.0812
     12 C           5.6680    2.6211   37.9330 C.3     1  UNL1        0.0143
     13 C           4.3110    1.9820   37.9261 C.3     1  UNL1        0.0330
     14 C           2.8756    1.9764   38.3613 C.ar    1  UNL1       -0.0029
     15 C           2.3236    0.7998   39.1102 C.ar    1  UNL1       -0.0011
     16 C           0.8881    0.7941   39.5454 C.ar    1  UNL1        0.0204
     17 C           0.0046    1.9650   39.2317 C.ar    1  UNL1        0.0989
     18 N           0.5566    3.1416   38.4828 N.ar    1  UNL1       -0.2426
     19 C           1.9921    3.1473   38.0476 C.ar    1  UNL1        0.0946
     20 S           7.7253   -4.1225   31.2873 S.O2    1  UNL1        0.0305
     21 O           8.7278   -3.1735   30.7003 O.2     1  UNL1       -0.1641
     22 O           6.7229   -5.0714   31.8742 O.2     1  UNL1       -0.1641
     23 N           8.7490   -6.5638   28.4487 N.ar    1  UNL1       -0.2500
     24 C           8.0699   -5.3114   28.9182 C.ar    1  UNL1        0.1153
     25 C           8.2458   -5.2181   30.4049 C.ar    1  UNL1        0.1497
     26 C           9.0337   -6.4128   30.8543 C.ar    1  UNL1        0.1404
     27 N           9.3446   -7.2445   29.6454 N.ar    1  UNL1       -0.1663
     28 C           9.5356   -6.2364   25.9943 C.3     1  UNL1        0.0263
     29 C           8.8200   -7.0501   27.0315 C.3     1  UNL1        0.1054
     30 C           8.1754   -8.3500   26.6515 C.3     1  UNL1        0.0263
@<TRIPOS>BOND
     1    28    29    1
     2    29    30    1
     3    29    23    1
     4    23    24   ar
     5    24    25   ar
     6    25    20    1
     7    20    21    2
     8    20    22    2
     9    20     1    1
    10     1     2   ar
    11     2     3   ar
    12     3     4   ar
    13     4     7    1
    14     7     8   am
    15     8     9    2
    16    11     8    1
    17    11    12    1
    18    12    13    1
    19    13    14    1
    20    14    15   ar
    21    15    16   ar
    22    16    17   ar
    23    17    18   ar
    24    18    19   ar
    25     4     5   ar
    26     5     6   ar
    27    25    26   ar
    28    26    27   ar
    29    27    23   ar
    30     6     1   ar
    31    13    11    1
    32    19    14   ar
    33     7    10    1
@<TRIPOS>MOLECULE
*****
 30 33 0 0 0
SMALL
GASTEIGER

@<TRIPOS>ATOM
      1 C           3.2607    0.0086   30.3983 C.ar    1  UNL1        0.1105
      2 C           2.0634   -0.0218   29.4953 C.ar    1  UNL1        0.0200
      3 C           2.1784   -0.6009   28.1164 C.ar    1  UNL1        0.0160
      4 C           3.4908   -1.1497   27.6406 C.ar    1  UNL1        0.0504
      5 C           4.6882   -1.1194   28.5436 C.ar    1  UNL1        0.0160
      6 C           4.5731   -0.5402   29.9224 C.ar    1  UNL1        0.0200
      7 N           3.6058   -1.7289   26.2616 N.am    1  UNL1       -0.2839
      8 C           3.6682   -0.8207   25.0695 C.2     1  UNL1        0.2260
      9 O           3.6157    0.6667   25.2562 O.2     1  UNL1       -0.2748
     10 H           3.6403   -2.7051   26.1391 H       1  UNL1        0.1549
     11 C           3.7832   -1.3999   23.6906 C.3     1  UNL1        0.0812
     12 C           4.3432   -2.4326   22.7579 C.3     1  UNL1        0.0143
     13 C           3.4225   -1.3703   22.2349 C.3     1  UNL1        0.0330
     14 C           2.6826   -0.7398   21.0925 C.ar    1  UNL1       -0.0029
     15 C           1.2948   -0.2094   21.2992 C.ar    1  UNL1       -0.0011
     16 C           0.5550    0.4210   20.1569 C.ar    1  UNL1        0.0204
     17 C           1.2029    0.5212   18.8077 C.ar    1  UNL1        0.0989
     18 N           2.5907   -0.0092   18.6010 N.ar    1  UNL1       -0.2426
     19 C           3.3305   -0.6397   19.7434 C.ar    1  UNL1        0.0946
     20 S           3.1457    0.5878   31.7772 S.O2    1  UNL1        0.0305
     21 O           4.5903    0.2729   32.0300 O.2     1  UNL1       -0.1641
     22 O           1.7011    0.9026   31.5245 O.2     1  UNL1       -0.1641
     23 N           3.4328    1.6379   35.5028 N.ar    1  UNL1       -0.2500
     24 C           3.9001    0.8274   34.3304 C.ar    1  UNL1        0.1153
     25 C           3.0307    1.1669   33.1561 C.ar    1  UNL1        0.1497
     26 C           2.0261    2.1873   33.6028 C.ar    1  UNL1        0.1404
     27 N           2.2745    2.4784   35.0531 N.ar    1  UNL1       -0.1663
     28 C           5.4842    1.8748   37.0794 C.3     1  UNL1        0.0263
     29 C           4.0204    1.6124   36.8827 C.3     1  UNL1        0.1054
     30 C           3.1445    1.3246   38.0657 C.3     1  UNL1        0.0263
@<TRIPOS>BOND
     1    28    29    1
     2    29    30    1
     3    29    23    1
     4    23    24   ar
     5    24    25   ar
     6    25    20    1
     7    20    21    2
     8    20    22    2
     9    20     1    1
    10     1     2   ar
    11     2     3   ar
    12     3     4   ar
    13     4     7    1
    14     7     8   am
    15     8     9    2
    16    11     8    1
    17    11    12    1
    18    12    13    1
    19    13    14    1
    20    14    15   ar
    21    15    16   ar
    22    16    17   ar
    23    17    18   ar
    24    18    19   ar
    25     4     5   ar
    26     5     6   ar
    27    25    26   ar
    28    26    27   ar
    29    27    23   ar
    30     6     1   ar
    31    13    11    1
    32    19    14   ar
    33     7    10    1
@<TRIPOS>MOLECULE
*****
 30 33 0 0 0
SMALL
GASTEIGER

@<TRIPOS>ATOM
      1 C           3.5038    0.0461   30.4864 C.ar    1  UNL1        0.1105
      2 C           4.4814    0.6889   29.5479 C.ar    1  UNL1        0.0200
      3 C           4.1842    0.7459   28.0787 C.ar    1  UNL1        0.0160
      4 C           2.9093    0.1600   27.5482 C.ar    1  UNL1        0.0504
      5 C           1.9317   -0.4829   28.4867 C.ar    1  UNL1        0.0160
      6 C           2.2289   -0.5398   29.9559 C.ar    1  UNL1        0.0200
      7 N           2.6121    0.2169   26.0790 N.am    1  UNL1       -0.2839
      8 C           3.3800   -0.6485   25.1243 C.2     1  UNL1        0.2260
      9 O           4.4451   -1.5710   25.6388 O.2     1  UNL1       -0.2748
     10 H           1.9131    0.8224   25.7413 H       1  UNL1        0.1549
     11 C           3.0828   -0.5915   23.6551 C.3     1  UNL1        0.0812
     12 C           2.4308    0.0870   22.4870 C.3     1  UNL1        0.0143
     13 C           3.2200   -1.1714   22.2786 C.3     1  UNL1        0.0330
     14 C           3.7549   -2.2327   21.3635 C.ar    1  UNL1       -0.0029
     15 C           3.3499   -2.2517   19.9193 C.ar    1  UNL1       -0.0011
     16 C           3.8848   -3.3130   19.0042 C.ar    1  UNL1        0.0204
     17 C           4.8248   -4.3554   19.5333 C.ar    1  UNL1        0.0989
     18 N           5.2298   -4.3365   20.9774 N.ar    1  UNL1       -0.2426
     19 C           4.6949   -3.2751   21.8925 C.ar    1  UNL1        0.0946
     20 S           3.8009   -0.0109   31.9556 S.O2    1  UNL1        0.0305
     21 O           3.2745   -1.4145   32.0077 O.2     1  UNL1       -0.1641
     22 O           4.3274    1.3927   31.9035 O.2     1  UNL1       -0.1641
     23 N           4.3194    0.5525   35.7608 N.ar    1  UNL1       -0.2500
     24 C           3.8908    1.0441   34.4100 C.ar    1  UNL1        0.1153
     25 C           4.0981   -0.0678   33.4248 C.ar    1  UNL1        0.1497
     26 C           4.6548   -1.2466   34.1666 C.ar    1  UNL1        0.1404
     27 N           4.7916   -0.8633   35.6103 N.ar    1  UNL1       -0.1663
     28 C           5.2759    2.4378   37.2709 C.3     1  UNL1        0.0263
     29 C           4.2822    1.3386   37.0377 C.3     1  UNL1        0.1054
     30 C           3.2515    1.0256   38.0815 C.3     1  UNL1        0.0263
@<TRIPOS>BOND
     1    28    29    1
     2    29    30    1
     3    29    23    1
     4    23    24   ar
     5    24    25   ar
     6    25    20    1
     7    20    21    2
     8    20    22    2
     9    20     1    1
    10     1     2   ar
    11     2     3   ar
    12     3     4   ar
    13     4     7    1
    14     7     8   am
    15     8     9    2
    16    11     8    1
    17    11    12    1
    18    12    13    1
    19    13    14    1
    20    14    15   ar
    21    15    16   ar
    22    16    17   ar
    23    17    18   ar
    24    18    19   ar
    25     4     5   ar
    26     5     6   ar
    27    25    26   ar
    28    26    27   ar
    29    27    23   ar
    30     6     1   ar
    31    13    11    1
    32    19    14   ar
    33     7    10    1
@<TRIPOS>MOLECULE
*****
 30 33 0 0 0
SMALL
GASTEIGER

@<TRIPOS>ATOM
      1 C           6.0093   -2.5551   32.2037 C.ar    1  UNL1        0.1105
      2 C           6.8155   -1.3081   32.4154 C.ar    1  UNL1        0.0200
      3 C           6.3687   -0.2877   33.4200 C.ar    1  UNL1        0.0160
      4 C           5.1157   -0.5145   34.2128 C.ar    1  UNL1        0.0504
      5 C           4.3095   -1.7615   34.0011 C.ar    1  UNL1        0.0160
      6 C           4.7563   -2.7819   32.9965 C.ar    1  UNL1        0.0200
      7 N           4.6688    0.5060   35.2174 N.am    1  UNL1       -0.2839
      8 C           5.2527    0.5038   36.5991 C.2     1  UNL1        0.2260
      9 O           6.2833   -0.5187   36.9763 O.2     1  UNL1       -0.2748
     10 H           3.9924    1.1771   34.9699 H       1  UNL1        0.1549
     11 C           4.8058    1.5243   37.6037 C.3     1  UNL1        0.0812
     12 C           4.7289    2.0026   39.0233 C.3     1  UNL1        0.0143
     13 C           4.1088    2.8133   37.9241 C.3     1  UNL1        0.0330
     14 C           3.3484    4.0255   37.4745 C.ar    1  UNL1       -0.0029
     15 C           1.9452    3.8838   36.9636 C.ar    1  UNL1       -0.0011
     16 C           1.1848    5.0961   36.5140 C.ar    1  UNL1        0.0204
     17 C           1.8276    6.4500   36.5752 C.ar    1  UNL1        0.0989
     18 N           3.2308    6.5917   37.0860 N.ar    1  UNL1       -0.2426
     19 C           3.9912    5.3794   37.5357 C.ar    1  UNL1        0.0946
     20 S           6.4562   -3.5755   31.1990 S.O2    1  UNL1        0.0305
     21 O           6.3720   -2.5438   30.1135 O.2     1  UNL1       -0.1641
     22 O           6.5403   -4.6073   32.2845 O.2     1  UNL1       -0.1641
     23 N           7.2136   -5.8027   28.1117 N.ar    1  UNL1       -0.2500
     24 C           6.5556   -4.6076   28.7353 C.ar    1  UNL1        0.1153
     25 C           6.9030   -4.5959   30.1945 C.ar    1  UNL1        0.1497
     26 C           7.7755   -5.7838   30.4728 C.ar    1  UNL1        0.1404
     27 N           7.9675   -6.5297   29.1856 N.ar    1  UNL1       -0.1663
     28 C           6.9713   -5.1514   25.6083 C.3     1  UNL1        0.0263
     29 C           7.1319   -6.2009   26.6679 C.3     1  UNL1        0.1054
     30 C           7.2108   -7.6487   26.2836 C.3     1  UNL1        0.0263
@<TRIPOS>BOND
     1    28    29    1
     2    29    30    1
     3    29    23    1
     4    23    24   ar
     5    24    25   ar
     6    25    20    1
     7    20    21    2
     8    20    22    2
     9    20     1    1
    10     1     2   ar
    11     2     3   ar
    12     3     4   ar
    13     4     7    1
    14     7     8   am
    15     8     9    2
    16    11     8    1
    17    11    12    1
    18    12    13    1
    19    13    14    1
    20    14    15   ar
    21    15    16   ar
    22    16    17   ar
    23    17    18   ar
    24    18    19   ar
    25     4     5   ar
    26     5     6   ar
    27    25    26   ar
    28    26    27   ar
    29    27    23   ar
    30     6     1   ar
    31    13    11    1
    32    19    14   ar
    33     7    10    1
@<TRIPOS>MOLECULE
*****
 30 33 0 0 0
SMALL
GASTEIGER

@<TRIPOS>ATOM
      1 C           3.9344   -1.6238   20.1213 C.ar    1  UNL1        0.1105
      2 C           2.6702   -1.3098   20.8648 C.ar    1  UNL1        0.0200
      3 C           1.6408   -0.4101   20.2476 C.ar    1  UNL1        0.0160
      4 C           1.8758    0.1755   18.8868 C.ar    1  UNL1        0.0504
      5 C           3.1401   -0.1385   18.1432 C.ar    1  UNL1        0.0160
      6 C           4.1694   -1.0382   18.7605 C.ar    1  UNL1        0.0200
      7 N           0.8464    1.0752   18.2695 N.am    1  UNL1       -0.2839
      8 C           0.8204    2.5342   18.6168 C.2     1  UNL1        0.2260
      9 O           1.8237    3.0935   19.5814 O.2     1  UNL1       -0.2748
     10 H           0.1879    0.7081   17.6364 H       1  UNL1        0.1549
     11 C          -0.2090    3.4339   17.9996 C.3     1  UNL1        0.0812
     12 C          -0.5774    4.4994   17.0102 C.3     1  UNL1        0.0143
     13 C          -1.6235    3.9267   17.9199 C.3     1  UNL1        0.0330
     14 C          -3.0441    3.8804   18.3991 C.ar    1  UNL1       -0.0029
     15 C          -4.1696    4.0938   17.4307 C.ar    1  UNL1       -0.0011
     16 C          -5.5902    4.0475   17.9099 C.ar    1  UNL1        0.0204
     17 C          -5.8854    3.7880   19.3575 C.ar    1  UNL1        0.0989
     18 N          -4.7599    3.5747   20.3259 N.ar    1  UNL1       -0.2426
     19 C          -3.3393    3.6209   19.8466 C.ar    1  UNL1        0.0946
     20 S           4.9639   -2.5235   20.7385 S.O2    1  UNL1        0.0305
     21 O           4.1334   -2.6194   21.9839 O.2     1  UNL1       -0.1641
     22 O           5.7944   -2.4276   19.4932 O.2     1  UNL1       -0.1641
     23 N           7.2170   -4.7694   22.9622 N.ar    1  UNL1       -0.2500
     24 C           6.0153   -3.8901   22.7810 C.ar    1  UNL1        0.1153
     25 C           5.9932   -3.4232   21.3557 C.ar    1  UNL1        0.1497
     26 C           7.1813   -4.0138   20.6560 C.ar    1  UNL1        0.1404
     27 N           7.9376   -4.8459   21.6488 N.ar    1  UNL1       -0.1663
     28 C           8.2932   -6.7949   24.1825 C.3     1  UNL1        0.0263
     29 C           7.6263   -5.4523   24.2334 C.3     1  UNL1        0.1054
     30 C           7.3686   -4.7927   25.5557 C.3     1  UNL1        0.0263
@<TRIPOS>BOND
     1    28    29    1
     2    29    30    1
     3    29    23    1
     4    23    24   ar
     5    24    25   ar
     6    25    20    1
     7    20    21    2
     8    20    22    2
     9    20     1    1
    10     1     2   ar
    11     2     3   ar
    12     3     4   ar
    13     4     7    1
    14     7     8   am
    15     8     9    2
    16    11     8    1
    17    11    12    1
    18    12    13    1
    19    13    14    1
    20    14    15   ar
    21    15    16   ar
    22    16    17   ar
    23    17    18   ar
    24    18    19   ar
    25     4     5   ar
    26     5     6   ar
    27    25    26   ar
    28    26    27   ar
    29    27    23   ar
    30     6     1   ar
    31    13    11    1
    32    19    14   ar
    33     7    10    1
@<TRIPOS>MOLECULE
*****
 30 33 0 0 0
SMALL
GASTEIGER

@<TRIPOS>ATOM
      1 C           2.8669   -1.1143   21.5234 C.ar    1  UNL1        0.1105
      2 C           2.5020   -0.0931   22.5597 C.ar    1  UNL1        0.0200
      3 C           1.3489    0.8366   22.3230 C.ar    1  UNL1        0.0160
      4 C           0.5607    0.7451   21.0501 C.ar    1  UNL1        0.0504
      5 C           0.9256   -0.2761   20.0138 C.ar    1  UNL1        0.0160
      6 C           2.0787   -1.2058   20.2504 C.ar    1  UNL1        0.0200
      7 N          -0.5924    1.6748   20.8134 N.am    1  UNL1       -0.2839
      8 C          -0.4557    2.8061   19.8380 C.2     1  UNL1        0.2260
      9 O           0.8340    3.0077   19.0992 O.2     1  UNL1       -0.2748
     10 H          -1.4389    1.5425   21.2983 H       1  UNL1        0.1549
     11 C          -1.6089    3.7359   19.6014 C.3     1  UNL1        0.0812
     12 C          -2.2385    4.8526   18.8226 C.3     1  UNL1        0.0143
     13 C          -2.9765    4.2294   19.9702 C.3     1  UNL1        0.0330
     14 C          -4.1921    4.1546   20.8458 C.ar    1  UNL1       -0.0029
     15 C          -4.1099    3.4902   22.1881 C.ar    1  UNL1       -0.0011
     16 C          -5.3255    3.4154   23.0636 C.ar    1  UNL1        0.0204
     17 C          -6.6235    4.0050   22.5968 C.ar    1  UNL1        0.0989
     18 N          -6.7057    4.6694   21.2545 N.ar    1  UNL1       -0.2426
     19 C          -5.4900    4.7442   20.3790 C.ar    1  UNL1        0.0946
     20 S           4.0200   -2.0440   21.7600 S.O2    1  UNL1        0.0305
     21 O           4.1099   -2.3078   20.2862 O.2     1  UNL1       -0.1641
     22 O           3.9302   -1.7803   23.2339 O.2     1  UNL1       -0.1641
     23 N           6.7753   -4.4323   23.0904 N.ar    1  UNL1       -0.2500
     24 C           5.5723   -3.5653   23.3161 C.ar    1  UNL1        0.1153
     25 C           5.1731   -2.9737   21.9967 C.ar    1  UNL1        0.1497
     26 C           6.1294   -3.4751   20.9556 C.ar    1  UNL1        0.1404
     27 N           7.1197   -4.3765   21.6315 N.ar    1  UNL1       -0.1663
     28 C           7.3303   -4.8759   25.5894 C.3     1  UNL1        0.0263
     29 C           7.5058   -5.2172   24.1393 C.3     1  UNL1        0.1054
     30 C           8.4117   -6.3433   23.7383 C.3     1  UNL1        0.0263
@<TRIPOS>BOND
     1    28    29    1
     2    29    30    1
     3    29    23    1
     4    23    24   ar
     5    24    25   ar
     6    25    20    1
     7    20    21    2
     8    20    22    2
     9    20     1    1
    10     1     2   ar
    11     2     3   ar
    12     3     4   ar
    13     4     7    1
    14     7     8   am
    15     8     9    2
    16    11     8    1
    17    11    12    1
    18    12    13    1
    19    13    14    1
    20    14    15   ar
    21    15    16   ar
    22    16    17   ar
    23    17    18   ar
    24    18    19   ar
    25     4     5   ar
    26     5     6   ar
    27    25    26   ar
    28    26    27   ar
    29    27    23   ar
    30     6     1   ar
    31    13    11    1
    32    19    14   ar
    33     7    10    1
@<TRIPOS>MOLECULE
*****
 30 33 0 0 0
SMALL
GASTEIGER

@<TRIPOS>ATOM
      1 C          -3.4496    3.9406   21.8856 C.ar    1  UNL1        0.1105
      2 C          -2.2062    3.7327   22.6983 C.ar    1  UNL1        0.0200
      3 C          -0.9291    3.3264   22.0246 C.ar    1  UNL1        0.0160
      4 C          -0.8955    3.1279   20.5381 C.ar    1  UNL1        0.0504
      5 C          -2.1390    3.3358   19.7254 C.ar    1  UNL1        0.0160
      6 C          -3.4161    3.7421   20.3992 C.ar    1  UNL1        0.0200
      7 N           0.3816    2.7216   19.8644 N.am    1  UNL1       -0.2839
      8 C           0.7941    1.2795   19.8462 C.2     1  UNL1        0.2260
      9 O          -0.0706    0.2438   20.5016 O.2     1  UNL1       -0.2748
     10 H           0.9491    3.4013   19.4342 H       1  UNL1        0.1549
     11 C           2.0712    0.8732   19.1724 C.3     1  UNL1        0.0812
     12 C           3.1928    1.1761   18.2237 C.3     1  UNL1        0.0143
     13 C           3.1616   -0.1335   18.9543 C.3     1  UNL1        0.0330
     14 C           3.7731   -1.4708   19.2502 C.ar    1  UNL1       -0.0029
     15 C           3.6770   -2.0506   20.6303 C.ar    1  UNL1       -0.0011
     16 C           4.2885   -3.3880   20.9262 C.ar    1  UNL1        0.0204
     17 C           4.9962   -4.1456   19.8420 C.ar    1  UNL1        0.0989
     18 N           5.0923   -3.5658   18.4620 N.ar    1  UNL1       -0.2426
     19 C           4.4807   -2.2284   18.1661 C.ar    1  UNL1        0.0946
     20 S          -4.7268    4.3469   22.5593 S.O2    1  UNL1        0.0305
     21 O          -4.2593    5.7719   22.5861 O.2     1  UNL1       -0.1641
     22 O          -5.1943    2.9219   22.5326 O.2     1  UNL1       -0.1641
     23 N          -7.5848    5.8370   24.7220 N.ar    1  UNL1       -0.2500
     24 C          -6.1326    5.7339   24.3607 C.ar    1  UNL1        0.1153
     25 C          -6.0039    4.7532   23.2330 C.ar    1  UNL1        0.1497
     26 C          -7.3765    4.2501   22.8973 C.ar    1  UNL1        0.1404
     27 N          -8.3536    4.9199   23.8175 N.ar    1  UNL1       -0.1663
     28 C          -9.2473    7.6897   25.4659 C.3     1  UNL1        0.0263
     29 C          -8.1661    6.7046   25.7986 C.3     1  UNL1        0.1054
     30 C          -7.6663    6.5873   27.2080 C.3     1  UNL1        0.0263
@<TRIPOS>BOND
     1    28    29    1
     2    29    30    1
     3    29    23    1
     4    23    24   ar
     5    24    25   ar
     6    25    20    1
     7    20    21    2
     8    20    22    2
     9    20     1    1
    10     1     2   ar
    11     2     3   ar
    12     3     4   ar
    13     4     7    1
    14     7     8   am
    15     8     9    2
    16    11     8    1
    17    11    12    1
    18    12    13    1
    19    13    14    1
    20    14    15   ar
    21    15    16   ar
    22    16    17   ar
    23    17    18   ar
    24    18    19   ar
    25     4     5   ar
    26     5     6   ar
    27    25    26   ar
    28    26    27   ar
    29    27    23   ar
    30     6     1   ar
    31    13    11    1
    32    19    14   ar
    33     7    10    1
@<TRIPOS>MOLECULE
*****
 30 33 0 0 0
SMALL
GASTEIGER

@<TRIPOS>ATOM
      1 C           1.4821    0.8028   29.2337 C.ar    1  UNL1        0.1105
      2 C           0.0527    0.3711   29.0907 C.ar    1  UNL1        0.0200
      3 C          -0.7299    0.7605   27.8717 C.ar    1  UNL1        0.0160
      4 C          -0.0831    1.5814   26.7958 C.ar    1  UNL1        0.0504
      5 C           1.3463    2.0130   26.9387 C.ar    1  UNL1        0.0160
      6 C           2.1289    1.6237   28.1577 C.ar    1  UNL1        0.0200
      7 N          -0.8658    1.9707   25.5768 N.am    1  UNL1       -0.2839
      8 C          -1.7959    3.1465   25.6265 C.2     1  UNL1        0.2260
      9 O          -1.9433    3.9330   26.8952 O.2     1  UNL1       -0.2748
     10 H          -0.7691    1.4545   24.7440 H       1  UNL1        0.1549
     11 C          -2.5786    3.5358   24.4075 C.3     1  UNL1        0.0812
     12 C          -2.6541    3.7439   22.9240 C.3     1  UNL1        0.0143
     13 C          -3.8587    4.0019   23.7797 C.3     1  UNL1        0.0330
     14 C          -5.2932    4.4200   23.9114 C.ar    1  UNL1       -0.0029
     15 C          -5.7245    5.2649   25.0733 C.ar    1  UNL1       -0.0011
     16 C          -7.1590    5.6830   25.2050 C.ar    1  UNL1        0.0204
     17 C          -8.1623    5.2561   24.1747 C.ar    1  UNL1        0.0989
     18 N          -7.7309    4.4112   23.0128 N.ar    1  UNL1       -0.2426
     19 C          -6.2963    3.9931   22.8812 C.ar    1  UNL1        0.0946
     20 S           2.2648    0.4135   30.4527 S.O2    1  UNL1        0.0305
     21 O           1.2703    1.1274   31.3193 O.2     1  UNL1       -0.1641
     22 O           3.2593   -0.3005   29.5860 O.2     1  UNL1       -0.1641
     23 N           4.0369    0.0579   33.8876 N.ar    1  UNL1       -0.2500
     24 C           3.1596    0.8193   32.9385 C.ar    1  UNL1        0.1153
     25 C           3.0475    0.0241   31.6716 C.ar    1  UNL1        0.1497
     26 C           3.8555   -1.2287   31.8376 C.ar    1  UNL1        0.1404
     27 N           4.4670   -1.2079   33.2071 N.ar    1  UNL1       -0.1663
     28 C           3.7564    1.6802   35.8974 C.3     1  UNL1        0.0263
     29 C           4.4174    0.4869   35.2736 C.3     1  UNL1        0.1054
     30 C           5.4588   -0.2774   36.0359 C.3     1  UNL1        0.0263
@<TRIPOS>BOND
     1    28    29    1
     2    29    30    1
     3    29    23    1
     4    23    24   ar
     5    24    25   ar
     6    25    20    1
     7    20    21    2
     8    20    22    2
     9    20     1    1
    10     1     2   ar
    11     2     3   ar
    12     3     4   ar
    13     4     7    1
    14     7     8   am
    15     8     9    2
    16    11     8    1
    17    11    12    1
    18    12    13    1
    19    13    14    1
    20    14    15   ar
    21    15    16   ar
    22    16    17   ar
    23    17    18   ar
    24    18    19   ar
    25     4     5   ar
    26     5     6   ar
    27    25    26   ar
    28    26    27   ar
    29    27    23   ar
    30     6     1   ar
    31    13    11    1
    32    19    14   ar
    33     7    10    1
@<TRIPOS>MOLECULE
*****
 30 33 0 0 0
SMALL
GASTEIGER

@<TRIPOS>ATOM
      1 C           2.3914   -0.5117   20.6093 C.ar    1  UNL1        0.1105
      2 C           2.9058   -1.5079   19.6128 C.ar    1  UNL1        0.0200
      3 C           3.8556   -2.5835   20.0497 C.ar    1  UNL1        0.0160
      4 C           4.2909   -2.6630   21.4829 C.ar    1  UNL1        0.0504
      5 C           3.7765   -1.6668   22.4793 C.ar    1  UNL1        0.0160
      6 C           2.8267   -0.5912   22.0425 C.ar    1  UNL1        0.0200
      7 N           5.2407   -3.7388   21.9197 N.am    1  UNL1       -0.2839
      8 C           6.7210   -3.5133   21.8316 C.2     1  UNL1        0.2260
      9 O           7.2516   -2.2121   21.3068 O.2     1  UNL1       -0.2748
     10 H           4.8925   -4.5928   22.2642 H       1  UNL1        0.1549
     11 C           7.6709   -4.5890   22.2684 C.3     1  UNL1        0.0812
     12 C           8.8702   -5.4496   22.0021 C.3     1  UNL1        0.0143
     13 C           8.1166   -5.5917   23.2912 C.3     1  UNL1        0.0330
     14 C           7.9387   -6.2525   24.6259 C.ar    1  UNL1       -0.0029
     15 C           7.2806   -5.5082   25.7497 C.ar    1  UNL1       -0.0011
     16 C           7.1028   -6.1691   27.0844 C.ar    1  UNL1        0.0204
     17 C           7.5831   -7.5744   27.2955 C.ar    1  UNL1        0.0989
     18 N           8.2412   -8.3187   26.1717 N.ar    1  UNL1       -0.2426
     19 C           8.4190   -7.6578   24.8369 C.ar    1  UNL1        0.0946
     20 S           1.4416    0.5640   20.1725 S.O2    1  UNL1        0.0305
     21 O           1.7043    0.2136   18.7379 O.2     1  UNL1       -0.1641
     22 O           1.1788    0.9145   21.6071 O.2     1  UNL1       -0.1641
     23 N          -0.6412    3.3117   18.3897 N.ar    1  UNL1       -0.2500
     24 C           0.4653    2.2988   18.3886 C.ar    1  UNL1        0.1153
     25 C           0.4918    1.6397   19.7357 C.ar    1  UNL1        0.1497
     26 C          -0.5983    2.2452   20.5695 C.ar    1  UNL1        0.1404
     27 N          -1.2985    3.2785   19.7377 N.ar    1  UNL1       -0.1663
     28 C          -2.4089    4.1360   16.6735 C.3     1  UNL1        0.0263
     29 C          -1.0232    4.2014   17.2441 C.3     1  UNL1        0.1054
     30 C          -0.0197    5.1565   16.6692 C.3     1  UNL1        0.0263
@<TRIPOS>BOND
     1    28    29    1
     2    29    30    1
     3    29    23    1
     4    23    24   ar
     5    24    25   ar
     6    25    20    1
     7    20    21    2
     8    20    22    2
     9    20     1    1
    10     1     2   ar
    11     2     3   ar
    12     3     4   ar
    13     4     7    1
    14     7     8   am
    15     8     9    2
    16    11     8    1
    17    11    12    1
    18    12    13    1
    19    13    14    1
    20    14    15   ar
    21    15    16   ar
    22    16    17   ar
    23    17    18   ar
    24    18    19   ar
    25     4     5   ar
    26     5     6   ar
    27    25    26   ar
    28    26    27   ar
    29    27    23   ar
    30     6     1   ar
    31    13    11    1
    32    19    14   ar
    33     7    10    1
