@<TRIPOS>MOLECULE
*****
 24 26 0 0 0
SMALL
GASTEIGER

@<TRIPOS>ATOM
      1 C          -9.9856  -15.9042   21.7920 C.2     1  UNL1        0.1045
      2 C         -11.0577  -16.7466   22.4173 C.2     1  UNL1        0.1087
      3 C         -11.8685  -16.6488   21.1592 C.2     1  UNL1        0.2501
      4 O         -13.1999  -17.1753   20.7117 O.2     1  UNL1       -0.2817
      5 C         -10.7964  -15.8063   20.5338 C.2     1  UNL1        0.2498
      6 O         -10.6117  -15.1415   19.2020 O.2     1  UNL1       -0.2817
      7 N          -8.6543  -15.3777   22.2394 N.pl3   1  UNL1       -0.3270
      8 H          -8.3884  -14.4568   22.0148 H       1  UNL1        0.1472
      9 C          -7.1195  -17.4684   22.3923 C.3     1  UNL1        0.0261
     10 C          -7.7280  -16.2543   23.0291 C.3     1  UNL1        0.0920
     11 C          -7.4103  -15.9167   24.4557 C.ar    1  UNL1       -0.0046
     12 C          -8.4974  -15.9279   25.4891 C.ar    1  UNL1       -0.0027
     13 C          -8.1796  -15.5903   26.9156 C.ar    1  UNL1       -0.0003
     14 C          -6.7747  -15.2415   27.3088 C.ar    1  UNL1       -0.0000
     15 C          -5.6876  -15.2303   26.2754 C.ar    1  UNL1       -0.0003
     16 C          -6.0053  -15.5679   24.8489 C.ar    1  UNL1       -0.0027
     17 N         -11.2423  -17.4114   23.7493 N.pl3   1  UNL1       -0.2947
     18 H         -11.8157  -16.9944   24.4323 H       1  UNL1        0.1537
     19 C         -10.5533  -18.7116   24.0405 C.ar    1  UNL1        0.1271
     20 C          -9.6670  -19.4703   23.0975 C.ar    1  UNL1        0.0562
     21 C          -9.1955  -20.7089   23.8000 C.ar    1  UNL1        0.1228
     22 N          -9.7903  -20.7158   25.1770 N.ar    1  UNL1       -0.1700
     23 N         -10.6294  -19.4814   25.3256 N.ar    1  UNL1       -0.2628
     24 H         -11.1405  -19.2219   26.1261 H       1  UNL1        0.1903
@<TRIPOS>BOND
     1    10     9    1
     2    10     7    1
     3     7     1    1
     4     1     2    2
     5     2    17    1
     6    17    19    1
     7    19    20   ar
     8    20    21   ar
     9    21    22   ar
    10    22    23   ar
    11     2     3    1
    12     3     4    2
    13     3     5    1
    14     5     6    2
    15    10    11    1
    16    11    12   ar
    17    12    13   ar
    18    13    14   ar
    19    14    15   ar
    20    15    16   ar
    21     5     1    1
    22    16    11   ar
    23    23    19   ar
    24     7     8    1
    25    17    18    1
    26    23    24    1
@<TRIPOS>MOLECULE
*****
 24 26 0 0 0
SMALL
GASTEIGER

@<TRIPOS>ATOM
      1 C          -7.4189  -16.4301   23.6109 C.2     1  UNL1        0.1045
      2 C          -8.7544  -16.1231   24.2210 C.2     1  UNL1        0.1087
      3 C          -8.0726  -15.6025   25.4515 C.2     1  UNL1        0.2501
      4 O          -8.5349  -15.0173   26.7530 O.2     1  UNL1       -0.2817
      5 C          -6.7371  -15.9095   24.8414 C.2     1  UNL1        0.2498
      6 O          -5.3107  -15.7585   25.2802 O.2     1  UNL1       -0.2817
      7 N          -6.9566  -17.0152   22.3094 N.pl3   1  UNL1       -0.3270
      8 H          -6.5393  -16.4372   21.6305 H       1  UNL1        0.1472
      9 C          -5.9380  -19.3913   22.0509 C.3     1  UNL1        0.0261
     10 C          -7.1302  -18.4810   22.0424 C.3     1  UNL1        0.0920
     11 C          -8.4961  -19.0366   21.7669 C.ar    1  UNL1       -0.0046
     12 C          -9.3257  -19.5801   22.8921 C.ar    1  UNL1       -0.0027
     13 C         -10.6915  -20.1356   22.6165 C.ar    1  UNL1       -0.0003
     14 C         -11.2276  -20.1476   21.2157 C.ar    1  UNL1       -0.0000
     15 C         -10.3981  -19.6040   20.0904 C.ar    1  UNL1       -0.0003
     16 C          -9.0323  -19.0485   20.3660 C.ar    1  UNL1       -0.0027
     17 N         -10.1808  -16.2741   23.7822 N.pl3   1  UNL1       -0.2947
     18 H         -10.8782  -16.4933   24.4417 H       1  UNL1        0.1537
     19 C         -10.5448  -16.0911   22.3385 C.ar    1  UNL1        0.1271
     20 C         -11.8264  -16.5245   21.6906 C.ar    1  UNL1        0.0562
     21 C         -11.7647  -16.1438   20.2410 C.ar    1  UNL1        0.1228
     22 N         -10.4450  -15.4752   19.9930 N.ar    1  UNL1       -0.1700
     23 N          -9.6911  -15.4427   21.2894 N.ar    1  UNL1       -0.2628
     24 H          -8.7936  -15.0625   21.4274 H       1  UNL1        0.1903
@<TRIPOS>BOND
     1    10     9    1
     2    10     7    1
     3     7     1    1
     4     1     2    2
     5     2    17    1
     6    17    19    1
     7    19    20   ar
     8    20    21   ar
     9    21    22   ar
    10    22    23   ar
    11     2     3    1
    12     3     4    2
    13     3     5    1
    14     5     6    2
    15    10    11    1
    16    11    12   ar
    17    12    13   ar
    18    13    14   ar
    19    14    15   ar
    20    15    16   ar
    21     5     1    1
    22    16    11   ar
    23    23    19   ar
    24     7     8    1
    25    17    18    1
    26    23    24    1
@<TRIPOS>MOLECULE
*****
 24 26 0 0 0
SMALL
GASTEIGER

@<TRIPOS>ATOM
      1 C          -9.1119  -16.9169   21.8936 C.2     1  UNL1        0.1045
      2 C          -9.8289  -16.2688   23.0407 C.2     1  UNL1        0.1087
      3 C         -11.1167  -16.3373   22.2746 C.2     1  UNL1        0.2501
      4 O         -12.5343  -15.9275   22.5440 O.2     1  UNL1       -0.2817
      5 C         -10.3997  -16.9855   21.1274 C.2     1  UNL1        0.2498
      6 O         -10.8033  -17.4922   19.7746 O.2     1  UNL1       -0.2817
      7 N          -7.6944  -17.3268   21.6242 N.pl3   1  UNL1       -0.3270
      8 H          -7.0684  -16.6902   21.2093 H       1  UNL1        0.1472
      9 C          -8.1536  -19.6418   22.7103 C.3     1  UNL1        0.0261
     10 C          -7.2307  -18.7064   21.9869 C.3     1  UNL1        0.0920
     11 C          -5.8441  -19.1506   21.6261 C.ar    1  UNL1       -0.0046
     12 C          -5.6316  -20.0788   20.4671 C.ar    1  UNL1       -0.0027
     13 C          -4.2451  -20.5230   20.1064 C.ar    1  UNL1       -0.0003
     14 C          -3.0710  -20.0390   20.9048 C.ar    1  UNL1       -0.0000
     15 C          -3.2835  -19.1109   22.0638 C.ar    1  UNL1       -0.0003
     16 C          -4.6700  -18.6667   22.4245 C.ar    1  UNL1       -0.0027
     17 N          -9.4252  -15.7620   24.3936 N.pl3   1  UNL1       -0.2947
     18 H         -10.1100  -15.5931   25.0805 H       1  UNL1        0.1537
     19 C          -7.9782  -15.5126   24.7000 C.ar    1  UNL1        0.1271
     20 C          -7.2605  -15.9145   25.9545 C.ar    1  UNL1        0.0562
     21 C          -5.8335  -15.4678   25.8354 C.ar    1  UNL1        0.1228
     22 N          -5.6692  -14.7899   24.5074 N.ar    1  UNL1       -0.1700
     23 N          -6.9947  -14.8177   23.8057 N.ar    1  UNL1       -0.2628
     24 H          -7.1856  -14.4451   22.9146 H       1  UNL1        0.1903
@<TRIPOS>BOND
     1    10     9    1
     2    10     7    1
     3     7     1    1
     4     1     2    2
     5     2    17    1
     6    17    19    1
     7    19    20   ar
     8    20    21   ar
     9    21    22   ar
    10    22    23   ar
    11     2     3    1
    12     3     4    2
    13     3     5    1
    14     5     6    2
    15    10    11    1
    16    11    12   ar
    17    12    13   ar
    18    13    14   ar
    19    14    15   ar
    20    15    16   ar
    21     5     1    1
    22    16    11   ar
    23    23    19   ar
    24     7     8    1
    25    17    18    1
    26    23    24    1
@<TRIPOS>MOLECULE
*****
 24 26 0 0 0
SMALL
GASTEIGER

@<TRIPOS>ATOM
      1 C          -9.0747  -18.3204   23.4194 C.2     1  UNL1        0.1045
      2 C         -10.3046  -17.4630   23.4656 C.2     1  UNL1        0.1087
      3 C         -11.0337  -18.5484   24.2007 C.2     1  UNL1        0.2501
      4 O         -12.4190  -18.7096   24.7531 O.2     1  UNL1       -0.2817
      5 C          -9.8038  -19.4058   24.1545 C.2     1  UNL1        0.2498
      6 O          -9.4496  -20.7795   24.6416 O.2     1  UNL1       -0.2817
      7 N          -7.6895  -18.1591   22.8670 N.pl3   1  UNL1       -0.3270
      8 H          -7.0423  -17.5746   23.3239 H       1  UNL1        0.1472
      9 C          -8.3264  -19.2430   20.5934 C.3     1  UNL1        0.0261
     10 C          -7.2904  -18.8884   21.6185 C.3     1  UNL1        0.0920
     11 C          -5.8552  -19.2631   21.3951 C.ar    1  UNL1       -0.0046
     12 C          -4.7908  -18.7343   22.3102 C.ar    1  UNL1       -0.0027
     13 C          -3.3557  -19.1090   22.0868 C.ar    1  UNL1       -0.0003
     14 C          -2.9849  -20.0125   20.9483 C.ar    1  UNL1       -0.0000
     15 C          -4.0492  -20.5413   20.0332 C.ar    1  UNL1       -0.0003
     16 C          -5.4844  -20.1666   20.2566 C.ar    1  UNL1       -0.0027
     17 N         -10.6588  -16.0891   22.9785 N.pl3   1  UNL1       -0.2947
     18 H         -10.7419  -15.3460   23.6189 H       1  UNL1        0.1537
     19 C         -10.8861  -15.8476   21.5156 C.ar    1  UNL1        0.1271
     20 C         -12.0666  -16.3164   20.7176 C.ar    1  UNL1        0.0562
     21 C         -11.8830  -15.8533   19.3027 C.ar    1  UNL1        0.1228
     22 N         -10.5891  -15.0984   19.2263 N.ar    1  UNL1       -0.1700
     23 N          -9.9730  -15.0948   20.5939 N.ar    1  UNL1       -0.2628
     24 H          -9.1192  -14.6725   20.8429 H       1  UNL1        0.1903
@<TRIPOS>BOND
     1    10     9    1
     2    10     7    1
     3     7     1    1
     4     1     2    2
     5     2    17    1
     6    17    19    1
     7    19    20   ar
     8    20    21   ar
     9    21    22   ar
    10    22    23   ar
    11     2     3    1
    12     3     4    2
    13     3     5    1
    14     5     6    2
    15    10    11    1
    16    11    12   ar
    17    12    13   ar
    18    13    14   ar
    19    14    15   ar
    20    15    16   ar
    21     5     1    1
    22    16    11   ar
    23    23    19   ar
    24     7     8    1
    25    17    18    1
    26    23    24    1
@<TRIPOS>MOLECULE
*****
 24 26 0 0 0
SMALL
GASTEIGER

@<TRIPOS>ATOM
      1 C          -7.5906  -16.5449   23.5427 C.2     1  UNL1        0.1045
      2 C          -8.7744  -16.6733   24.4549 C.2     1  UNL1        0.1087
      3 C          -8.1147  -15.7549   25.4404 C.2     1  UNL1        0.2501
      4 O          -8.4853  -15.1963   26.7823 O.2     1  UNL1       -0.2817
      5 C          -6.9309  -15.6264   24.5282 C.2     1  UNL1        0.2498
      6 O          -5.6273  -14.8862   24.5800 O.2     1  UNL1       -0.2817
      7 N          -7.2200  -17.1035   22.2008 N.pl3   1  UNL1       -0.3270
      8 H          -7.1634  -16.5085   21.4185 H       1  UNL1        0.1472
      9 C          -8.0259  -19.5720   22.2852 C.3     1  UNL1        0.0261
     10 C          -6.9358  -18.5687   22.0509 C.3     1  UNL1        0.0920
     11 C          -5.5613  -19.0305   21.6667 C.ar    1  UNL1       -0.0046
     12 C          -5.3699  -19.8823   20.4469 C.ar    1  UNL1       -0.0027
     13 C          -3.9955  -20.3441   20.0627 C.ar    1  UNL1       -0.0003
     14 C          -2.8124  -19.9542   20.8984 C.ar    1  UNL1       -0.0000
     15 C          -3.0038  -19.1024   22.1182 C.ar    1  UNL1       -0.0003
     16 C          -4.3782  -18.6406   22.5023 C.ar    1  UNL1       -0.0027
     17 N         -10.0780  -17.4137   24.4030 N.pl3   1  UNL1       -0.2947
     18 H         -10.3303  -18.0183   25.1378 H       1  UNL1        0.1537
     19 C         -10.9972  -17.2327   23.2315 C.ar    1  UNL1        0.1271
     20 C         -11.8857  -18.2851   22.6371 C.ar    1  UNL1        0.0562
     21 C         -12.6268  -17.6703   21.4869 C.ar    1  UNL1        0.1228
     22 N         -12.1964  -16.2381   21.3705 N.ar    1  UNL1       -0.1700
     23 N         -11.1892  -15.9677   22.4487 N.ar    1  UNL1       -0.2628
     24 H         -10.7342  -15.1104   22.6136 H       1  UNL1        0.1903
@<TRIPOS>BOND
     1    10     9    1
     2    10     7    1
     3     7     1    1
     4     1     2    2
     5     2    17    1
     6    17    19    1
     7    19    20   ar
     8    20    21   ar
     9    21    22   ar
    10    22    23   ar
    11     2     3    1
    12     3     4    2
    13     3     5    1
    14     5     6    2
    15    10    11    1
    16    11    12   ar
    17    12    13   ar
    18    13    14   ar
    19    14    15   ar
    20    15    16   ar
    21     5     1    1
    22    16    11   ar
    23    23    19   ar
    24     7     8    1
    25    17    18    1
    26    23    24    1
@<TRIPOS>MOLECULE
*****
 24 26 0 0 0
SMALL
GASTEIGER

@<TRIPOS>ATOM
      1 C          -7.3758  -17.8444   21.6631 C.2     1  UNL1        0.1045
      2 C          -7.8787  -18.9438   20.7752 C.2     1  UNL1        0.1087
      3 C          -6.6596  -19.7579   21.0927 C.2     1  UNL1        0.2501
      4 O          -6.1532  -21.1111   20.6894 O.2     1  UNL1       -0.2817
      5 C          -6.1566  -18.6585   21.9806 C.2     1  UNL1        0.2498
      6 O          -4.9389  -18.4568   22.8328 O.2     1  UNL1       -0.2817
      7 N          -7.8822  -16.4913   22.0664 N.pl3   1  UNL1       -0.3270
      8 H          -7.7402  -15.7165   21.4758 H       1  UNL1        0.1472
      9 C         -10.0943  -16.4851   23.4288 C.3     1  UNL1        0.0261
     10 C          -8.6048  -16.3187   23.3694 C.3     1  UNL1        0.0920
     11 C          -7.8379  -15.9797   24.6132 C.ar    1  UNL1       -0.0046
     12 C          -6.3873  -15.6087   24.5222 C.ar    1  UNL1       -0.0027
     13 C          -5.6205  -15.2698   25.7660 C.ar    1  UNL1       -0.0003
     14 C          -6.3041  -15.3018   27.1007 C.ar    1  UNL1       -0.0000
     15 C          -7.7546  -15.6728   27.1918 C.ar    1  UNL1       -0.0003
     16 C          -8.5215  -16.0118   25.9480 C.ar    1  UNL1       -0.0027
     17 N          -9.0966  -19.1455   19.9229 N.pl3   1  UNL1       -0.2947
     18 H          -9.0554  -19.7382   19.1380 H       1  UNL1        0.1537
     19 C         -10.3771  -18.4440   20.2667 C.ar    1  UNL1        0.1271
     20 C         -11.4664  -18.9791   21.1483 C.ar    1  UNL1        0.0562
     21 C         -12.5557  -17.9500   21.2156 C.ar    1  UNL1        0.1228
     22 N         -12.1396  -16.7789   20.3757 N.ar    1  UNL1       -0.1700
     23 N         -10.7932  -17.0842   19.7892 N.ar    1  UNL1       -0.2628
     24 H         -10.2737  -16.4955   19.1952 H       1  UNL1        0.1903
@<TRIPOS>BOND
     1    10     9    1
     2    10     7    1
     3     7     1    1
     4     1     2    2
     5     2    17    1
     6    17    19    1
     7    19    20   ar
     8    20    21   ar
     9    21    22   ar
    10    22    23   ar
    11     2     3    1
    12     3     4    2
    13     3     5    1
    14     5     6    2
    15    10    11    1
    16    11    12   ar
    17    12    13   ar
    18    13    14   ar
    19    14    15   ar
    20    15    16   ar
    21     5     1    1
    22    16    11   ar
    23    23    19   ar
    24     7     8    1
    25    17    18    1
    26    23    24    1
@<TRIPOS>MOLECULE
*****
 24 26 0 0 0
SMALL
GASTEIGER

@<TRIPOS>ATOM
      1 C          -9.9146  -17.5813   21.7964 C.2     1  UNL1        0.1045
      2 C          -9.0378  -18.7244   21.3788 C.2     1  UNL1        0.1087
      3 C          -9.8734  -18.9157   20.1479 C.2     1  UNL1        0.2501
      4 O          -9.8443  -19.8594   18.9822 O.2     1  UNL1       -0.2817
      5 C         -10.7503  -17.7726   20.5655 C.2     1  UNL1        0.2498
      6 O         -11.9612  -17.0996   19.9905 O.2     1  UNL1       -0.2817
      7 N          -9.9436  -16.6377   22.9620 N.pl3   1  UNL1       -0.3270
      8 H         -10.2751  -15.7183   22.8429 H       1  UNL1        0.1472
      9 C         -10.1720  -18.2171   25.0122 C.3     1  UNL1        0.0261
     10 C          -9.4678  -17.0948   24.3091 C.3     1  UNL1        0.0920
     11 C          -8.2875  -16.4295   24.9530 C.ar    1  UNL1       -0.0046
     12 C          -7.1055  -16.0298   24.1207 C.ar    1  UNL1       -0.0027
     13 C          -5.9253  -15.3646   24.7646 C.ar    1  UNL1       -0.0003
     14 C          -5.9273  -15.0991   26.2410 C.ar    1  UNL1       -0.0000
     15 C          -7.1093  -15.4989   27.0733 C.ar    1  UNL1       -0.0003
     16 C          -8.2895  -16.1641   26.4294 C.ar    1  UNL1       -0.0027
     17 N          -7.8268  -19.3974   21.9539 N.pl3   1  UNL1       -0.2947
     18 H          -7.9155  -19.9810   22.7418 H       1  UNL1        0.1537
     19 C          -6.4806  -19.1814   21.3284 C.ar    1  UNL1        0.1271
     20 C          -5.1557  -19.5005   21.9552 C.ar    1  UNL1        0.0562
     21 C          -4.0793  -19.1246   20.9805 C.ar    1  UNL1        0.1228
     22 N          -4.7389  -18.5731   19.7514 N.ar    1  UNL1       -0.1700
     23 N          -6.2230  -18.6082   19.9664 N.ar    1  UNL1       -0.2628
     24 H          -6.9078  -18.3078   19.3260 H       1  UNL1        0.1903
@<TRIPOS>BOND
     1    10     9    1
     2    10     7    1
     3     7     1    1
     4     1     2    2
     5     2    17    1
     6    17    19    1
     7    19    20   ar
     8    20    21   ar
     9    21    22   ar
    10    22    23   ar
    11     2     3    1
    12     3     4    2
    13     3     5    1
    14     5     6    2
    15    10    11    1
    16    11    12   ar
    17    12    13   ar
    18    13    14   ar
    19    14    15   ar
    20    15    16   ar
    21     5     1    1
    22    16    11   ar
    23    23    19   ar
    24     7     8    1
    25    17    18    1
    26    23    24    1
@<TRIPOS>MOLECULE
*****
 24 26 0 0 0
SMALL
GASTEIGER

@<TRIPOS>ATOM
      1 C          -6.8485  -16.3326   23.3940 C.2     1  UNL1        0.1045
      2 C          -5.4666  -15.8537   23.7271 C.2     1  UNL1        0.1087
      3 C          -5.9608  -15.3477   25.0499 C.2     1  UNL1        0.2501
      4 O          -5.3331  -14.6512   26.2207 O.2     1  UNL1       -0.2817
      5 C          -7.3427  -15.8266   24.7167 C.2     1  UNL1        0.2498
      6 O          -8.6693  -15.8075   25.4165 O.2     1  UNL1       -0.2817
      7 N          -7.4762  -17.0291   22.2231 N.pl3   1  UNL1       -0.3270
      8 H          -7.2275  -16.7715   21.3060 H       1  UNL1        0.1472
      9 C          -8.0419  -19.5513   22.4847 C.3     1  UNL1        0.0261
     10 C          -8.4827  -18.1179   22.4495 C.3     1  UNL1        0.0920
     11 C          -9.9301  -17.7734   22.6409 C.ar    1  UNL1       -0.0046
     12 C         -10.8418  -18.7314   23.3485 C.ar    1  UNL1       -0.0027
     13 C         -12.2891  -18.3869   23.5398 C.ar    1  UNL1       -0.0003
     14 C         -12.8246  -17.0843   23.0234 C.ar    1  UNL1       -0.0000
     15 C         -11.9128  -16.1263   22.3157 C.ar    1  UNL1       -0.0003
     16 C         -10.4656  -16.4709   22.1245 C.ar    1  UNL1       -0.0027
     17 N          -4.1400  -15.8728   23.0272 N.pl3   1  UNL1       -0.2947
     18 H          -3.6908  -15.0267   22.8003 H       1  UNL1        0.1537
     19 C          -3.4976  -17.1813   22.6732 C.ar    1  UNL1        0.1271
     20 C          -4.2065  -18.4906   22.4904 C.ar    1  UNL1        0.0562
     21 C          -3.1806  -19.5287   22.1440 C.ar    1  UNL1        0.1228
     22 N          -1.8377  -18.8610   22.1128 N.ar    1  UNL1       -0.1700
     23 N          -2.0337  -17.4103   22.4398 N.ar    1  UNL1       -0.2628
     24 H          -1.3257  -16.7281   22.4922 H       1  UNL1        0.1903
@<TRIPOS>BOND
     1    10     9    1
     2    10     7    1
     3     7     1    1
     4     1     2    2
     5     2    17    1
     6    17    19    1
     7    19    20   ar
     8    20    21   ar
     9    21    22   ar
    10    22    23   ar
    11     2     3    1
    12     3     4    2
    13     3     5    1
    14     5     6    2
    15    10    11    1
    16    11    12   ar
    17    12    13   ar
    18    13    14   ar
    19    14    15   ar
    20    15    16   ar
    21     5     1    1
    22    16    11   ar
    23    23    19   ar
    24     7     8    1
    25    17    18    1
    26    23    24    1
@<TRIPOS>MOLECULE
*****
 24 26 0 0 0
SMALL
GASTEIGER

@<TRIPOS>ATOM
      1 C          -7.0360  -18.5748   22.2199 C.2     1  UNL1        0.1045
      2 C          -5.7723  -19.3728   22.0929 C.2     1  UNL1        0.1087
      3 C          -6.4006  -20.1951   21.0071 C.2     1  UNL1        0.2501
      4 O          -5.9513  -21.3409   20.1495 O.2     1  UNL1       -0.2817
      5 C          -7.6644  -19.3971   21.1340 C.2     1  UNL1        0.2498
      6 O          -9.0022  -19.4142   20.4560 O.2     1  UNL1       -0.2817
      7 N          -7.4853  -17.4291   23.0775 N.pl3   1  UNL1       -0.3270
      8 H          -7.0169  -17.2322   23.9207 H       1  UNL1        0.1472
      9 C          -8.4101  -15.2888   21.9312 C.3     1  UNL1        0.0261
     10 C          -8.6483  -16.5835   22.6503 C.3     1  UNL1        0.0920
     11 C         -10.0494  -17.0326   22.9422 C.ar    1  UNL1       -0.0046
     12 C         -11.2086  -16.3571   22.2714 C.ar    1  UNL1       -0.0027
     13 C         -12.6097  -16.8062   22.5633 C.ar    1  UNL1       -0.0003
     14 C         -12.8516  -17.9308   23.5260 C.ar    1  UNL1       -0.0000
     15 C         -11.6924  -18.6062   24.1969 C.ar    1  UNL1       -0.0003
     16 C         -10.2913  -18.1571   23.9049 C.ar    1  UNL1       -0.0027
     17 N          -4.4344  -19.3557   22.7711 N.pl3   1  UNL1       -0.2947
     18 H          -4.3668  -19.5593   23.7319 H       1  UNL1        0.1537
     19 C          -3.1994  -19.0283   21.9852 C.ar    1  UNL1        0.1271
     20 C          -2.6187  -17.6597   21.7849 C.ar    1  UNL1        0.0562
     21 C          -1.3887  -17.7976   20.9375 C.ar    1  UNL1        0.1228
     22 N          -1.2092  -19.2513   20.6140 N.ar    1  UNL1       -0.1700
     23 N          -2.3282  -20.0118   21.2615 N.ar    1  UNL1       -0.2628
     24 H          -2.4666  -20.9856   21.2190 H       1  UNL1        0.1903
@<TRIPOS>BOND
     1    10     9    1
     2    10     7    1
     3     7     1    1
     4     1     2    2
     5     2    17    1
     6    17    19    1
     7    19    20   ar
     8    20    21   ar
     9    21    22   ar
    10    22    23   ar
    11     2     3    1
    12     3     4    2
    13     3     5    1
    14     5     6    2
    15    10    11    1
    16    11    12   ar
    17    12    13   ar
    18    13    14   ar
    19    14    15   ar
    20    15    16   ar
    21     5     1    1
    22    16    11   ar
    23    23    19   ar
    24     7     8    1
    25    17    18    1
    26    23    24    1
