@<TRIPOS>MOLECULE
*****
 26 28 0 0 0
SMALL
GASTEIGER

@<TRIPOS>ATOM
      1 N          -5.0260  -19.8301   21.2751 N.pl3   1  UNL1       -0.2152
      2 H          -4.8156  -20.7699   21.4797 H       1  UNL1        0.1737
      3 C          -3.9173  -18.8472   21.0407 C.ar    1  UNL1        0.0635
      4 C          -3.2621  -18.7627   19.6941 C.ar    1  UNL1        0.0270
      5 C          -2.1535  -17.7799   19.4598 C.ar    1  UNL1        0.0589
      6 CL         -1.4983  -17.6954   18.1130 Cl      1  UNL1       -0.0822
      7 C          -1.7000  -16.8816   20.5721 C.ar    1  UNL1        0.0112
      8 C          -2.3552  -16.9661   21.9188 C.ar    1  UNL1       -0.0002
      9 C          -3.4638  -17.9489   22.1531 C.ar    1  UNL1        0.0168
     10 C          -4.1191  -18.0334   23.4998 C.3     1  UNL1        0.1568
     11 N          -4.8502  -16.8467   24.0539 N.ar    1  UNL1       -0.2256
     12 C          -4.8152  -16.3754   25.4775 C.ar    1  UNL1        0.1196
     13 C          -5.6881  -15.1603   25.5852 C.ar    1  UNL1        0.1441
     14 N          -6.2627  -14.8806   24.2281 N.ar    1  UNL1       -0.1271
     15 N          -5.7448  -15.9229   23.2818 N.ar    1  UNL1       -0.0634
     16 O          -6.1087  -18.4757   20.0531 O.2     1  UNL1       -0.1499
     17 S          -6.4551  -19.3811   21.1978 S.O2    1  UNL1        0.0736
     18 O          -6.8015  -20.2865   22.3424 O.2     1  UNL1       -0.1499
     19 C          -7.8842  -18.9321   21.1204 C.ar    1  UNL1        0.1261
     20 C          -8.7530  -19.3873   19.9856 C.ar    1  UNL1        0.0211
     21 C         -10.1822  -18.9383   19.9083 C.ar    1  UNL1        0.0136
     22 C         -10.7425  -18.0340   20.9657 C.ar    1  UNL1        0.0683
     23 CL        -12.1716  -17.5850   20.8884 Cl      1  UNL1       -0.0814
     24 C          -9.8737  -17.5787   22.1006 C.ar    1  UNL1        0.0695
     25 CL        -10.4340  -16.6745   23.1581 Cl      1  UNL1       -0.0813
     26 C          -8.4445  -18.0277   22.1780 C.ar    1  UNL1        0.0324
@<TRIPOS>BOND
     1    16    17    2
     2    17    18    2
     3    17     1    1
     4     1     3    1
     5     3     4   ar
     6     4     5   ar
     7     5     6    1
     8     5     7   ar
     9     7     8   ar
    10     8     9   ar
    11     9    10    1
    12    10    11    1
    13    11    12   ar
    14    12    13   ar
    15    13    14   ar
    16    14    15   ar
    17    17    19    1
    18    19    20   ar
    19    20    21   ar
    20    21    22   ar
    21    22    23    1
    22    22    24   ar
    23    24    25    1
    24    24    26   ar
    25     9     3   ar
    26    15    11   ar
    27    26    19   ar
    28     1     2    1
@<TRIPOS>MOLECULE
*****
 26 28 0 0 0
SMALL
GASTEIGER

@<TRIPOS>ATOM
      1 N          -6.7842  -19.9398   21.9191 N.pl3   1  UNL1       -0.2152
      2 H          -6.9318  -20.3491   22.8022 H       1  UNL1        0.1737
      3 C          -7.9309  -19.7800   20.9653 C.ar    1  UNL1        0.0635
      4 C          -7.8833  -20.4383   19.6183 C.ar    1  UNL1        0.0270
      5 C          -9.0299  -20.2786   18.6646 C.ar    1  UNL1        0.0589
      6 CL         -8.9824  -20.9368   17.3175 Cl      1  UNL1       -0.0822
      7 C         -10.2242  -19.4606   19.0578 C.ar    1  UNL1        0.0112
      8 C         -10.2718  -18.8023   20.4048 C.ar    1  UNL1       -0.0002
      9 C          -9.1251  -18.9621   21.3585 C.ar    1  UNL1        0.0168
     10 C          -9.1727  -18.3038   22.7056 C.3     1  UNL1        0.1568
     11 N          -8.4956  -16.9824   22.9189 N.ar    1  UNL1       -0.2256
     12 C          -8.1666  -16.3643   24.2455 C.ar    1  UNL1        0.1196
     13 C          -7.4962  -15.0470   23.9896 C.ar    1  UNL1        0.1441
     14 N          -7.4109  -14.8510   22.5049 N.ar    1  UNL1       -0.1271
     15 N          -8.0286  -16.0472   21.8432 N.ar    1  UNL1       -0.0634
     16 O          -5.6285  -18.1987   22.2837 O.2     1  UNL1       -0.1499
     17 S          -5.4126  -19.4758   21.5272 S.O2    1  UNL1        0.0736
     18 O          -5.1967  -20.7530   20.7708 O.2     1  UNL1       -0.1499
     19 C          -4.0410  -19.0119   21.1354 C.ar    1  UNL1        0.1261
     20 C          -2.9536  -18.9320   22.1655 C.ar    1  UNL1        0.0211
     21 C          -1.5820  -18.4681   21.7737 C.ar    1  UNL1        0.0136
     22 C          -1.2978  -18.0841   20.3518 C.ar    1  UNL1        0.0683
     23 CL          0.0738  -17.6201   19.9600 Cl      1  UNL1       -0.0814
     24 C          -2.3853  -18.1639   19.3217 C.ar    1  UNL1        0.0695
     25 CL         -2.1011  -17.7799   17.8998 Cl      1  UNL1       -0.0813
     26 C          -3.7569  -18.6279   19.7135 C.ar    1  UNL1        0.0324
@<TRIPOS>BOND
     1    16    17    2
     2    17    18    2
     3    17     1    1
     4     1     3    1
     5     3     4   ar
     6     4     5   ar
     7     5     6    1
     8     5     7   ar
     9     7     8   ar
    10     8     9   ar
    11     9    10    1
    12    10    11    1
    13    11    12   ar
    14    12    13   ar
    15    13    14   ar
    16    14    15   ar
    17    17    19    1
    18    19    20   ar
    19    20    21   ar
    20    21    22   ar
    21    22    23    1
    22    22    24   ar
    23    24    25    1
    24    24    26   ar
    25     9     3   ar
    26    15    11   ar
    27    26    19   ar
    28     1     2    1
@<TRIPOS>MOLECULE
*****
 26 28 0 0 0
SMALL
GASTEIGER

@<TRIPOS>ATOM
      1 N          -9.4064  -19.5706   21.5483 N.pl3   1  UNL1       -0.2152
      2 H          -9.8666  -20.4408   21.5372 H       1  UNL1        0.1737
      3 C         -10.2024  -18.3023   21.6388 C.ar    1  UNL1        0.0635
      4 C         -10.7666  -17.6806   20.3959 C.ar    1  UNL1        0.0270
      5 C         -11.5625  -16.4124   20.4865 C.ar    1  UNL1        0.0589
      6 CL        -12.1267  -15.7906   19.2435 Cl      1  UNL1       -0.0822
      7 C         -11.7942  -15.7660   21.8201 C.ar    1  UNL1        0.0112
      8 C         -11.2300  -16.3878   23.0631 C.ar    1  UNL1       -0.0002
      9 C         -10.4341  -17.6559   22.9724 C.ar    1  UNL1        0.0168
     10 C          -9.8698  -18.2778   24.2155 C.3     1  UNL1        0.1568
     11 N          -9.1711  -17.4230   25.2309 N.ar    1  UNL1       -0.2256
     12 C          -8.3916  -16.1737   24.9454 C.ar    1  UNL1        0.1196
     13 C          -7.8679  -15.6461   26.2482 C.ar    1  UNL1        0.1441
     14 N          -8.3238  -16.5693   27.3390 N.ar    1  UNL1       -0.1271
     15 N          -9.1292  -17.6675   26.7103 N.ar    1  UNL1       -0.0634
     16 O          -7.8165  -20.2723   22.7646 O.2     1  UNL1       -0.1499
     17 S          -7.9093  -19.5128   21.4745 S.O2    1  UNL1        0.0736
     18 O          -8.0022  -18.7532   20.1843 O.2     1  UNL1       -0.1499
     19 C          -6.4123  -19.4550   21.4007 C.ar    1  UNL1        0.1261
     20 C          -5.6827  -20.2331   20.3461 C.ar    1  UNL1        0.0211
     21 C          -4.1857  -20.1753   20.2724 C.ar    1  UNL1        0.0136
     22 C          -3.4181  -19.3394   21.2532 C.ar    1  UNL1        0.0683
     23 CL         -1.9211  -19.2816   21.1794 Cl      1  UNL1       -0.0814
     24 C          -4.1477  -18.5612   22.3079 C.ar    1  UNL1        0.0695
     25 CL         -3.3801  -17.7252   23.2887 Cl      1  UNL1       -0.0813
     26 C          -5.6447  -18.6190   22.3816 C.ar    1  UNL1        0.0324
@<TRIPOS>BOND
     1    16    17    2
     2    17    18    2
     3    17     1    1
     4     1     3    1
     5     3     4   ar
     6     4     5   ar
     7     5     6    1
     8     5     7   ar
     9     7     8   ar
    10     8     9   ar
    11     9    10    1
    12    10    11    1
    13    11    12   ar
    14    12    13   ar
    15    13    14   ar
    16    14    15   ar
    17    17    19    1
    18    19    20   ar
    19    20    21   ar
    20    21    22   ar
    21    22    23    1
    22    22    24   ar
    23    24    25    1
    24    24    26   ar
    25     9     3   ar
    26    15    11   ar
    27    26    19   ar
    28     1     2    1
@<TRIPOS>MOLECULE
*****
 26 28 0 0 0
SMALL
GASTEIGER

@<TRIPOS>ATOM
      1 N          -8.5572  -17.9417   21.4633 N.pl3   1  UNL1       -0.2152
      2 H          -9.0347  -17.4031   20.7916 H       1  UNL1        0.1737
      3 C          -9.2906  -18.4703   22.6602 C.ar    1  UNL1        0.0635
      4 C          -9.0317  -19.8670   23.1420 C.ar    1  UNL1        0.0270
      5 C          -9.7651  -20.3955   24.3389 C.ar    1  UNL1        0.0589
      6 CL         -9.5062  -21.7923   24.8207 Cl      1  UNL1       -0.0822
      7 C         -10.7575  -19.5274   25.0541 C.ar    1  UNL1        0.0112
      8 C         -11.0164  -18.1307   24.5724 C.ar    1  UNL1       -0.0002
      9 C         -10.2829  -17.6021   23.3755 C.ar    1  UNL1        0.0168
     10 C         -10.5418  -16.2053   22.8937 C.3     1  UNL1        0.1568
     11 N         -10.9071  -15.9623   21.4593 N.ar    1  UNL1       -0.2256
     12 C         -12.1889  -16.3688   20.7948 C.ar    1  UNL1        0.1196
     13 C         -12.1286  -15.9279   19.3623 C.ar    1  UNL1        0.1441
     14 N         -10.8095  -15.2490   19.1414 N.ar    1  UNL1       -0.1271
     15 N         -10.0545  -15.2703   20.4374 N.ar    1  UNL1       -0.0634
     16 O          -7.4024  -19.0352   20.0594 O.2     1  UNL1       -0.1499
     17 S          -7.0961  -18.2336   21.2897 S.O2    1  UNL1        0.0736
     18 O          -6.7898  -17.4320   22.5200 O.2     1  UNL1       -0.1499
     19 C          -5.6351  -18.5256   21.1162 C.ar    1  UNL1        0.1261
     20 C          -5.1469  -19.1916   19.8640 C.ar    1  UNL1        0.0211
     21 C          -3.6859  -19.4836   19.6904 C.ar    1  UNL1        0.0136
     22 C          -2.7130  -19.1095   20.7690 C.ar    1  UNL1        0.0683
     23 CL         -1.2520  -19.4014   20.5955 Cl      1  UNL1       -0.0814
     24 C          -3.2011  -18.4434   22.0213 C.ar    1  UNL1        0.0695
     25 CL         -2.2283  -18.0693   23.1000 Cl      1  UNL1       -0.0813
     26 C          -4.6622  -18.1515   22.1949 C.ar    1  UNL1        0.0324
@<TRIPOS>BOND
     1    16    17    2
     2    17    18    2
     3    17     1    1
     4     1     3    1
     5     3     4   ar
     6     4     5   ar
     7     5     6    1
     8     5     7   ar
     9     7     8   ar
    10     8     9   ar
    11     9    10    1
    12    10    11    1
    13    11    12   ar
    14    12    13   ar
    15    13    14   ar
    16    14    15   ar
    17    17    19    1
    18    19    20   ar
    19    20    21   ar
    20    21    22   ar
    21    22    23    1
    22    22    24   ar
    23    24    25    1
    24    24    26   ar
    25     9     3   ar
    26    15    11   ar
    27    26    19   ar
    28     1     2    1
@<TRIPOS>MOLECULE
*****
 26 28 0 0 0
SMALL
GASTEIGER

@<TRIPOS>ATOM
      1 N          -6.6707  -18.1353   21.7214 N.pl3   1  UNL1       -0.2152
      2 H          -6.3896  -18.4288   20.8247 H       1  UNL1        0.1737
      3 C          -5.6428  -17.7132   22.7290 C.ar    1  UNL1        0.0635
      4 C          -6.0149  -16.7604   23.8261 C.ar    1  UNL1        0.0270
      5 C          -4.9870  -16.3384   24.8337 C.ar    1  UNL1        0.0589
      6 CL         -5.3592  -15.3856   25.9309 Cl      1  UNL1       -0.0822
      7 C          -3.5869  -16.8691   24.7441 C.ar    1  UNL1        0.0112
      8 C          -3.2147  -17.8218   23.6470 C.ar    1  UNL1       -0.0002
      9 C          -4.2426  -18.2439   22.6394 C.ar    1  UNL1        0.0168
     10 C          -3.8705  -19.1967   21.5422 C.3     1  UNL1        0.1568
     11 N          -2.8293  -18.8098   20.5341 N.ar    1  UNL1       -0.2256
     12 C          -1.3817  -18.5409   20.8205 C.ar    1  UNL1        0.1196
     13 C          -0.7106  -18.1888   19.5260 C.ar    1  UNL1        0.1441
     14 N          -1.7435  -18.2402   18.4395 N.ar    1  UNL1       -0.1271
     15 N          -3.0529  -18.6240   19.0626 N.ar    1  UNL1       -0.0634
     16 O          -7.9816  -19.4376   22.7633 O.2     1  UNL1       -0.1499
     17 S          -8.1270  -18.1101   22.0801 S.O2    1  UNL1        0.0736
     18 O          -8.2724  -16.7827   21.3968 O.2     1  UNL1       -0.1499
     19 C          -9.5833  -18.0850   22.4387 C.ar    1  UNL1        0.1261
     20 C         -10.0732  -18.8394   23.6391 C.ar    1  UNL1        0.0211
     21 C         -11.5295  -18.8142   23.9977 C.ar    1  UNL1        0.0136
     22 C         -12.4958  -18.0347   23.1560 C.ar    1  UNL1        0.0683
     23 CL        -13.9521  -18.0096   23.5147 Cl      1  UNL1       -0.0814
     24 C         -12.0059  -17.2803   21.9556 C.ar    1  UNL1        0.0695
     25 CL        -12.9723  -16.5008   21.1140 Cl      1  UNL1       -0.0813
     26 C         -10.5497  -17.3054   21.5970 C.ar    1  UNL1        0.0324
@<TRIPOS>BOND
     1    16    17    2
     2    17    18    2
     3    17     1    1
     4     1     3    1
     5     3     4   ar
     6     4     5   ar
     7     5     6    1
     8     5     7   ar
     9     7     8   ar
    10     8     9   ar
    11     9    10    1
    12    10    11    1
    13    11    12   ar
    14    12    13   ar
    15    13    14   ar
    16    14    15   ar
    17    17    19    1
    18    19    20   ar
    19    20    21   ar
    20    21    22   ar
    21    22    23    1
    22    22    24   ar
    23    24    25    1
    24    24    26   ar
    25     9     3   ar
    26    15    11   ar
    27    26    19   ar
    28     1     2    1
@<TRIPOS>MOLECULE
*****
 26 28 0 0 0
SMALL
GASTEIGER

@<TRIPOS>ATOM
      1 N          -8.7902  -17.5009   21.1068 N.pl3   1  UNL1       -0.2152
      2 H          -9.4883  -17.0378   20.5896 H       1  UNL1        0.1737
      3 C          -8.1094  -18.7087   20.5341 C.ar    1  UNL1        0.0635
      4 C          -6.6716  -18.9845   20.8605 C.ar    1  UNL1        0.0270
      5 C          -5.9910  -20.1923   20.2879 C.ar    1  UNL1        0.0589
      6 CL         -4.5531  -20.4681   20.6143 Cl      1  UNL1       -0.0822
      7 C          -6.7481  -21.1242   19.3888 C.ar    1  UNL1        0.0112
      8 C          -8.1859  -20.8483   19.0624 C.ar    1  UNL1       -0.0002
      9 C          -8.8666  -19.6406   19.6351 C.ar    1  UNL1        0.0168
     10 C         -10.3045  -19.3647   19.3087 C.3     1  UNL1        0.1568
     11 N         -11.0448  -18.2830   20.0379 N.ar    1  UNL1       -0.2256
     12 C         -11.9047  -18.4680   21.2530 C.ar    1  UNL1        0.1196
     13 C         -12.4466  -17.1257   21.6461 C.ar    1  UNL1        0.1441
     14 N         -11.9217  -16.1111   20.6740 N.ar    1  UNL1       -0.1271
     15 N         -11.0554  -16.8263   19.6801 N.ar    1  UNL1       -0.0634
     16 O          -7.7878  -15.7830   21.8444 O.2     1  UNL1       -0.1499
     17 S          -8.4073  -16.9987   22.4674 S.O2    1  UNL1        0.0736
     18 O          -9.0269  -18.2145   23.0904 O.2     1  UNL1       -0.1499
     19 C          -8.0244  -16.4966   23.8280 C.ar    1  UNL1        0.1261
     20 C          -9.0249  -16.5208   24.9453 C.ar    1  UNL1        0.0211
     21 C          -8.6420  -16.0187   26.3059 C.ar    1  UNL1        0.0136
     22 C          -7.2587  -15.4923   26.5492 C.ar    1  UNL1        0.0683
     23 CL         -6.8758  -14.9902   27.9098 Cl      1  UNL1       -0.0814
     24 C          -6.2581  -15.4681   25.4319 C.ar    1  UNL1        0.0695
     25 CL         -4.8748  -14.9417   25.6752 Cl      1  UNL1       -0.0813
     26 C          -6.6410  -15.9702   24.0713 C.ar    1  UNL1        0.0324
@<TRIPOS>BOND
     1    16    17    2
     2    17    18    2
     3    17     1    1
     4     1     3    1
     5     3     4   ar
     6     4     5   ar
     7     5     6    1
     8     5     7   ar
     9     7     8   ar
    10     8     9   ar
    11     9    10    1
    12    10    11    1
    13    11    12   ar
    14    12    13   ar
    15    13    14   ar
    16    14    15   ar
    17    17    19    1
    18    19    20   ar
    19    20    21   ar
    20    21    22   ar
    21    22    23    1
    22    22    24   ar
    23    24    25    1
    24    24    26   ar
    25     9     3   ar
    26    15    11   ar
    27    26    19   ar
    28     1     2    1
@<TRIPOS>MOLECULE
*****
 26 28 0 0 0
SMALL
GASTEIGER

@<TRIPOS>ATOM
      1 N          -7.5202  -18.7104   22.7808 N.pl3   1  UNL1       -0.2152
      2 H          -7.7274  -18.9392   23.7156 H       1  UNL1        0.1737
      3 C          -8.6324  -18.4746   21.8021 C.ar    1  UNL1        0.0635
      4 C          -8.8807  -19.4586   20.6977 C.ar    1  UNL1        0.0270
      5 C          -9.9928  -19.2228   19.7191 C.ar    1  UNL1        0.0589
      6 CL        -10.2412  -20.2069   18.6146 Cl      1  UNL1       -0.0822
      7 C         -10.8565  -18.0029   19.8450 C.ar    1  UNL1        0.0112
      8 C         -10.6081  -17.0188   20.9495 C.ar    1  UNL1       -0.0002
      9 C          -9.4961  -17.2547   21.9280 C.ar    1  UNL1        0.0168
     10 C          -9.2476  -16.2706   23.0326 C.3     1  UNL1        0.1568
     11 N          -9.1429  -16.7462   24.4513 N.ar    1  UNL1       -0.2256
     12 C          -8.4420  -16.0345   25.5704 C.ar    1  UNL1        0.1196
     13 C          -8.5866  -16.8655   26.8108 C.ar    1  UNL1        0.1441
     14 N          -9.3768  -18.0908   26.4583 N.ar    1  UNL1       -0.1271
     15 N          -9.7206  -18.0171   25.0001 N.ar    1  UNL1       -0.0634
     16 O          -6.0949  -17.1416   22.6958 O.2     1  UNL1       -0.1499
     17 S          -6.0925  -18.5975   22.3350 S.O2    1  UNL1        0.0736
     18 O          -6.0900  -20.0535   21.9741 O.2     1  UNL1       -0.1499
     19 C          -4.6647  -18.4847   21.8892 C.ar    1  UNL1        0.1261
     20 C          -3.5926  -18.1513   22.8838 C.ar    1  UNL1        0.0211
     21 C          -2.1648  -18.0385   22.4381 C.ar    1  UNL1        0.0136
     22 C          -1.8091  -18.2590   20.9977 C.ar    1  UNL1        0.0683
     23 CL         -0.3814  -18.1461   20.5519 Cl      1  UNL1       -0.0814
     24 C          -2.8813  -18.5924   20.0029 C.ar    1  UNL1        0.0695
     25 CL         -2.5256  -18.8129   18.5625 Cl      1  UNL1       -0.0813
     26 C          -4.3091  -18.7052   20.4487 C.ar    1  UNL1        0.0324
@<TRIPOS>BOND
     1    16    17    2
     2    17    18    2
     3    17     1    1
     4     1     3    1
     5     3     4   ar
     6     4     5   ar
     7     5     6    1
     8     5     7   ar
     9     7     8   ar
    10     8     9   ar
    11     9    10    1
    12    10    11    1
    13    11    12   ar
    14    12    13   ar
    15    13    14   ar
    16    14    15   ar
    17    17    19    1
    18    19    20   ar
    19    20    21   ar
    20    21    22   ar
    21    22    23    1
    22    22    24   ar
    23    24    25    1
    24    24    26   ar
    25     9     3   ar
    26    15    11   ar
    27    26    19   ar
    28     1     2    1
@<TRIPOS>MOLECULE
*****
 26 28 0 0 0
SMALL
GASTEIGER

@<TRIPOS>ATOM
      1 N         -12.6362   -3.8309   19.6213 N.pl3   1  UNL1       -0.2152
      2 H         -11.7253   -3.8744   19.9922 H       1  UNL1        0.1737
      3 C         -13.2476   -2.5023   19.2876 C.ar    1  UNL1        0.0635
      4 C         -14.7019   -2.2562   19.5603 C.ar    1  UNL1        0.0270
      5 C         -15.3131   -0.9277   19.2266 C.ar    1  UNL1        0.0589
      6 CL        -16.7675   -0.6815   19.4993 Cl      1  UNL1       -0.0822
      7 C         -14.4701    0.1547   18.6201 C.ar    1  UNL1        0.0112
      8 C         -13.0158   -0.0915   18.3474 C.ar    1  UNL1       -0.0002
      9 C         -12.4046   -1.4200   18.6811 C.ar    1  UNL1        0.0168
     10 C         -10.9502   -1.6662   18.4084 C.3     1  UNL1        0.1568
     11 N         -10.5203   -2.9217   17.7092 N.ar    1  UNL1       -0.2256
     12 C         -10.7254   -3.2367   16.2571 C.ar    1  UNL1        0.1196
     13 C         -10.1417   -4.5924   15.9899 C.ar    1  UNL1        0.1441
     14 N          -9.5758   -5.1153   17.2769 N.ar    1  UNL1       -0.1271
     15 N          -9.8098   -4.0827   18.3395 N.ar    1  UNL1       -0.0634
     16 O         -13.1719   -4.9709   17.9144 O.2     1  UNL1       -0.1499
     17 S         -13.4129   -5.0932   19.3899 S.O2    1  UNL1        0.0736
     18 O         -13.6538   -5.2154   20.8653 O.2     1  UNL1       -0.1499
     19 C         -14.1895   -6.3554   19.1584 C.ar    1  UNL1        0.1261
     20 C         -13.5608   -7.4975   18.4166 C.ar    1  UNL1        0.0211
     21 C         -14.3374   -8.7597   18.1851 C.ar    1  UNL1        0.0136
     22 C         -15.7427   -8.8800   18.6956 C.ar    1  UNL1        0.0683
     23 CL        -16.5193  -10.1422   18.4642 Cl      1  UNL1       -0.0814
     24 C         -16.3715   -7.7379   19.4375 C.ar    1  UNL1        0.0695
     25 CL        -17.7768   -7.8581   19.9480 Cl      1  UNL1       -0.0813
     26 C         -15.5949   -6.4756   19.6689 C.ar    1  UNL1        0.0324
@<TRIPOS>BOND
     1    16    17    2
     2    17    18    2
     3    17     1    1
     4     1     3    1
     5     3     4   ar
     6     4     5   ar
     7     5     6    1
     8     5     7   ar
     9     7     8   ar
    10     8     9   ar
    11     9    10    1
    12    10    11    1
    13    11    12   ar
    14    12    13   ar
    15    13    14   ar
    16    14    15   ar
    17    17    19    1
    18    19    20   ar
    19    20    21   ar
    20    21    22   ar
    21    22    23    1
    22    22    24   ar
    23    24    25    1
    24    24    26   ar
    25     9     3   ar
    26    15    11   ar
    27    26    19   ar
    28     1     2    1
@<TRIPOS>MOLECULE
*****
 26 28 0 0 0
SMALL
GASTEIGER

@<TRIPOS>ATOM
      1 N          -9.7168  -18.3004   22.1674 N.pl3   1  UNL1       -0.2152
      2 H         -10.6893  -18.3254   22.3187 H       1  UNL1        0.1737
      3 C          -9.1167  -19.0573   21.0197 C.ar    1  UNL1        0.0635
      4 C          -7.7675  -19.6961   21.1663 C.ar    1  UNL1        0.0270
      5 C          -7.1674  -20.4529   20.0186 C.ar    1  UNL1        0.0589
      6 CL         -5.8182  -21.0918   20.1651 Cl      1  UNL1       -0.0822
      7 C          -7.9166  -20.5709   18.7245 C.ar    1  UNL1        0.0112
      8 C          -9.2658  -19.9321   18.5779 C.ar    1  UNL1       -0.0002
      9 C          -9.8658  -19.1753   19.7256 C.ar    1  UNL1        0.0168
     10 C         -11.2151  -18.5365   19.5791 C.3     1  UNL1        0.1568
     11 N         -11.8016  -17.7534   20.7162 N.ar    1  UNL1       -0.2256
     12 C         -11.7437  -16.2639   20.8834 C.ar    1  UNL1        0.1196
     13 C         -12.4553  -15.9124   22.1563 C.ar    1  UNL1        0.1441
     14 N         -12.9530  -17.1846   22.7756 N.ar    1  UNL1       -0.1271
     15 N         -12.5490  -18.3224   21.8856 N.ar    1  UNL1       -0.0634
     16 O          -9.2540  -18.3702   24.2364 O.2     1  UNL1       -0.1499
     17 S          -8.8352  -17.5056   23.0845 S.O2    1  UNL1        0.0736
     18 O          -8.4165  -16.6409   21.9325 O.2     1  UNL1       -0.1499
     19 C          -7.9536  -16.7107   24.0015 C.ar    1  UNL1        0.1261
     20 C          -6.5631  -16.3448   23.5743 C.ar    1  UNL1        0.0211
     21 C          -5.6815  -15.5499   24.4914 C.ar    1  UNL1        0.0136
     22 C          -6.1905  -15.1210   25.8356 C.ar    1  UNL1        0.0683
     23 CL         -5.3089  -14.3261   26.7526 Cl      1  UNL1       -0.0814
     24 C          -7.5811  -15.4868   26.2628 C.ar    1  UNL1        0.0695
     25 CL         -8.0900  -15.0579   27.6070 Cl      1  UNL1       -0.0813
     26 C          -8.4627  -16.2817   25.3458 C.ar    1  UNL1        0.0324
@<TRIPOS>BOND
     1    16    17    2
     2    17    18    2
     3    17     1    1
     4     1     3    1
     5     3     4   ar
     6     4     5   ar
     7     5     6    1
     8     5     7   ar
     9     7     8   ar
    10     8     9   ar
    11     9    10    1
    12    10    11    1
    13    11    12   ar
    14    12    13   ar
    15    13    14   ar
    16    14    15   ar
    17    17    19    1
    18    19    20   ar
    19    20    21   ar
    20    21    22   ar
    21    22    23    1
    22    22    24   ar
    23    24    25    1
    24    24    26   ar
    25     9     3   ar
    26    15    11   ar
    27    26    19   ar
    28     1     2    1
