@<TRIPOS>MOLECULE
*****
 34 39 0 0 0
SMALL
GASTEIGER

@<TRIPOS>ATOM
      1 C           7.6835   -4.9673   23.5640 C.ar    1  UNL1        0.1468
      2 N           8.3557   -5.9442   22.6455 N.ar    1  UNL1       -0.1330
      3 N           8.1396   -5.4792   21.2358 N.ar    1  UNL1       -0.1271
      4 C           7.3338   -4.2149   21.2833 C.ar    1  UNL1        0.1879
      5 N           7.0519   -3.8985   22.7221 N.ar    1  UNL1       -0.2753
      6 C           6.2749   -2.7203   23.2300 C.ar    1  UNL1        0.0770
      7 C           4.7810   -2.7982   23.3403 C.ar    1  UNL1        0.0185
      8 C           4.0040   -1.6199   23.8481 C.ar    1  UNL1        0.0015
      9 C           4.7209   -0.3637   24.2457 C.ar    1  UNL1        0.0010
     10 C           6.2147   -0.2858   24.1354 C.ar    1  UNL1        0.0129
     11 C           6.9917   -1.4641   23.6275 C.ar    1  UNL1        0.0738
     12 CL          8.4856   -1.3861   23.5172 Cl      1  UNL1       -0.0807
     13 C           6.8881   -3.4085   20.0995 C.ar    1  UNL1        0.1207
     14 C           7.7383   -2.2788   19.5986 C.ar    1  UNL1        0.0430
     15 C           7.2926   -1.4725   18.4148 C.ar    1  UNL1        0.1023
     16 N           5.9967   -1.7958   17.7321 N.ar    1  UNL1       -0.2224
     17 C           5.1465   -2.9254   18.2331 C.ar    1  UNL1        0.1990
     18 N           5.5922   -3.7318   19.4168 N.ar    1  UNL1       -0.2208
     19 C           7.6001   -5.1560   27.1795 C.3     1  UNL1        0.0783
     20 C           6.9508   -5.9179   26.0624 C.3     1  UNL1        0.0275
     21 C           7.6489   -5.0455   25.0616 C.3     1  UNL1        0.0624
     22 C           8.2982   -4.2835   26.1787 C.3     1  UNL1        0.0275
     23 C           5.9961   -2.5469   31.8972 C.2     1  UNL1        0.0692
     24 C           5.8135   -2.0626   30.4893 C.2     1  UNL1        0.0078
     25 C           6.3059   -2.8924   29.3409 C.2     1  UNL1       -0.0001
     26 C           6.9809   -4.2065   29.6003 C.3     1  UNL1        0.1370
     27 C           7.1636   -4.6908   31.0081 C.2     1  UNL1        0.0756
     28 C           6.6712   -3.8610   32.1565 C.2     1  UNL1        0.0245
     29 N           7.8611   -6.0178   30.9550 N.am    1  UNL1       -0.1645
     30 C           8.1095   -6.3535   29.5143 C.2     1  UNL1        0.3276
     31 O           8.7835   -7.5914   29.0010 O.2     1  UNL1       -0.2504
     32 N           7.5655   -5.2341   28.6771 N.am    1  UNL1       -0.2570
     33 N           5.0113   -0.8873   34.1941 N.1     1  UNL1       -0.1908
     34 C           5.5037   -1.7171   33.0456 C.1     1  UNL1        0.1004
@<TRIPOS>BOND
     1    33    34    3
     2    34    23    1
     3    23    24    1
     4    24    25    2
     5    25    26    1
     6    26    27    1
     7    27    28    1
     8    27    29    2
     9    29    30    1
    10    30    31    2
    11    30    32   am
    12    19    32    1
    13    19    20    1
    14    20    21    1
    15    21     1    1
    16     1     2   ar
    17     2     3   ar
    18     3     4   ar
    19     4    13    1
    20    13    14   ar
    21    14    15   ar
    22    15    16   ar
    23    16    17   ar
    24    17    18   ar
    25     4     5   ar
    26     5     6    1
    27     6     7   ar
    28     7     8   ar
    29     8     9   ar
    30     9    10   ar
    31    10    11   ar
    32    11    12    1
    33    21    22    1
    34    28    23    2
    35    22    19    1
    36    32    26    1
    37     5     1   ar
    38    11     6   ar
    39    18    13   ar
@<TRIPOS>MOLECULE
*****
 34 39 0 0 0
SMALL
GASTEIGER

@<TRIPOS>ATOM
      1 C           0.2930    1.0531   27.2941 C.ar    1  UNL1        0.1468
      2 N          -0.9184    0.7410   28.1217 N.ar    1  UNL1       -0.1330
      3 N          -0.4749    0.5616   29.5434 N.ar    1  UNL1       -0.1271
      4 C           1.0107    0.7629   29.5943 C.ar    1  UNL1        0.1879
      5 N           1.4852    1.0667   28.2042 N.ar    1  UNL1       -0.2753
      6 C           2.9031    1.3366   27.7958 C.ar    1  UNL1        0.0770
      7 C           3.4189    2.7448   27.7626 C.ar    1  UNL1        0.0185
      8 C           4.8368    3.0147   27.3543 C.ar    1  UNL1        0.0015
      9 C           5.7389    1.8765   26.9792 C.ar    1  UNL1        0.0010
     10 C           5.2232    0.4685   27.0124 C.ar    1  UNL1        0.0129
     11 C           3.8052    0.1985   27.4207 C.ar    1  UNL1        0.0738
     12 CL          3.2895   -1.2097   27.4539 Cl      1  UNL1       -0.0807
     13 C           1.8707    0.6757   30.8202 C.ar    1  UNL1        0.1207
     14 C           2.8185   -0.4743   30.9912 C.ar    1  UNL1        0.0430
     15 C           3.6785   -0.5615   32.2171 C.ar    1  UNL1        0.1023
     16 N           3.5907    0.5013   33.2720 N.ar    1  UNL1       -0.2224
     17 C           2.6430    1.6512   33.1010 C.ar    1  UNL1        0.1990
     18 N           1.7829    1.7384   31.8751 N.ar    1  UNL1       -0.2208
     19 C           0.3323    1.6665   23.7252 C.3     1  UNL1        0.0783
     20 C           1.1704    0.8595   24.6721 C.3     1  UNL1        0.0275
     21 C           0.3093    1.3072   25.8158 C.3     1  UNL1        0.0624
     22 C          -0.5288    2.1142   24.8690 C.3     1  UNL1        0.0275
     23 C           2.5490    0.0946   18.8006 C.2     1  UNL1        0.0692
     24 C           2.8453   -0.4856   20.1518 C.2     1  UNL1        0.0078
     25 C           2.1580    0.0588   21.3688 C.2     1  UNL1       -0.0001
     26 C           1.1745    1.1834   21.2348 C.3     1  UNL1        0.1370
     27 C           0.8783    1.7635   19.8837 C.2     1  UNL1        0.0756
     28 C           1.5655    1.2191   18.6666 C.2     1  UNL1        0.0245
     29 N          -0.1307    2.8593   20.0608 N.am    1  UNL1       -0.1645
     30 C          -0.4580    2.9563   21.5214 C.2     1  UNL1        0.3276
     31 O          -1.4227    3.9199   22.1468 O.2     1  UNL1       -0.2504
     32 N           0.3487    1.9205   22.2470 N.am    1  UNL1       -0.2570
     33 N           3.9236   -0.9942   16.3664 N.1     1  UNL1       -0.1908
     34 C           3.2363   -0.4498   17.5835 C.1     1  UNL1        0.1004
@<TRIPOS>BOND
     1    33    34    3
     2    34    23    1
     3    23    24    1
     4    24    25    2
     5    25    26    1
     6    26    27    1
     7    27    28    1
     8    27    29    2
     9    29    30    1
    10    30    31    2
    11    30    32   am
    12    19    32    1
    13    19    20    1
    14    20    21    1
    15    21     1    1
    16     1     2   ar
    17     2     3   ar
    18     3     4   ar
    19     4    13    1
    20    13    14   ar
    21    14    15   ar
    22    15    16   ar
    23    16    17   ar
    24    17    18   ar
    25     4     5   ar
    26     5     6    1
    27     6     7   ar
    28     7     8   ar
    29     8     9   ar
    30     9    10   ar
    31    10    11   ar
    32    11    12    1
    33    21    22    1
    34    28    23    2
    35    22    19    1
    36    32    26    1
    37     5     1   ar
    38    11     6   ar
    39    18    13   ar
@<TRIPOS>MOLECULE
*****
 34 39 0 0 0
SMALL
GASTEIGER

@<TRIPOS>ATOM
      1 C           0.8263    1.6899   29.6377 C.ar    1  UNL1        0.1468
      2 N           0.2956    1.9387   31.0183 N.ar    1  UNL1       -0.1330
      3 N           1.2747    1.3683   32.0011 N.ar    1  UNL1       -0.1271
      4 C           2.4107    0.7669   31.2277 C.ar    1  UNL1        0.1879
      5 N           2.1335    0.9657   29.7671 N.ar    1  UNL1       -0.2753
      6 C           3.0098    0.5188   28.6346 C.ar    1  UNL1        0.0770
      7 C           2.9099   -0.8860   28.1183 C.ar    1  UNL1        0.0185
      8 C           3.7861   -1.3329   26.9858 C.ar    1  UNL1        0.0015
      9 C           4.7623   -0.3751   26.3697 C.ar    1  UNL1        0.0010
     10 C           4.8622    1.0297   26.8860 C.ar    1  UNL1        0.0129
     11 C           3.9859    1.4766   28.0185 C.ar    1  UNL1        0.0738
     12 CL          4.0859    2.8814   28.5348 Cl      1  UNL1       -0.0807
     13 C           3.6127    0.0863   31.8125 C.ar    1  UNL1        0.1207
     14 C           4.9346    0.7946   31.8434 C.ar    1  UNL1        0.0430
     15 C           6.1367    0.1140   32.4281 C.ar    1  UNL1        0.1023
     16 N           6.0168   -1.2749   32.9819 N.ar    1  UNL1       -0.2224
     17 C           4.6949   -1.9831   32.9510 C.ar    1  UNL1        0.1990
     18 N           3.4929   -1.3025   32.3663 N.ar    1  UNL1       -0.2208
     19 C          -0.7682    2.6661   26.5362 C.3     1  UNL1        0.0783
     20 C          -0.5988    1.3753   27.2813 C.3     1  UNL1        0.0275
     21 C           0.1659    2.0942   28.3530 C.3     1  UNL1        0.0624
     22 C          -0.0035    3.3851   27.6079 C.3     1  UNL1        0.0275
     23 C          -5.5317    4.5108   24.1819 C.2     1  UNL1        0.0692
     24 C          -5.2968    4.2128   25.6331 C.2     1  UNL1        0.0078
     25 C          -3.9543    3.7248   26.0908 C.2     1  UNL1       -0.0001
     26 C          -2.8466    3.5349   25.0974 C.3     1  UNL1        0.1370
     27 C          -3.0815    3.8329   23.6462 C.2     1  UNL1        0.0756
     28 C          -4.4240    4.3208   23.1884 C.2     1  UNL1        0.0245
     29 N          -1.8087    3.5527   22.9035 N.am    1  UNL1       -0.1645
     30 C          -0.7872    3.0815   23.8958 C.2     1  UNL1        0.3276
     31 O           0.6275    2.6901   23.5865 O.2     1  UNL1       -0.2504
     32 N          -1.4287    3.0705   25.2516 N.am    1  UNL1       -0.2570
     33 N          -8.2167    5.4868   23.2664 N.1     1  UNL1       -0.1908
     34 C          -6.8742    4.9988   23.7241 C.1     1  UNL1        0.1004
@<TRIPOS>BOND
     1    33    34    3
     2    34    23    1
     3    23    24    1
     4    24    25    2
     5    25    26    1
     6    26    27    1
     7    27    28    1
     8    27    29    2
     9    29    30    1
    10    30    31    2
    11    30    32   am
    12    19    32    1
    13    19    20    1
    14    20    21    1
    15    21     1    1
    16     1     2   ar
    17     2     3   ar
    18     3     4   ar
    19     4    13    1
    20    13    14   ar
    21    14    15   ar
    22    15    16   ar
    23    16    17   ar
    24    17    18   ar
    25     4     5   ar
    26     5     6    1
    27     6     7   ar
    28     7     8   ar
    29     8     9   ar
    30     9    10   ar
    31    10    11   ar
    32    11    12    1
    33    21    22    1
    34    28    23    2
    35    22    19    1
    36    32    26    1
    37     5     1   ar
    38    11     6   ar
    39    18    13   ar
@<TRIPOS>MOLECULE
*****
 34 39 0 0 0
SMALL
GASTEIGER

@<TRIPOS>ATOM
      1 C           3.7503    0.0629   32.2805 C.ar    1  UNL1        0.1468
      2 N           2.4830    0.3943   31.5497 N.ar    1  UNL1       -0.1330
      3 N           1.7445    1.4278   32.3475 N.ar    1  UNL1       -0.1271
      4 C           2.5556    1.7351   33.5714 C.ar    1  UNL1        0.1879
      5 N           3.7951    0.8916   33.5300 N.ar    1  UNL1       -0.2753
      6 C           4.8877    0.8789   34.5576 C.ar    1  UNL1        0.0770
      7 C           4.9249   -0.1995   35.5995 C.ar    1  UNL1        0.0185
      8 C           6.0175   -0.2122   36.6271 C.ar    1  UNL1        0.0015
      9 C           7.0730    0.8536   36.6129 C.ar    1  UNL1        0.0010
     10 C           7.0358    1.9320   35.5710 C.ar    1  UNL1        0.0129
     11 C           5.9432    1.9446   34.5433 C.ar    1  UNL1        0.0738
     12 CL          5.9061    3.0231   33.5014 Cl      1  UNL1       -0.0807
     13 C           2.1909    2.7142   34.6478 C.ar    1  UNL1        0.1207
     14 C           1.6647    4.0702   34.2813 C.ar    1  UNL1        0.0430
     15 C           1.3001    5.0493   35.3577 C.ar    1  UNL1        0.1023
     16 N           1.4616    4.6723   36.8005 N.ar    1  UNL1       -0.2224
     17 C           1.9878    3.3163   37.1670 C.ar    1  UNL1        0.1990
     18 N           2.3525    2.3372   36.0906 N.ar    1  UNL1       -0.2208
     19 C           6.2609   -2.3196   31.2152 C.3     1  UNL1        0.0783
     20 C           5.1908   -2.3050   32.2663 C.3     1  UNL1        0.0275
     21 C           4.7902   -0.9240   31.8392 C.3     1  UNL1        0.0624
     22 C           5.8603   -0.9386   30.7881 C.3     1  UNL1        0.0275
     23 C           7.6398   -6.1322   27.3166 C.2     1  UNL1        0.0692
     24 C           6.3892   -5.3058   27.3704 C.2     1  UNL1        0.0078
     25 C           6.1828   -4.3297   28.4905 C.2     1  UNL1       -0.0001
     26 C           7.2271   -4.1800   29.5568 C.3     1  UNL1        0.1370
     27 C           8.4777   -5.0065   29.5030 C.2     1  UNL1        0.0756
     28 C           8.6840   -5.9826   28.3829 C.2     1  UNL1        0.0245
     29 N           9.3244   -4.6437   30.6870 N.am    1  UNL1       -0.1645
     30 C           8.5970   -3.5931   31.4725 C.2     1  UNL1        0.3276
     31 O           9.0808   -2.9431   32.7348 O.2     1  UNL1       -0.2504
     32 N           7.3008   -3.3065   30.7740 N.am    1  UNL1       -0.2570
     33 N           8.0524   -8.0845   25.0764 N.1     1  UNL1       -0.1908
     34 C           7.8461   -7.1083   26.1965 C.1     1  UNL1        0.1004
@<TRIPOS>BOND
     1    33    34    3
     2    34    23    1
     3    23    24    1
     4    24    25    2
     5    25    26    1
     6    26    27    1
     7    27    28    1
     8    27    29    2
     9    29    30    1
    10    30    31    2
    11    30    32   am
    12    19    32    1
    13    19    20    1
    14    20    21    1
    15    21     1    1
    16     1     2   ar
    17     2     3   ar
    18     3     4   ar
    19     4    13    1
    20    13    14   ar
    21    14    15   ar
    22    15    16   ar
    23    16    17   ar
    24    17    18   ar
    25     4     5   ar
    26     5     6    1
    27     6     7   ar
    28     7     8   ar
    29     8     9   ar
    30     9    10   ar
    31    10    11   ar
    32    11    12    1
    33    21    22    1
    34    28    23    2
    35    22    19    1
    36    32    26    1
    37     5     1   ar
    38    11     6   ar
    39    18    13   ar
@<TRIPOS>MOLECULE
*****
 34 39 0 0 0
SMALL
GASTEIGER

@<TRIPOS>ATOM
      1 C           5.9709   -2.4789   20.3824 C.ar    1  UNL1        0.1468
      2 N           6.2452   -2.6593   18.9188 N.ar    1  UNL1       -0.1330
      3 N           5.6120   -1.5151   18.1840 N.ar    1  UNL1       -0.1271
      4 C           4.9463   -0.6276   19.1937 C.ar    1  UNL1        0.1879
      5 N           5.1681   -1.2233   20.5523 N.ar    1  UNL1       -0.2753
      6 C           4.6739   -0.6619   21.8525 C.ar    1  UNL1        0.0770
      7 C           3.3091   -1.0268   22.3565 C.ar    1  UNL1        0.0185
      8 C           2.8149   -0.4654   23.6568 C.ar    1  UNL1        0.0015
      9 C           3.6856    0.4609   24.4530 C.ar    1  UNL1        0.0010
     10 C           5.0503    0.8258   23.9490 C.ar    1  UNL1        0.0129
     11 C           5.5445    0.2643   22.6487 C.ar    1  UNL1        0.0738
     12 CL          6.9094    0.6293   22.1448 Cl      1  UNL1       -0.0807
     13 C           4.1913    0.6341   18.8967 C.ar    1  UNL1        0.1207
     14 C           2.6913    0.6283   18.8970 C.ar    1  UNL1        0.0430
     15 C           1.9364    1.8900   18.6000 C.ar    1  UNL1        0.1023
     16 N           2.6814    3.1575   18.3028 N.ar    1  UNL1       -0.2224
     17 C           4.1814    3.1633   18.3026 C.ar    1  UNL1        0.1990
     18 N           4.9363    1.9016   18.5995 N.ar    1  UNL1       -0.2208
     19 C           7.0562   -4.6873   23.0394 C.3     1  UNL1        0.0783
     20 C           5.7997   -3.9240   22.7413 C.3     1  UNL1        0.0275
     21 C           6.4204   -3.3937   21.4829 C.3     1  UNL1        0.0624
     22 C           7.6769   -4.1569   21.7810 C.3     1  UNL1        0.0275
     23 C           7.1176   -5.5276   28.6005 C.2     1  UNL1        0.0692
     24 C           6.5001   -4.3740   27.8673 C.2     1  UNL1        0.0078
     25 C           6.5775   -4.3086   26.3707 C.2     1  UNL1       -0.0001
     26 C           7.2724   -5.3968   25.6074 C.3     1  UNL1        0.1370
     27 C           7.8899   -6.5505   26.3406 C.2     1  UNL1        0.0756
     28 C           7.8125   -6.6159   27.8372 C.2     1  UNL1        0.0245
     29 N           8.5049   -7.4688   25.3263 N.am    1  UNL1       -0.1645
     30 C           8.2674   -6.8826   23.9662 C.2     1  UNL1        0.3276
     31 O           8.7133   -7.4731   22.6614 O.2     1  UNL1       -0.2504
     32 N           7.5057   -5.6021   24.1399 N.am    1  UNL1       -0.2570
     33 N           6.9628   -5.6584   31.5937 N.1     1  UNL1       -0.1908
     34 C           7.0402   -5.5930   30.0971 C.1     1  UNL1        0.1004
@<TRIPOS>BOND
     1    33    34    3
     2    34    23    1
     3    23    24    1
     4    24    25    2
     5    25    26    1
     6    26    27    1
     7    27    28    1
     8    27    29    2
     9    29    30    1
    10    30    31    2
    11    30    32   am
    12    19    32    1
    13    19    20    1
    14    20    21    1
    15    21     1    1
    16     1     2   ar
    17     2     3   ar
    18     3     4   ar
    19     4    13    1
    20    13    14   ar
    21    14    15   ar
    22    15    16   ar
    23    16    17   ar
    24    17    18   ar
    25     4     5   ar
    26     5     6    1
    27     6     7   ar
    28     7     8   ar
    29     8     9   ar
    30     9    10   ar
    31    10    11   ar
    32    11    12    1
    33    21    22    1
    34    28    23    2
    35    22    19    1
    36    32    26    1
    37     5     1   ar
    38    11     6   ar
    39    18    13   ar
@<TRIPOS>MOLECULE
*****
 34 39 0 0 0
SMALL
GASTEIGER

@<TRIPOS>ATOM
      1 C           3.5396   -0.1104   18.2061 C.ar    1  UNL1        0.1468
      2 N           3.9938   -0.6313   16.8749 N.ar    1  UNL1       -0.1330
      3 N           5.1677   -1.5359   17.1070 N.ar    1  UNL1       -0.1271
      4 C           5.4389   -1.5739   18.5819 C.ar    1  UNL1        0.1879
      5 N           4.4327   -0.6929   19.2611 N.ar    1  UNL1       -0.2753
      6 C           4.3365   -0.4391   20.7363 C.ar    1  UNL1        0.0770
      7 C           3.3382   -1.1934   21.5637 C.ar    1  UNL1        0.0185
      8 C           3.2420   -0.9396   23.0389 C.ar    1  UNL1        0.0015
      9 C           4.1441    0.0686   23.6869 C.ar    1  UNL1        0.0010
     10 C           5.1423    0.8229   22.8596 C.ar    1  UNL1        0.0129
     11 C           5.2385    0.5690   21.3843 C.ar    1  UNL1        0.0738
     12 CL          6.2368    1.3234   20.5571 Cl      1  UNL1       -0.0807
     13 C           6.5255   -2.3558   19.2586 C.ar    1  UNL1        0.1207
     14 C           7.9638   -2.0070   19.0145 C.ar    1  UNL1        0.0430
     15 C           9.0505   -2.7888   19.6912 C.ar    1  UNL1        0.1023
     16 N           8.6988   -3.9195   20.6120 N.ar    1  UNL1       -0.2224
     17 C           7.2605   -4.2683   20.8561 C.ar    1  UNL1        0.1990
     18 N           6.1739   -3.4864   20.1794 N.ar    1  UNL1       -0.2208
     19 C           0.7727    2.1560   18.7736 C.3     1  UNL1        0.0783
     20 C           0.9110    0.6716   18.6074 C.3     1  UNL1        0.0275
     21 C           2.3935    0.8284   18.4412 C.3     1  UNL1        0.0624
     22 C           2.2552    2.3127   18.6075 C.3     1  UNL1        0.0275
     23 C          -2.7118    4.3039   22.6313 C.2     1  UNL1        0.0692
     24 C          -1.6162    3.3050   22.8589 C.2     1  UNL1        0.0078
     25 C          -0.7766    2.8373   21.7072 C.2     1  UNL1       -0.0001
     26 C          -1.0325    3.3685   20.3280 C.3     1  UNL1        0.1370
     27 C          -2.1280    4.3674   20.1004 C.2     1  UNL1        0.0756
     28 C          -2.9677    4.8351   21.2521 C.2     1  UNL1        0.0245
     29 N          -2.1461    4.7110   18.6404 N.am    1  UNL1       -0.1645
     30 C          -1.0617    3.9244   17.9657 C.2     1  UNL1        0.3276
     31 O          -0.7247    3.9611   16.5044 O.2     1  UNL1       -0.2504
     32 N          -0.3734    3.0947   19.0087 N.am    1  UNL1       -0.2570
     33 N          -4.3911    5.2393   24.9345 N.1     1  UNL1       -0.1908
     34 C          -3.5514    4.7716   23.7829 C.1     1  UNL1        0.1004
@<TRIPOS>BOND
     1    33    34    3
     2    34    23    1
     3    23    24    1
     4    24    25    2
     5    25    26    1
     6    26    27    1
     7    27    28    1
     8    27    29    2
     9    29    30    1
    10    30    31    2
    11    30    32   am
    12    19    32    1
    13    19    20    1
    14    20    21    1
    15    21     1    1
    16     1     2   ar
    17     2     3   ar
    18     3     4   ar
    19     4    13    1
    20    13    14   ar
    21    14    15   ar
    22    15    16   ar
    23    16    17   ar
    24    17    18   ar
    25     4     5   ar
    26     5     6    1
    27     6     7   ar
    28     7     8   ar
    29     8     9   ar
    30     9    10   ar
    31    10    11   ar
    32    11    12    1
    33    21    22    1
    34    28    23    2
    35    22    19    1
    36    32    26    1
    37     5     1   ar
    38    11     6   ar
    39    18    13   ar
@<TRIPOS>MOLECULE
*****
 34 39 0 0 0
SMALL
GASTEIGER

@<TRIPOS>ATOM
      1 C           2.0081    0.5501   23.4672 C.ar    1  UNL1        0.1468
      2 N           2.7689   -0.5420   24.1589 N.ar    1  UNL1       -0.1330
      3 N           3.7561   -1.1094   23.1824 N.ar    1  UNL1       -0.1271
      4 C           3.6054   -0.3679   21.8872 C.ar    1  UNL1        0.1879
      5 N           2.5251    0.6577   22.0632 N.ar    1  UNL1       -0.2753
      6 C           2.0459    1.6217   21.0187 C.ar    1  UNL1        0.0770
      7 C           2.7084    2.9595   20.8723 C.ar    1  UNL1        0.0185
      8 C           2.2292    3.9235   19.8277 C.ar    1  UNL1        0.0015
      9 C           1.0874    3.5497   18.9295 C.ar    1  UNL1        0.0010
     10 C           0.4249    2.2120   19.0760 C.ar    1  UNL1        0.0129
     11 C           0.9042    1.2480   20.1206 C.ar    1  UNL1        0.0738
     12 CL          0.2415   -0.0897   20.2669 Cl      1  UNL1       -0.0807
     13 C           4.3961   -0.6096   20.6357 C.ar    1  UNL1        0.1207
     14 C           3.8840   -1.5633   19.5973 C.ar    1  UNL1        0.0430
     15 C           4.6748   -1.8051   18.3458 C.ar    1  UNL1        0.1023
     16 N           5.9777   -1.0931   18.1326 N.ar    1  UNL1       -0.2224
     17 C           6.4898   -0.1394   19.1710 C.ar    1  UNL1        0.1990
     18 N           5.6991    0.1024   20.4225 N.ar    1  UNL1       -0.2208
     19 C          -0.6160    2.5721   24.9301 C.3     1  UNL1        0.0783
     20 C           0.0903    1.3073   25.3195 C.3     1  UNL1        0.0275
     21 C           0.9212    1.3876   24.0731 C.3     1  UNL1        0.0624
     22 C           0.2149    2.6524   23.6837 C.3     1  UNL1        0.0275
     23 C          -5.9170    4.3636   24.3594 C.2     1  UNL1        0.0692
     24 C          -5.1653    3.4545   23.4330 C.2     1  UNL1        0.0078
     25 C          -3.7469    3.0761   23.7410 C.2     1  UNL1       -0.0001
     26 C          -3.0802    3.6069   24.9753 C.3     1  UNL1        0.1370
     27 C          -3.8319    4.5160   25.9017 C.2     1  UNL1        0.0756
     28 C          -5.2503    4.8944   25.5938 C.2     1  UNL1        0.0245
     29 N          -2.9192    4.8807   27.0350 N.am    1  UNL1       -0.1645
     30 C          -1.6035    4.1969   26.8089 C.2     1  UNL1        0.3276
     31 O          -0.3995    4.2849   27.6994 O.2     1  UNL1       -0.2504
     32 N          -1.7029    3.4096   25.5360 N.am    1  UNL1       -0.2570
     33 N          -8.7539    5.1204   23.7435 N.1     1  UNL1       -0.1908
     34 C          -7.3355    4.7420   24.0514 C.1     1  UNL1        0.1004
@<TRIPOS>BOND
     1    33    34    3
     2    34    23    1
     3    23    24    1
     4    24    25    2
     5    25    26    1
     6    26    27    1
     7    27    28    1
     8    27    29    2
     9    29    30    1
    10    30    31    2
    11    30    32   am
    12    19    32    1
    13    19    20    1
    14    20    21    1
    15    21     1    1
    16     1     2   ar
    17     2     3   ar
    18     3     4   ar
    19     4    13    1
    20    13    14   ar
    21    14    15   ar
    22    15    16   ar
    23    16    17   ar
    24    17    18   ar
    25     4     5   ar
    26     5     6    1
    27     6     7   ar
    28     7     8   ar
    29     8     9   ar
    30     9    10   ar
    31    10    11   ar
    32    11    12    1
    33    21    22    1
    34    28    23    2
    35    22    19    1
    36    32    26    1
    37     5     1   ar
    38    11     6   ar
    39    18    13   ar
@<TRIPOS>MOLECULE
*****
 34 39 0 0 0
SMALL
GASTEIGER

@<TRIPOS>ATOM
      1 C           3.8012   -1.1291   23.1270 C.ar    1  UNL1        0.1468
      2 N           2.7073   -0.5293   23.9596 N.ar    1  UNL1       -0.1330
      3 N           1.9801    0.4753   23.1158 N.ar    1  UNL1       -0.1271
      4 C           2.6248    0.4963   21.7615 C.ar    1  UNL1        0.1879
      5 N           3.7503   -0.4952   21.7684 N.ar    1  UNL1       -0.2753
      6 C           4.6643   -0.7995   20.6187 C.ar    1  UNL1        0.0770
      7 C           5.9665   -0.0677   20.4817 C.ar    1  UNL1        0.0185
      8 C           6.8805   -0.3720   19.3320 C.ar    1  UNL1        0.0015
      9 C           6.4923   -1.4082   18.3191 C.ar    1  UNL1        0.0010
     10 C           5.1902   -2.1400   18.4560 C.ar    1  UNL1        0.0129
     11 C           4.2762   -1.8356   19.6059 C.ar    1  UNL1        0.0738
     12 CL          2.9740   -2.5675   19.7428 Cl      1  UNL1       -0.0807
     13 C           2.2158    1.3577   20.6036 C.ar    1  UNL1        0.1207
     14 C           1.3761    0.7834   19.5013 C.ar    1  UNL1        0.0430
     15 C           0.9671    1.6448   18.3434 C.ar    1  UNL1        0.1023
     16 N           1.3977    3.0805   18.2878 N.ar    1  UNL1       -0.2224
     17 C           2.2373    3.6549   19.3902 C.ar    1  UNL1        0.1990
     18 N           2.6463    2.7935   20.5480 N.ar    1  UNL1       -0.2208
     19 C           6.1526   -3.6628   24.2068 C.3     1  UNL1        0.0783
     20 C           5.1212   -3.5662   23.1218 C.3     1  UNL1        0.0275
     21 C           4.7751   -2.1785   23.5742 C.3     1  UNL1        0.0624
     22 C           5.8065   -2.2751   24.6592 C.3     1  UNL1        0.0275
     23 C           8.4946   -6.1835   28.6562 C.2     1  UNL1        0.0692
     24 C           7.4745   -5.0840   28.6732 C.2     1  UNL1        0.0078
     25 C           6.9539   -4.5238   27.3827 C.2     1  UNL1       -0.0001
     26 C           7.4533   -5.0633   26.0753 C.3     1  UNL1        0.1370
     27 C           8.4734   -6.1629   26.0583 C.2     1  UNL1        0.0756
     28 C           8.9940   -6.7230   27.3487 C.2     1  UNL1        0.0245
     29 N           8.7771   -6.4914   24.6265 N.am    1  UNL1       -0.1645
     30 C           7.9446   -5.5948   23.7586 C.2     1  UNL1        0.3276
     31 O           7.9324   -5.5829   22.2587 O.2     1  UNL1       -0.2504
     32 N           7.1265   -4.7122   24.6541 N.am    1  UNL1       -0.2570
     33 N           9.5358   -7.3038   31.2370 N.1     1  UNL1       -0.1908
     34 C           9.0152   -6.7436   29.9466 C.1     1  UNL1        0.1004
@<TRIPOS>BOND
     1    33    34    3
     2    34    23    1
     3    23    24    1
     4    24    25    2
     5    25    26    1
     6    26    27    1
     7    27    28    1
     8    27    29    2
     9    29    30    1
    10    30    31    2
    11    30    32   am
    12    19    32    1
    13    19    20    1
    14    20    21    1
    15    21     1    1
    16     1     2   ar
    17     2     3   ar
    18     3     4   ar
    19     4    13    1
    20    13    14   ar
    21    14    15   ar
    22    15    16   ar
    23    16    17   ar
    24    17    18   ar
    25     4     5   ar
    26     5     6    1
    27     6     7   ar
    28     7     8   ar
    29     8     9   ar
    30     9    10   ar
    31    10    11   ar
    32    11    12    1
    33    21    22    1
    34    28    23    2
    35    22    19    1
    36    32    26    1
    37     5     1   ar
    38    11     6   ar
    39    18    13   ar
@<TRIPOS>MOLECULE
*****
 34 39 0 0 0
SMALL
GASTEIGER

@<TRIPOS>ATOM
      1 C          -4.4635    4.2330   20.6482 C.ar    1  UNL1        0.1468
      2 N          -5.6611    4.3132   19.7487 N.ar    1  UNL1       -0.1330
      3 N          -6.8353    4.7430   20.5773 N.ar    1  UNL1       -0.1271
      4 C          -6.3633    4.9283   21.9891 C.ar    1  UNL1        0.1879
      5 N          -4.8974    4.6132   22.0329 N.ar    1  UNL1       -0.2753
      6 C          -4.0197    4.6685   23.2479 C.ar    1  UNL1        0.0770
      7 C          -4.0158    3.5285   24.2229 C.ar    1  UNL1        0.0185
      8 C          -3.1381    3.5838   25.4380 C.ar    1  UNL1        0.0015
      9 C          -2.2641    4.7791   25.6782 C.ar    1  UNL1        0.0010
     10 C          -2.2679    5.9189   24.7033 C.ar    1  UNL1        0.0129
     11 C          -3.1458    5.8636   23.4881 C.ar    1  UNL1        0.0738
     12 CL         -3.1495    7.0036   22.5132 Cl      1  UNL1       -0.0807
     13 C          -7.2087    5.3541   23.1526 C.ar    1  UNL1        0.1207
     14 C          -6.7995    6.5325   23.9857 C.ar    1  UNL1        0.0430
     15 C          -7.6449    6.9583   25.1493 C.ar    1  UNL1        0.1023
     16 N          -8.8997    6.2057   25.4798 N.ar    1  UNL1       -0.2224
     17 C          -9.3089    5.0273   24.6468 C.ar    1  UNL1        0.1990
     18 N          -8.4635    4.6016   23.4832 N.ar    1  UNL1       -0.2208
     19 C          -1.1126    3.2876   19.6521 C.3     1  UNL1        0.0783
     20 C          -2.2862    3.9176   18.9623 C.3     1  UNL1        0.0275
     21 C          -3.0755    3.8414   20.2357 C.3     1  UNL1        0.0624
     22 C          -1.9019    3.2114   20.9255 C.3     1  UNL1        0.0275
     23 C           2.6843   -0.8618   19.5994 C.2     1  UNL1        0.0692
     24 C           1.2967   -0.9132   20.1668 C.2     1  UNL1        0.0078
     25 C           0.4116    0.2957   20.0946 C.2     1  UNL1       -0.0001
     26 C           0.9141    1.5560   19.4550 C.3     1  UNL1        0.1370
     27 C           2.3017    1.6074   18.8877 C.2     1  UNL1        0.0756
     28 C           3.1868    0.3985   18.9599 C.2     1  UNL1        0.0245
     29 N           2.5205    2.9792   18.3216 N.am    1  UNL1       -0.1645
     30 C           1.2681    3.7755   18.5390 C.2     1  UNL1        0.3276
     31 O           1.0472    5.2012   18.1281 O.2     1  UNL1       -0.2504
     32 N           0.2753    2.8960   19.2395 N.am    1  UNL1       -0.2570
     33 N           4.4544   -3.2796   19.7438 N.1     1  UNL1       -0.1908
     34 C           3.5693   -2.0707   19.6716 C.1     1  UNL1        0.1004
@<TRIPOS>BOND
     1    33    34    3
     2    34    23    1
     3    23    24    1
     4    24    25    2
     5    25    26    1
     6    26    27    1
     7    27    28    1
     8    27    29    2
     9    29    30    1
    10    30    31    2
    11    30    32   am
    12    19    32    1
    13    19    20    1
    14    20    21    1
    15    21     1    1
    16     1     2   ar
    17     2     3   ar
    18     3     4   ar
    19     4    13    1
    20    13    14   ar
    21    14    15   ar
    22    15    16   ar
    23    16    17   ar
    24    17    18   ar
    25     4     5   ar
    26     5     6    1
    27     6     7   ar
    28     7     8   ar
    29     8     9   ar
    30     9    10   ar
    31    10    11   ar
    32    11    12    1
    33    21    22    1
    34    28    23    2
    35    22    19    1
    36    32    26    1
    37     5     1   ar
    38    11     6   ar
    39    18    13   ar
