@<TRIPOS>MOLECULE
*****
 42 46 0 0 0
SMALL
GASTEIGER

@<TRIPOS>ATOM
      1 C           0.0969    2.9065   22.2310 C.ar    1  UNL1        0.0797
      2 C          -0.9537    2.9569   23.3004 C.ar    1  UNL1        0.0396
      3 C          -2.1490    3.6712   22.7428 C.ar    1  UNL1        0.1024
      4 N          -1.8372    4.0624   21.3286 N.ar    1  UNL1       -0.1691
      5 N          -0.4491    3.5898   21.0123 N.ar    1  UNL1       -0.2487
      6 C           5.7063   -1.0580   22.4900 C.ar    1  UNL1        0.1387
      7 C           4.5250   -1.9026   22.1144 C.ar    1  UNL1        0.0369
      8 C           3.1668   -1.2786   21.9874 C.ar    1  UNL1        0.0031
      9 C           2.9900    0.1900   22.2362 C.ar    1  UNL1        0.0002
     10 C           1.6319    0.8140   22.1092 C.ar    1  UNL1        0.0015
     11 C           1.4550    2.2825   22.3579 C.ar    1  UNL1        0.0174
     12 C           2.6363    3.1272   22.7336 C.ar    1  UNL1        0.0015
     13 C           3.9945    2.5033   22.8605 C.ar    1  UNL1        0.0001
     14 C           4.1713    1.0346   22.6118 C.ar    1  UNL1        0.0030
     15 C           5.5294    0.4106   22.7387 C.ar    1  UNL1        0.0369
     16 C           7.9645   -1.7693   21.4202 C.3     1  UNL1        0.2525
     17 O           7.0644   -1.6820   22.6169 O.3     1  UNL1       -0.4714
     18 C          -3.4311    3.9461   23.4712 C.ar    1  UNL1        0.0211
     19 C          -3.4173    4.1745   24.9536 C.ar    1  UNL1        0.0130
     20 C          -4.6994    4.4494   25.6820 C.ar    1  UNL1        0.0586
     21 CL         -4.6857    4.6779   27.1645 Cl      1  UNL1       -0.0822
     22 C          -5.9953    4.4959   24.9280 C.ar    1  UNL1        0.0228
     23 C          -6.0091    4.2675   23.4456 C.ar    1  UNL1        0.0586
     24 CL         -7.3050    4.3139   22.6916 Cl      1  UNL1       -0.0822
     25 C          -4.7270    3.9926   22.7172 C.ar    1  UNL1        0.0130
     26 C           0.2672    3.7690   19.7067 C.3     1  UNL1        0.1274
     27 C           0.0609    5.0190   18.9034 C.3     1  UNL1        0.0312
     28 C           1.1897    2.6983   19.2041 C.ar    1  UNL1       -0.0001
     29 C           0.6394    1.3615   18.8036 C.ar    1  UNL1       -0.0023
     30 C           1.5619    0.2908   18.3010 C.ar    1  UNL1        0.0042
     31 C           3.0346    0.5569   18.1990 C.ar    1  UNL1        0.0533
     32 C           3.5849    1.8936   18.5994 C.ar    1  UNL1        0.0042
     33 C           2.6624    2.9643   19.1020 C.ar    1  UNL1       -0.0023
     34 C           3.9570   -0.5139   17.6964 C.2     1  UNL1        0.2459
     35 O           3.8774   -0.9623   16.2671 O.2     1  UNL1       -0.2701
     36 N           4.9591   -1.1362   18.6230 N.am    1  UNL1       -0.3005
     37 H           5.0113   -0.8419   19.5610 H       1  UNL1        0.1498
     38 C           5.8815   -2.2070   18.1204 C.3     1  UNL1        0.0956
     39 C           5.9411   -3.5337   18.8177 C.3     1  UNL1        0.0629
     40 C           4.6943   -4.3514   18.9817 C.2     1  UNL1        0.0520
     41 O           4.7728   -5.8493   18.9695 O.co2   1  UNL1       -0.5491
     42 O           3.3690   -3.6713   19.1579 O.co2   1  UNL1       -0.5491
@<TRIPOS>UNITY_ATOM_ATTR
41 1
charge -1
@<TRIPOS>BOND
     1    16    17    1
     2    17     6    1
     3     6     7   ar
     4     7     8   ar
     5     8     9   ar
     6     9    10   ar
     7    10    11   ar
     8    11     1    1
     9     1     2   ar
    10     2     3   ar
    11     3    18    1
    12    18    19   ar
    13    19    20   ar
    14    20    21    1
    15    20    22   ar
    16    22    23   ar
    17    23    24    1
    18    23    25   ar
    19     3     4   ar
    20     4     5   ar
    21     5    26    1
    22    26    27    1
    23    26    28    1
    24    28    29   ar
    25    29    30   ar
    26    30    31   ar
    27    31    34    1
    28    34    35    2
    29    34    36   am
    30    36    38    1
    31    38    39    1
    32    39    40    1
    33    40    41   ar
    34    40    42   ar
    35    31    32   ar
    36    32    33   ar
    37    11    12   ar
    38    12    13   ar
    39    13    14   ar
    40    14    15   ar
    41    15     6   ar
    42    14     9   ar
    43     5     1   ar
    44    33    28   ar
    45    25    18   ar
    46    36    37    1
@<TRIPOS>MOLECULE
*****
 42 46 0 0 0
SMALL
GASTEIGER

@<TRIPOS>ATOM
      1 C          -0.9236    3.0758   25.2807 C.ar    1  UNL1        0.0797
      2 C          -2.3943    3.2546   25.0463 C.ar    1  UNL1        0.0396
      3 C          -2.6077    3.4615   23.5760 C.ar    1  UNL1        0.1024
      4 N          -1.2687    3.4106   22.9017 N.ar    1  UNL1       -0.1691
      5 N          -0.2279    3.1722   23.9552 N.ar    1  UNL1       -0.2487
      6 C           2.2200    0.7728   30.9432 C.ar    1  UNL1        0.1387
      7 C           2.0671   -0.3596   29.9715 C.ar    1  UNL1        0.0369
      8 C           1.4078   -0.1255   28.6447 C.ar    1  UNL1        0.0031
      9 C           0.9014    1.2410   28.2895 C.ar    1  UNL1        0.0002
     10 C           0.2421    1.4751   26.9627 C.ar    1  UNL1        0.0015
     11 C          -0.2643    2.8417   26.6075 C.ar    1  UNL1        0.0174
     12 C          -0.1113    3.9742   27.5792 C.ar    1  UNL1        0.0015
     13 C           0.5480    3.7401   28.9061 C.ar    1  UNL1        0.0001
     14 C           1.0544    2.3735   29.2612 C.ar    1  UNL1        0.0030
     15 C           1.7137    2.1394   30.5880 C.ar    1  UNL1        0.0369
     16 C           3.7446   -0.6693   32.4748 C.3     1  UNL1        0.2525
     17 O           2.8793    0.5387   32.2700 O.3     1  UNL1       -0.4714
     18 C          -3.9280    3.6808   22.8989 C.ar    1  UNL1        0.0211
     19 C          -5.1275    4.0807   23.7059 C.ar    1  UNL1        0.0130
     20 C          -6.4478    4.3000   23.0287 C.ar    1  UNL1        0.0586
     21 CL         -7.6474    4.7000   23.8357 Cl      1  UNL1       -0.0822
     22 C          -6.5687    4.1194   21.5445 C.ar    1  UNL1        0.0228
     23 C          -5.3692    3.7194   20.7375 C.ar    1  UNL1        0.0586
     24 CL         -5.4900    3.5388   19.2534 Cl      1  UNL1       -0.0822
     25 C          -4.0488    3.5001   21.4147 C.ar    1  UNL1        0.0130
     26 C           1.2492    3.0514   23.7239 C.3     1  UNL1        0.1274
     27 C           2.1640    4.1738   24.1158 C.3     1  UNL1        0.0312
     28 C           1.8117    1.8083   23.1008 C.ar    1  UNL1       -0.0001
     29 C           1.9551    1.7153   21.6105 C.ar    1  UNL1       -0.0023
     30 C           2.5176    0.4723   20.9873 C.ar    1  UNL1        0.0042
     31 C           2.9367   -0.6778   21.8544 C.ar    1  UNL1        0.0533
     32 C           2.7933   -0.5848   23.3446 C.ar    1  UNL1        0.0042
     33 C           2.2308    0.6582   23.9678 C.ar    1  UNL1       -0.0023
     34 C           3.4992   -1.9208   21.2311 C.2     1  UNL1        0.2459
     35 O           4.4406   -2.7907   22.0105 O.2     1  UNL1       -0.2701
     36 N           3.1204   -2.2940   19.8285 N.am    1  UNL1       -0.3005
     37 H           2.5026   -1.7231   19.3170 H       1  UNL1        0.1498
     38 C           3.6829   -3.5371   19.2053 C.3     1  UNL1        0.0956
     39 C           5.0822   -3.5380   18.6651 C.3     1  UNL1        0.0629
     40 C           5.5459   -2.4180   17.7816 C.2     1  UNL1        0.0520
     41 O           4.5500   -1.4555   17.2057 O.co2   1  UNL1       -0.5491
     42 O           7.0055   -2.2605   17.4739 O.co2   1  UNL1       -0.5491
@<TRIPOS>UNITY_ATOM_ATTR
41 1
charge -1
@<TRIPOS>BOND
     1    16    17    1
     2    17     6    1
     3     6     7   ar
     4     7     8   ar
     5     8     9   ar
     6     9    10   ar
     7    10    11   ar
     8    11     1    1
     9     1     2   ar
    10     2     3   ar
    11     3    18    1
    12    18    19   ar
    13    19    20   ar
    14    20    21    1
    15    20    22   ar
    16    22    23   ar
    17    23    24    1
    18    23    25   ar
    19     3     4   ar
    20     4     5   ar
    21     5    26    1
    22    26    27    1
    23    26    28    1
    24    28    29   ar
    25    29    30   ar
    26    30    31   ar
    27    31    34    1
    28    34    35    2
    29    34    36   am
    30    36    38    1
    31    38    39    1
    32    39    40    1
    33    40    41   ar
    34    40    42   ar
    35    31    32   ar
    36    32    33   ar
    37    11    12   ar
    38    12    13   ar
    39    13    14   ar
    40    14    15   ar
    41    15     6   ar
    42    14     9   ar
    43     5     1   ar
    44    33    28   ar
    45    25    18   ar
    46    36    37    1
@<TRIPOS>MOLECULE
*****
 42 46 0 0 0
SMALL
GASTEIGER

@<TRIPOS>ATOM
      1 C          -0.3385    3.0738   21.1677 C.ar    1  UNL1        0.0797
      2 C          -1.6188    3.2231   21.9348 C.ar    1  UNL1        0.0396
      3 C          -2.6552    3.7787   21.0036 C.ar    1  UNL1        0.1024
      4 N          -2.0154    3.9728   19.6608 N.ar    1  UNL1       -0.1691
      5 N          -0.5836    3.5371   19.7622 N.ar    1  UNL1       -0.2487
      6 C           5.1220   -0.4861   23.3495 C.ar    1  UNL1        0.1387
      7 C           4.0947   -1.4403   22.8165 C.ar    1  UNL1        0.0369
      8 C           2.7972   -0.9192   22.2736 C.ar    1  UNL1        0.0031
      9 C           2.5269    0.5562   22.2636 C.ar    1  UNL1        0.0002
     10 C           1.2293    1.0773   21.7206 C.ar    1  UNL1        0.0015
     11 C           0.9590    2.5527   21.7107 C.ar    1  UNL1        0.0174
     12 C           1.9863    3.5070   22.2437 C.ar    1  UNL1        0.0015
     13 C           3.2838    2.9859   22.7866 C.ar    1  UNL1        0.0001
     14 C           3.5541    1.5104   22.7966 C.ar    1  UNL1        0.0030
     15 C           4.8517    0.9893   23.3395 C.ar    1  UNL1        0.0369
     16 C           6.9777   -2.3040   23.3859 C.3     1  UNL1        0.2525
     17 O           6.4195   -1.0072   23.8925 O.3     1  UNL1       -0.4714
     18 C          -4.0810    4.0862   21.3535 C.ar    1  UNL1        0.0211
     19 C          -4.5235    4.0619   22.7865 C.ar    1  UNL1        0.0130
     20 C          -5.9494    4.3694   23.1363 C.ar    1  UNL1        0.0586
     21 CL         -6.3920    4.3451   24.5694 Cl      1  UNL1       -0.0822
     22 C          -6.9326    4.7013   22.0532 C.ar    1  UNL1        0.0228
     23 C          -6.4900    4.7256   20.6202 C.ar    1  UNL1        0.0586
     24 CL         -7.4733    5.0574   19.5371 Cl      1  UNL1       -0.0822
     25 C          -5.0642    4.4180   20.2703 C.ar    1  UNL1        0.0130
     26 C           0.4258    3.5607   18.6530 C.3     1  UNL1        0.1274
     27 C           0.3951    4.6612   17.6341 C.3     1  UNL1        0.0312
     28 C           1.4661    2.4838   18.5625 C.ar    1  UNL1       -0.0001
     29 C           1.0557    1.0648   18.3011 C.ar    1  UNL1       -0.0023
     30 C           2.0959   -0.0121   18.2105 C.ar    1  UNL1        0.0042
     31 C           3.5464    0.3299   18.3814 C.ar    1  UNL1        0.0533
     32 C           3.9567    1.7488   18.6428 C.ar    1  UNL1        0.0042
     33 C           2.9166    2.8257   18.7333 C.ar    1  UNL1       -0.0023
     34 C           4.5865   -0.7471   18.2908 C.2     1  UNL1        0.2459
     35 O           4.8348   -1.4421   16.9849 O.2     1  UNL1       -0.2701
     36 N           5.3784   -1.1291   19.5062 N.am    1  UNL1       -0.3005
     37 H           5.2155   -0.6729   20.3633 H       1  UNL1        0.1498
     38 C           6.4186   -2.2060   19.4156 C.3     1  UNL1        0.0956
     39 C           6.1205   -3.5821   19.9330 C.3     1  UNL1        0.0629
     40 C           4.8254   -4.2517   19.5803 C.2     1  UNL1        0.0520
     41 O           3.5267   -3.5313   19.7914 O.co2   1  UNL1       -0.5491
     42 O           4.8289   -5.6417   19.0166 O.co2   1  UNL1       -0.5491
@<TRIPOS>UNITY_ATOM_ATTR
41 1
charge -1
@<TRIPOS>BOND
     1    16    17    1
     2    17     6    1
     3     6     7   ar
     4     7     8   ar
     5     8     9   ar
     6     9    10   ar
     7    10    11   ar
     8    11     1    1
     9     1     2   ar
    10     2     3   ar
    11     3    18    1
    12    18    19   ar
    13    19    20   ar
    14    20    21    1
    15    20    22   ar
    16    22    23   ar
    17    23    24    1
    18    23    25   ar
    19     3     4   ar
    20     4     5   ar
    21     5    26    1
    22    26    27    1
    23    26    28    1
    24    28    29   ar
    25    29    30   ar
    26    30    31   ar
    27    31    34    1
    28    34    35    2
    29    34    36   am
    30    36    38    1
    31    38    39    1
    32    39    40    1
    33    40    41   ar
    34    40    42   ar
    35    31    32   ar
    36    32    33   ar
    37    11    12   ar
    38    12    13   ar
    39    13    14   ar
    40    14    15   ar
    41    15     6   ar
    42    14     9   ar
    43     5     1   ar
    44    33    28   ar
    45    25    18   ar
    46    36    37    1
@<TRIPOS>MOLECULE
*****
 42 46 0 0 0
SMALL
GASTEIGER

@<TRIPOS>ATOM
      1 C           0.1446    2.1201   27.0938 C.ar    1  UNL1        0.0797
      2 C          -1.3168    2.4516   27.1584 C.ar    1  UNL1        0.0396
      3 C          -1.7017    3.1046   25.8640 C.ar    1  UNL1        0.1024
      4 N          -0.4780    3.1767   24.9994 N.ar    1  UNL1       -0.1691
      5 N           0.6631    2.5682   25.7595 N.ar    1  UNL1       -0.2487
      6 C           3.4787    0.1156   32.7610 C.ar    1  UNL1        0.1387
      7 C           2.8017    1.4273   33.0276 C.ar    1  UNL1        0.0369
      8 C           1.9995    2.0905   31.9475 C.ar    1  UNL1        0.0031
      9 C           1.8743    1.4421   30.6008 C.ar    1  UNL1        0.0002
     10 C           1.0721    2.1053   29.5207 C.ar    1  UNL1        0.0015
     11 C           0.9468    1.4568   28.1739 C.ar    1  UNL1        0.0174
     12 C           1.6238    0.1451   27.9072 C.ar    1  UNL1        0.0015
     13 C           2.4260   -0.5182   28.9873 C.ar    1  UNL1        0.0001
     14 C           2.5513    0.1304   30.3341 C.ar    1  UNL1        0.0030
     15 C           3.3535   -0.5328   31.4142 C.ar    1  UNL1        0.0369
     16 C           4.2511   -2.0400   33.9884 C.3     1  UNL1        0.2525
     17 O           4.2809   -0.5476   33.8411 O.3     1  UNL1       -0.4714
     18 C          -3.0698    3.5988   25.4983 C.ar    1  UNL1        0.0211
     19 C          -3.6332    3.3095   24.1386 C.ar    1  UNL1        0.0130
     20 C          -5.0014    3.8037   23.7730 C.ar    1  UNL1        0.0586
     21 CL         -5.5648    3.5145   22.4132 Cl      1  UNL1       -0.0822
     22 C          -5.8063    4.5873   24.7671 C.ar    1  UNL1        0.0228
     23 C          -5.2429    4.8766   26.1269 C.ar    1  UNL1        0.0586
     24 CL         -6.0478    5.6601   27.1210 Cl      1  UNL1       -0.0822
     25 C          -3.8747    4.3823   26.4925 C.ar    1  UNL1        0.0130
     26 C           2.0747    2.4318   25.2710 C.3     1  UNL1        0.1274
     27 C           3.1093    3.4396   25.6763 C.3     1  UNL1        0.0312
     28 C           2.4519    1.2878   24.3773 C.ar    1  UNL1       -0.0001
     29 C           2.0074    1.2771   22.9446 C.ar    1  UNL1       -0.0023
     30 C           2.3845    0.1331   22.0508 C.ar    1  UNL1        0.0042
     31 C           3.2063   -1.0003   22.5896 C.ar    1  UNL1        0.0533
     32 C           3.6509   -0.9896   24.0221 C.ar    1  UNL1        0.0042
     33 C           3.2737    0.1544   24.9160 C.ar    1  UNL1       -0.0023
     34 C           3.5835   -2.1443   21.6958 C.2     1  UNL1        0.2459
     35 O           4.3324   -3.3176   22.2549 O.2     1  UNL1       -0.2701
     36 N           3.2118   -2.1150   20.2428 N.am    1  UNL1       -0.3005
     37 H           2.7203   -1.3449   19.8759 H       1  UNL1        0.1498
     38 C           3.5889   -3.2590   19.3490 C.3     1  UNL1        0.0956
     39 C           4.9768   -3.3454   18.7865 C.3     1  UNL1        0.0629
     40 C           5.4531   -2.3172   17.8038 C.2     1  UNL1        0.0520
     41 O           4.4807   -1.3443   17.2055 O.co2   1  UNL1       -0.5491
     42 O           6.9019   -2.2617   17.4192 O.co2   1  UNL1       -0.5491
@<TRIPOS>UNITY_ATOM_ATTR
41 1
charge -1
@<TRIPOS>BOND
     1    16    17    1
     2    17     6    1
     3     6     7   ar
     4     7     8   ar
     5     8     9   ar
     6     9    10   ar
     7    10    11   ar
     8    11     1    1
     9     1     2   ar
    10     2     3   ar
    11     3    18    1
    12    18    19   ar
    13    19    20   ar
    14    20    21    1
    15    20    22   ar
    16    22    23   ar
    17    23    24    1
    18    23    25   ar
    19     3     4   ar
    20     4     5   ar
    21     5    26    1
    22    26    27    1
    23    26    28    1
    24    28    29   ar
    25    29    30   ar
    26    30    31   ar
    27    31    34    1
    28    34    35    2
    29    34    36   am
    30    36    38    1
    31    38    39    1
    32    39    40    1
    33    40    41   ar
    34    40    42   ar
    35    31    32   ar
    36    32    33   ar
    37    11    12   ar
    38    12    13   ar
    39    13    14   ar
    40    14    15   ar
    41    15     6   ar
    42    14     9   ar
    43     5     1   ar
    44    33    28   ar
    45    25    18   ar
    46    36    37    1
@<TRIPOS>MOLECULE
*****
 42 46 0 0 0
SMALL
GASTEIGER

@<TRIPOS>ATOM
      1 C          -0.4804    2.6570   21.1028 C.ar    1  UNL1        0.0797
      2 C          -1.9052    2.7992   20.6558 C.ar    1  UNL1        0.0396
      3 C          -2.6644    3.5001   21.7432 C.ar    1  UNL1        0.1024
      4 N          -1.7089    3.7910   22.8623 N.ar    1  UNL1       -0.1691
      5 N          -0.3590    3.2699   22.4665 N.ar    1  UNL1       -0.2487
      6 C           4.2763   -1.3626   18.1931 C.ar    1  UNL1        0.1387
      7 C           3.4893   -2.1703   19.1823 C.ar    1  UNL1        0.0369
      8 C           2.3806   -1.5279   19.9620 C.ar    1  UNL1        0.0031
      9 C           2.0588   -0.0778   19.7526 C.ar    1  UNL1        0.0002
     10 C           0.9501    0.5646   20.5324 C.ar    1  UNL1        0.0015
     11 C           0.6283    2.0146   20.3230 C.ar    1  UNL1        0.0174
     12 C           1.4153    2.8223   19.3339 C.ar    1  UNL1        0.0015
     13 C           2.5240    2.1799   18.5541 C.ar    1  UNL1        0.0001
     14 C           2.8458    0.7298   18.7635 C.ar    1  UNL1        0.0030
     15 C           3.9545    0.0874   17.9838 C.ar    1  UNL1        0.0369
     16 C           6.7133   -2.2537   18.0642 C.3     1  UNL1        0.2525
     17 O           5.3850   -2.0050   17.4134 O.3     1  UNL1       -0.4714
     18 C          -4.1230    3.8488   21.7163 C.ar    1  UNL1        0.0211
     19 C          -4.8508    4.1293   22.9976 C.ar    1  UNL1        0.0130
     20 C          -6.3095    4.4780   22.9706 C.ar    1  UNL1        0.0586
     21 CL         -7.0374    4.7585   24.2519 Cl      1  UNL1       -0.0822
     22 C          -7.0403    4.5463   21.6624 C.ar    1  UNL1        0.0228
     23 C          -6.3124    4.2658   20.3812 C.ar    1  UNL1        0.0586
     24 CL         -7.0432    4.3340   19.0730 Cl      1  UNL1       -0.0822
     25 C          -4.8538    3.9171   20.4082 C.ar    1  UNL1        0.0130
     26 C           0.8923    3.3481   23.2898 C.3     1  UNL1        0.1274
     27 C           1.1366    4.5363   24.1722 C.3     1  UNL1        0.0312
     28 C           1.8995    2.2382   23.2308 C.ar    1  UNL1       -0.0001
     29 C           1.5784    0.9014   23.8310 C.ar    1  UNL1       -0.0023
     30 C           2.5856   -0.2086   23.7721 C.ar    1  UNL1        0.0042
     31 C           3.9138    0.0181   23.1130 C.ar    1  UNL1        0.0533
     32 C           4.2350    1.3548   22.5129 C.ar    1  UNL1        0.0042
     33 C           3.2278    2.4648   22.5718 C.ar    1  UNL1       -0.0023
     34 C           4.9210   -1.0919   23.0541 C.2     1  UNL1        0.2459
     35 O           6.3790   -0.7925   23.2406 O.2     1  UNL1       -0.2701
     36 N           4.4702   -2.5014   22.8087 N.am    1  UNL1       -0.3005
     37 H           3.5133   -2.6979   22.6863 H       1  UNL1        0.1498
     38 C           5.4774   -3.6114   22.7498 C.3     1  UNL1        0.0956
     39 C           6.2080   -3.8941   21.4706 C.3     1  UNL1        0.0629
     40 C           7.6817   -4.1726   21.4944 C.2     1  UNL1        0.0520
     41 O           8.1855   -5.5662   21.2620 O.co2   1  UNL1       -0.5491
     42 O           8.6517   -3.0575   21.7507 O.co2   1  UNL1       -0.5491
@<TRIPOS>UNITY_ATOM_ATTR
41 1
charge -1
@<TRIPOS>BOND
     1    16    17    1
     2    17     6    1
     3     6     7   ar
     4     7     8   ar
     5     8     9   ar
     6     9    10   ar
     7    10    11   ar
     8    11     1    1
     9     1     2   ar
    10     2     3   ar
    11     3    18    1
    12    18    19   ar
    13    19    20   ar
    14    20    21    1
    15    20    22   ar
    16    22    23   ar
    17    23    24    1
    18    23    25   ar
    19     3     4   ar
    20     4     5   ar
    21     5    26    1
    22    26    27    1
    23    26    28    1
    24    28    29   ar
    25    29    30   ar
    26    30    31   ar
    27    31    34    1
    28    34    35    2
    29    34    36   am
    30    36    38    1
    31    38    39    1
    32    39    40    1
    33    40    41   ar
    34    40    42   ar
    35    31    32   ar
    36    32    33   ar
    37    11    12   ar
    38    12    13   ar
    39    13    14   ar
    40    14    15   ar
    41    15     6   ar
    42    14     9   ar
    43     5     1   ar
    44    33    28   ar
    45    25    18   ar
    46    36    37    1
@<TRIPOS>MOLECULE
*****
 42 46 0 0 0
SMALL
GASTEIGER

@<TRIPOS>ATOM
      1 C          -0.0378    2.9503   20.2813 C.ar    1  UNL1        0.0797
      2 C          -1.3098    3.3495   19.5938 C.ar    1  UNL1        0.0396
      3 C          -2.3887    3.4417   20.6319 C.ar    1  UNL1        0.1024
      4 N          -1.7834    3.0994   21.9610 N.ar    1  UNL1       -0.1691
      5 N          -0.3305    2.7957   21.7444 N.ar    1  UNL1       -0.2487
      6 C           5.6372    0.7772   17.0686 C.ar    1  UNL1        0.1387
      7 C           4.6573   -0.3552   17.1542 C.ar    1  UNL1        0.0369
      8 C           3.3263   -0.1471   17.8139 C.ar    1  UNL1        0.0031
      9 C           2.9752    1.1934   18.3879 C.ar    1  UNL1        0.0002
     10 C           1.6442    1.4016   19.0476 C.ar    1  UNL1        0.0015
     11 C           1.2931    2.7421   19.6216 C.ar    1  UNL1        0.0174
     12 C           2.2730    3.8747   19.5360 C.ar    1  UNL1        0.0015
     13 C           3.6040    3.6665   18.8764 C.ar    1  UNL1        0.0001
     14 C           3.9551    2.3259   18.3023 C.ar    1  UNL1        0.0030
     15 C           5.2861    2.1177   17.6426 C.ar    1  UNL1        0.0369
     16 C           7.9020    1.7279   16.2221 C.3     1  UNL1        0.2525
     17 O           6.9682    0.5691   16.4089 O.3     1  UNL1       -0.4714
     18 C          -3.8211    3.8112   20.3844 C.ar    1  UNL1        0.0211
     19 C          -4.7927    3.8544   21.5264 C.ar    1  UNL1        0.0130
     20 C          -6.2252    4.2239   21.2788 C.ar    1  UNL1        0.0586
     21 CL         -7.1968    4.2671   22.4209 Cl      1  UNL1       -0.0822
     22 C          -6.6862    4.5503   19.8892 C.ar    1  UNL1        0.0228
     23 C          -5.7147    4.5071   18.7472 C.ar    1  UNL1        0.0586
     24 CL         -6.1756    4.8335   17.3576 Cl      1  UNL1       -0.0822
     25 C          -4.2821    4.1376   18.9948 C.ar    1  UNL1        0.0130
     26 C           0.6563    2.4059   22.8046 C.3     1  UNL1        0.1274
     27 C           0.4569    2.8628   24.2194 C.3     1  UNL1        0.0312
     28 C           1.8426    1.5591   22.4502 C.ar    1  UNL1       -0.0001
     29 C           1.6603    0.1006   22.1507 C.ar    1  UNL1       -0.0023
     30 C           2.8466   -0.7463   21.7963 C.ar    1  UNL1        0.0042
     31 C           4.2151   -0.1346   21.7414 C.ar    1  UNL1        0.0533
     32 C           4.3975    1.3238   22.0409 C.ar    1  UNL1        0.0042
     33 C           3.2112    2.1707   22.3953 C.ar    1  UNL1       -0.0023
     34 C           5.4014   -0.9815   21.3870 C.2     1  UNL1        0.2459
     35 O           6.4072   -0.4844   20.3913 O.2     1  UNL1       -0.2701
     36 N           5.5819   -2.3255   22.0282 N.am    1  UNL1       -0.3005
     37 H           4.9217   -2.6517   22.6817 H       1  UNL1        0.1498
     38 C           6.7681   -3.1723   21.6738 C.3     1  UNL1        0.0956
     39 C           6.7139   -4.0763   20.4781 C.3     1  UNL1        0.0629
     40 C           5.4413   -4.2088   19.6951 C.2     1  UNL1        0.0520
     41 O           4.2505   -4.8842   20.3079 O.co2   1  UNL1       -0.5491
     42 O           5.3596   -3.6659   18.2992 O.co2   1  UNL1       -0.5491
@<TRIPOS>UNITY_ATOM_ATTR
41 1
charge -1
@<TRIPOS>BOND
     1    16    17    1
     2    17     6    1
     3     6     7   ar
     4     7     8   ar
     5     8     9   ar
     6     9    10   ar
     7    10    11   ar
     8    11     1    1
     9     1     2   ar
    10     2     3   ar
    11     3    18    1
    12    18    19   ar
    13    19    20   ar
    14    20    21    1
    15    20    22   ar
    16    22    23   ar
    17    23    24    1
    18    23    25   ar
    19     3     4   ar
    20     4     5   ar
    21     5    26    1
    22    26    27    1
    23    26    28    1
    24    28    29   ar
    25    29    30   ar
    26    30    31   ar
    27    31    34    1
    28    34    35    2
    29    34    36   am
    30    36    38    1
    31    38    39    1
    32    39    40    1
    33    40    41   ar
    34    40    42   ar
    35    31    32   ar
    36    32    33   ar
    37    11    12   ar
    38    12    13   ar
    39    13    14   ar
    40    14    15   ar
    41    15     6   ar
    42    14     9   ar
    43     5     1   ar
    44    33    28   ar
    45    25    18   ar
    46    36    37    1
@<TRIPOS>MOLECULE
*****
 42 46 0 0 0
SMALL
GASTEIGER

@<TRIPOS>ATOM
      1 C           0.1262    2.8457   21.0821 C.ar    1  UNL1        0.0797
      2 C          -1.2417    2.9553   21.6877 C.ar    1  UNL1        0.0396
      3 C          -2.1682    3.5046   20.6438 C.ar    1  UNL1        0.1024
      4 N          -1.3729    3.7345   19.3929 N.ar    1  UNL1       -0.1691
      5 N           0.0452    3.3272   19.6637 N.ar    1  UNL1       -0.2487
      6 C           5.3359   -0.6384   23.9053 C.ar    1  UNL1        0.1387
      7 C           4.3826   -1.6081   23.2722 C.ar    1  UNL1        0.0369
      8 C           3.1500   -1.1053   22.5810 C.ar    1  UNL1        0.0031
      9 C           2.8707    0.3673   22.5228 C.ar    1  UNL1        0.0002
     10 C           1.6381    0.8702   21.8315 C.ar    1  UNL1        0.0015
     11 C           1.3588    2.3428   21.7734 C.ar    1  UNL1        0.0174
     12 C           2.3121    3.3126   22.4065 C.ar    1  UNL1        0.0015
     13 C           3.5447    2.8097   23.0978 C.ar    1  UNL1        0.0001
     14 C           3.8240    1.3370   23.1559 C.ar    1  UNL1        0.0030
     15 C           5.0566    0.8342   23.8472 C.ar    1  UNL1        0.0369
     16 C           7.8550   -1.2703   23.8362 C.3     1  UNL1        0.2525
     17 O           6.5684   -1.1413   24.5966 O.3     1  UNL1       -0.4714
     18 C          -3.6328    3.7764   20.8197 C.ar    1  UNL1        0.0211
     19 C          -4.5785    3.5598   19.6758 C.ar    1  UNL1        0.0130
     20 C          -6.0431    3.8316   19.8518 C.ar    1  UNL1        0.0586
     21 CL         -6.9890    3.6149   18.7078 Cl      1  UNL1       -0.0822
     22 C          -6.5620    4.3200   21.1718 C.ar    1  UNL1        0.0228
     23 C          -5.6163    4.5366   22.3157 C.ar    1  UNL1        0.0586
     24 CL         -6.1351    5.0250   23.6356 Cl      1  UNL1       -0.0822
     25 C          -4.1516    4.2648   22.1397 C.ar    1  UNL1        0.0130
     26 C           1.1824    3.3904   18.6877 C.3     1  UNL1        0.1274
     27 C           1.3182    4.5689   17.7696 C.3     1  UNL1        0.0312
     28 C           2.1839    2.2752   18.6297 C.ar    1  UNL1       -0.0001
     29 C           3.6322    2.5529   18.9047 C.ar    1  UNL1       -0.0023
     30 C           4.6338    1.4378   18.8467 C.ar    1  UNL1        0.0042
     31 C           4.1871    0.0451   18.5137 C.ar    1  UNL1        0.0533
     32 C           2.7389   -0.2326   18.2387 C.ar    1  UNL1        0.0042
     33 C           1.7373    0.8825   18.2967 C.ar    1  UNL1       -0.0023
     34 C           5.1887   -1.0700   18.4557 C.2     1  UNL1        0.2459
     35 O           5.3110   -1.9046   17.2153 O.2     1  UNL1       -0.2701
     36 N           6.0681   -1.3505   19.6381 N.am    1  UNL1       -0.3005
     37 H           5.9878   -0.8028   20.4522 H       1  UNL1        0.1498
     38 C           7.0697   -2.4656   19.5801 C.3     1  UNL1        0.0956
     39 C           7.4226   -3.2223   20.8263 C.3     1  UNL1        0.0629
     40 C           6.3714   -4.0141   21.5460 C.2     1  UNL1        0.0520
     41 O           5.0339   -4.2410   20.9061 O.co2   1  UNL1       -0.5491
     42 O           6.6577   -4.5790   22.9057 O.co2   1  UNL1       -0.5491
@<TRIPOS>UNITY_ATOM_ATTR
41 1
charge -1
@<TRIPOS>BOND
     1    16    17    1
     2    17     6    1
     3     6     7   ar
     4     7     8   ar
     5     8     9   ar
     6     9    10   ar
     7    10    11   ar
     8    11     1    1
     9     1     2   ar
    10     2     3   ar
    11     3    18    1
    12    18    19   ar
    13    19    20   ar
    14    20    21    1
    15    20    22   ar
    16    22    23   ar
    17    23    24    1
    18    23    25   ar
    19     3     4   ar
    20     4     5   ar
    21     5    26    1
    22    26    27    1
    23    26    28    1
    24    28    29   ar
    25    29    30   ar
    26    30    31   ar
    27    31    34    1
    28    34    35    2
    29    34    36   am
    30    36    38    1
    31    38    39    1
    32    39    40    1
    33    40    41   ar
    34    40    42   ar
    35    31    32   ar
    36    32    33   ar
    37    11    12   ar
    38    12    13   ar
    39    13    14   ar
    40    14    15   ar
    41    15     6   ar
    42    14     9   ar
    43     5     1   ar
    44    33    28   ar
    45    25    18   ar
    46    36    37    1
@<TRIPOS>MOLECULE
*****
 42 46 0 0 0
SMALL
GASTEIGER

@<TRIPOS>ATOM
      1 C          -2.0964    3.5860   23.2432 C.ar    1  UNL1        0.0797
      2 C          -2.0713    3.2349   24.7013 C.ar    1  UNL1        0.0396
      3 C          -0.6925    2.7493   25.0376 C.ar    1  UNL1        0.1024
      4 N           0.1346    2.8002   23.7873 N.ar    1  UNL1       -0.1691
      5 N          -0.7329    3.3174   22.6782 N.ar    1  UNL1       -0.2487
      6 C          -7.4155    4.8877   19.0884 C.ar    1  UNL1        0.1387
      7 C          -6.8296    3.5535   18.7327 C.ar    1  UNL1        0.0369
      8 C          -5.6486    3.0263   19.4925 C.ar    1  UNL1        0.0031
      9 C          -5.0535    3.8333   20.6080 C.ar    1  UNL1        0.0002
     10 C          -3.8725    3.3062   21.3678 C.ar    1  UNL1        0.0015
     11 C          -3.2774    4.1132   22.4834 C.ar    1  UNL1        0.0174
     12 C          -3.8633    5.4474   22.8392 C.ar    1  UNL1        0.0015
     13 C          -5.0443    5.9746   22.0794 C.ar    1  UNL1        0.0001
     14 C          -5.6394    5.1675   20.9638 C.ar    1  UNL1        0.0030
     15 C          -6.8204    5.6947   20.2040 C.ar    1  UNL1        0.0369
     16 C          -9.1544    6.7685   18.6544 C.3     1  UNL1        0.2525
     17 O          -8.5965    5.4148   18.3286 O.3     1  UNL1       -0.4714
     18 C          -0.2232    2.2928   26.3871 C.ar    1  UNL1        0.0211
     19 C           0.8920    3.0195   27.0787 C.ar    1  UNL1        0.0130
     20 C           1.3613    2.5630   28.4283 C.ar    1  UNL1        0.0586
     21 CL          2.4765    3.2897   29.1199 Cl      1  UNL1       -0.0822
     22 C           0.7154    1.3798   29.0863 C.ar    1  UNL1        0.0228
     23 C          -0.3998    0.6531   28.3947 C.ar    1  UNL1        0.0586
     24 CL         -1.0457   -0.5300   29.0527 Cl      1  UNL1       -0.0822
     25 C          -0.8691    1.1097   27.0451 C.ar    1  UNL1        0.0130
     26 C          -0.3113    3.5287   21.2544 C.3     1  UNL1        0.1274
     27 C          -0.7421    4.7638   20.5200 C.3     1  UNL1        0.0312
     28 C           0.5412    2.5052   20.5647 C.ar    1  UNL1       -0.0001
     29 C           1.8061    2.9240   19.8757 C.ar    1  UNL1       -0.0023
     30 C           2.6587    1.9005   19.1859 C.ar    1  UNL1        0.0042
     31 C           2.2463    0.4583   19.1853 C.ar    1  UNL1        0.0533
     32 C           0.9814    0.0395   19.8743 C.ar    1  UNL1        0.0042
     33 C           0.1289    1.0629   20.5641 C.ar    1  UNL1       -0.0023
     34 C           3.0988   -0.5651   18.4956 C.2     1  UNL1        0.2459
     35 O           3.3533   -0.4588   17.0211 O.2     1  UNL1       -0.2701
     36 N           3.6970   -1.6950   19.2803 N.am    1  UNL1       -0.3005
     37 H           3.5300   -1.7648   20.2480 H       1  UNL1        0.1498
     38 C           4.5495   -2.7184   18.5906 C.3     1  UNL1        0.0956
     39 C           4.2850   -4.1798   18.8010 C.3     1  UNL1        0.0629
     40 C           4.0037   -4.7002   20.1794 C.2     1  UNL1        0.0520
     41 O           3.3093   -6.0180   20.3564 O.co2   1  UNL1       -0.5491
     42 O           4.4168   -3.9029   21.3809 O.co2   1  UNL1       -0.5491
@<TRIPOS>UNITY_ATOM_ATTR
41 1
charge -1
@<TRIPOS>BOND
     1    16    17    1
     2    17     6    1
     3     6     7   ar
     4     7     8   ar
     5     8     9   ar
     6     9    10   ar
     7    10    11   ar
     8    11     1    1
     9     1     2   ar
    10     2     3   ar
    11     3    18    1
    12    18    19   ar
    13    19    20   ar
    14    20    21    1
    15    20    22   ar
    16    22    23   ar
    17    23    24    1
    18    23    25   ar
    19     3     4   ar
    20     4     5   ar
    21     5    26    1
    22    26    27    1
    23    26    28    1
    24    28    29   ar
    25    29    30   ar
    26    30    31   ar
    27    31    34    1
    28    34    35    2
    29    34    36   am
    30    36    38    1
    31    38    39    1
    32    39    40    1
    33    40    41   ar
    34    40    42   ar
    35    31    32   ar
    36    32    33   ar
    37    11    12   ar
    38    12    13   ar
    39    13    14   ar
    40    14    15   ar
    41    15     6   ar
    42    14     9   ar
    43     5     1   ar
    44    33    28   ar
    45    25    18   ar
    46    36    37    1
@<TRIPOS>MOLECULE
*****
 42 46 0 0 0
SMALL
GASTEIGER

@<TRIPOS>ATOM
      1 C           0.0569    2.4829   27.3157 C.ar    1  UNL1        0.0797
      2 C          -1.1677    2.3686   26.4571 C.ar    1  UNL1        0.0396
      3 C          -1.9845    3.6124   26.6466 C.ar    1  UNL1        0.1024
      4 N          -1.2647    4.4954   27.6224 N.ar    1  UNL1       -0.1691
      5 N          -0.0030    3.7974   28.0359 N.ar    1  UNL1       -0.2487
      6 C           5.6367   -1.5104   26.9032 C.ar    1  UNL1        0.1387
      7 C           5.7528   -0.3994   25.9021 C.ar    1  UNL1        0.0369
      8 C           4.6601    0.6214   25.7844 C.ar    1  UNL1        0.0031
      9 C           3.4512    0.5313   26.6678 C.ar    1  UNL1        0.0002
     10 C           2.3585    1.5522   26.5500 C.ar    1  UNL1        0.0015
     11 C           1.1496    1.4621   27.4334 C.ar    1  UNL1        0.0174
     12 C           1.0334    0.3511   28.4346 C.ar    1  UNL1        0.0015
     13 C           2.1261   -0.6697   28.5524 C.ar    1  UNL1        0.0001
     14 C           3.3351   -0.5796   27.6689 C.ar    1  UNL1        0.0030
     15 C           4.4278   -1.6004   27.7866 C.ar    1  UNL1        0.0369
     16 C           6.6712   -3.5710   28.1004 C.3     1  UNL1        0.2525
     17 O           6.7294   -2.5312   27.0210 O.3     1  UNL1       -0.4714
     18 C          -3.2916    3.9192   25.9779 C.ar    1  UNL1        0.0211
     19 C          -4.3146    4.7609   26.6814 C.ar    1  UNL1        0.0130
     20 C          -5.6217    5.0677   26.0126 C.ar    1  UNL1        0.0586
     21 CL         -6.6448    5.9094   26.7162 Cl      1  UNL1       -0.0822
     22 C          -5.9058    4.5329   24.6403 C.ar    1  UNL1        0.0228
     23 C          -4.8827    3.6913   23.9367 C.ar    1  UNL1        0.0586
     24 CL         -5.1668    3.1565   22.5644 Cl      1  UNL1       -0.0822
     25 C          -3.5756    3.3844   24.6056 C.ar    1  UNL1        0.0130
     26 C           1.0192    4.3218   29.0003 C.3     1  UNL1        0.1274
     27 C           1.4479    5.7577   28.9318 C.3     1  UNL1        0.0312
     28 C           1.6130    3.4104   30.0331 C.ar    1  UNL1       -0.0001
     29 C           0.7576    2.8791   31.1451 C.ar    1  UNL1       -0.0023
     30 C           1.3513    1.9677   32.1780 C.ar    1  UNL1        0.0042
     31 C           2.8002    1.5876   32.0990 C.ar    1  UNL1        0.0533
     32 C           3.6555    2.1189   30.9872 C.ar    1  UNL1        0.0042
     33 C           3.0619    3.0303   29.9542 C.ar    1  UNL1       -0.0023
     34 C           3.3938    0.6762   33.1320 C.2     1  UNL1        0.2459
     35 O           3.4879   -0.7973   32.8670 O.2     1  UNL1       -0.2701
     36 N           3.8933    1.2382   34.4299 N.am    1  UNL1       -0.3005
     37 H           3.8316    2.2053   34.6038 H       1  UNL1        0.1498
     38 C           4.4869    0.3269   35.4629 C.3     1  UNL1        0.0956
     39 C           4.2822    0.6120   36.9212 C.3     1  UNL1        0.0629
     40 C           3.4823    1.8075   37.3466 C.2     1  UNL1        0.0520
     41 O           2.1909    2.1305   36.6553 O.co2   1  UNL1       -0.5491
     42 O           3.9738    2.6799   38.4634 O.co2   1  UNL1       -0.5491
@<TRIPOS>UNITY_ATOM_ATTR
41 1
charge -1
@<TRIPOS>BOND
     1    16    17    1
     2    17     6    1
     3     6     7   ar
     4     7     8   ar
     5     8     9   ar
     6     9    10   ar
     7    10    11   ar
     8    11     1    1
     9     1     2   ar
    10     2     3   ar
    11     3    18    1
    12    18    19   ar
    13    19    20   ar
    14    20    21    1
    15    20    22   ar
    16    22    23   ar
    17    23    24    1
    18    23    25   ar
    19     3     4   ar
    20     4     5   ar
    21     5    26    1
    22    26    27    1
    23    26    28    1
    24    28    29   ar
    25    29    30   ar
    26    30    31   ar
    27    31    34    1
    28    34    35    2
    29    34    36   am
    30    36    38    1
    31    38    39    1
    32    39    40    1
    33    40    41   ar
    34    40    42   ar
    35    31    32   ar
    36    32    33   ar
    37    11    12   ar
    38    12    13   ar
    39    13    14   ar
    40    14    15   ar
    41    15     6   ar
    42    14     9   ar
    43     5     1   ar
    44    33    28   ar
    45    25    18   ar
    46    36    37    1
