@<TRIPOS>MOLECULE
*****
 20 21 0 0 0
SMALL
GASTEIGER

@<TRIPOS>ATOM
      1 C         -11.8734  -18.4687   23.2818 C.ar    1  UNL1        0.1418
      2 C         -10.5694  -19.1938   23.1276 C.ar    1  UNL1        0.0371
      3 C          -9.8136  -19.1113   21.8346 C.ar    1  UNL1        0.0061
      4 C         -10.3618  -18.3036   20.6957 C.ar    1  UNL1        0.0371
      5 C         -11.6658  -17.5785   20.8498 C.ar    1  UNL1        0.1418
      6 C         -12.4216  -17.6610   22.1429 C.ar    1  UNL1        0.0737
      7 C         -14.0995  -18.2558   24.6043 C.3     1  UNL1        0.2525
      8 O         -12.6292  -18.5512   24.5748 O.3     1  UNL1       -0.4713
      9 C          -8.5096  -19.8365   21.6804 C.2     1  UNL1        0.0035
     10 C          -7.3779  -19.1942   20.9343 C.2     1  UNL1        0.0420
     11 C          -6.0739  -19.9193   20.7801 C.2     1  UNL1        0.1957
     12 O          -6.0624  -21.3652   20.3808 O.2     1  UNL1       -0.2866
     13 C          -4.7815  -19.1986   21.0253 C.ar    1  UNL1        0.0420
     14 C          -4.4305  -18.7378   22.4089 C.ar    1  UNL1        0.0239
     15 C          -3.1380  -18.0171   22.6541 C.ar    1  UNL1        0.0990
     16 N          -2.1965  -17.7573   21.5157 N.ar    1  UNL1       -0.2423
     17 C          -2.5475  -18.2181   20.1320 C.ar    1  UNL1        0.0990
     18 C          -3.8399  -18.9388   19.8868 C.ar    1  UNL1        0.0239
     19 O         -12.2141  -16.7708   19.7109 O.3     1  UNL1       -0.4713
     20 C         -11.4257  -15.6199   19.1598 C.3     1  UNL1        0.2525
@<TRIPOS>BOND
     1     7     8    1
     2     8     1    1
     3     1     2   ar
     4     2     3   ar
     5     3     9    1
     6     9    10    2
     7    10    11    1
     8    11    12    2
     9    11    13    1
    10    13    14   ar
    11    14    15   ar
    12    15    16   ar
    13    16    17   ar
    14    17    18   ar
    15     3     4   ar
    16     4     5   ar
    17     5    19    1
    18    19    20    1
    19     5     6   ar
    20     6     1   ar
    21    18    13   ar
@<TRIPOS>MOLECULE
*****
 20 21 0 0 0
SMALL
GASTEIGER

@<TRIPOS>ATOM
      1 C          -2.5795  -18.8746   20.3728 C.ar    1  UNL1        0.1418
      2 C          -3.9293  -19.2322   19.8251 C.ar    1  UNL1        0.0371
      3 C          -5.1313  -19.2155   20.7223 C.ar    1  UNL1        0.0061
      4 C          -4.9835  -18.8412   22.1672 C.ar    1  UNL1        0.0371
      5 C          -3.6337  -18.4836   22.7150 C.ar    1  UNL1        0.1418
      6 C          -2.4317  -18.5003   21.8178 C.ar    1  UNL1        0.0737
      7 C          -0.2583  -17.9190   19.7030 C.3     1  UNL1        0.2525
      8 O          -1.3776  -18.8913   19.4756 O.3     1  UNL1       -0.4713
      9 C          -6.4812  -19.5731   20.1744 C.2     1  UNL1        0.0035
     10 C          -7.7133  -18.9264   20.7346 C.2     1  UNL1        0.0420
     11 C          -9.0631  -19.2840   20.1869 C.2     1  UNL1        0.1957
     12 O          -9.1721  -20.1526   18.9687 O.2     1  UNL1       -0.2866
     13 C         -10.3039  -18.7730   20.8571 C.ar    1  UNL1        0.0420
     14 C         -11.1408  -17.7241   20.1867 C.ar    1  UNL1        0.0239
     15 C         -12.3816  -17.2131   20.8570 C.ar    1  UNL1        0.0990
     16 N         -12.7855  -17.7510   22.1977 N.ar    1  UNL1       -0.2423
     17 C         -11.9487  -18.7999   22.8682 C.ar    1  UNL1        0.0990
     18 C         -10.7078  -19.3109   22.1979 C.ar    1  UNL1        0.0239
     19 O          -3.4858  -18.1093   24.1601 O.3     1  UNL1       -0.4713
     20 C          -4.3371  -17.0210   24.7438 C.3     1  UNL1        0.2525
@<TRIPOS>BOND
     1     7     8    1
     2     8     1    1
     3     1     2   ar
     4     2     3   ar
     5     3     9    1
     6     9    10    2
     7    10    11    1
     8    11    12    2
     9    11    13    1
    10    13    14   ar
    11    14    15   ar
    12    15    16   ar
    13    16    17   ar
    14    17    18   ar
    15     3     4   ar
    16     4     5   ar
    17     5    19    1
    18    19    20    1
    19     5     6   ar
    20     6     1   ar
    21    18    13   ar
@<TRIPOS>MOLECULE
*****
 20 21 0 0 0
SMALL
GASTEIGER

@<TRIPOS>ATOM
      1 C         -12.5300  -18.1128   23.9420 C.ar    1  UNL1        0.1418
      2 C         -11.0533  -18.2163   24.1842 C.ar    1  UNL1        0.0371
      3 C         -10.0869  -17.7371   23.1419 C.ar    1  UNL1        0.0061
      4 C         -10.5972  -17.1543   21.8574 C.ar    1  UNL1        0.0371
      5 C         -12.0739  -17.0509   21.6152 C.ar    1  UNL1        0.1418
      6 C         -13.0403  -17.5301   22.6575 C.ar    1  UNL1        0.0737
      7 C         -14.9730  -18.4847   24.7440 C.3     1  UNL1        0.2525
      8 O         -13.4963  -18.5920   24.9844 O.3     1  UNL1       -0.4713
      9 C          -8.6102  -17.8406   23.3841 C.2     1  UNL1        0.0035
     10 C          -7.6464  -17.5768   22.2654 C.2     1  UNL1        0.0420
     11 C          -6.1697  -17.6803   22.5076 C.2     1  UNL1        0.1957
     12 O          -5.4950  -16.7253   23.4473 O.2     1  UNL1       -0.2866
     13 C          -5.3676  -18.7387   21.8101 C.ar    1  UNL1        0.0420
     14 C          -3.8913  -18.8432   22.0536 C.ar    1  UNL1        0.0239
     15 C          -3.0892  -19.9016   21.3561 C.ar    1  UNL1        0.0990
     16 N          -3.7635  -20.8555   20.4152 N.ar    1  UNL1       -0.2423
     17 C          -5.2400  -20.7510   20.1718 C.ar    1  UNL1        0.0990
     18 C          -6.0421  -19.6926   20.8692 C.ar    1  UNL1        0.0239
     19 O         -12.5842  -16.4681   20.3306 O.3     1  UNL1       -0.4713
     20 C         -11.6389  -15.7788   19.3919 C.3     1  UNL1        0.2525
@<TRIPOS>BOND
     1     7     8    1
     2     8     1    1
     3     1     2   ar
     4     2     3   ar
     5     3     9    1
     6     9    10    2
     7    10    11    1
     8    11    12    2
     9    11    13    1
    10    13    14   ar
    11    14    15   ar
    12    15    16   ar
    13    16    17   ar
    14    17    18   ar
    15     3     4   ar
    16     4     5   ar
    17     5    19    1
    18    19    20    1
    19     5     6   ar
    20     6     1   ar
    21    18    13   ar
@<TRIPOS>MOLECULE
*****
 20 21 0 0 0
SMALL
GASTEIGER

@<TRIPOS>ATOM
      1 C          -4.2566  -18.5617   22.7102 C.ar    1  UNL1        0.1418
      2 C          -5.6017  -18.8073   22.0935 C.ar    1  UNL1        0.0371
      3 C          -6.7373  -17.8677   22.3721 C.ar    1  UNL1        0.0061
      4 C          -6.5278  -16.6825   23.2673 C.ar    1  UNL1        0.0371
      5 C          -5.1827  -16.4369   23.8839 C.ar    1  UNL1        0.1418
      6 C          -4.0471  -17.3765   23.6054 C.ar    1  UNL1        0.0737
      7 C          -2.6158  -19.6724   21.0297 C.3     1  UNL1        0.2525
      8 O          -3.1210  -19.5012   22.4316 O.3     1  UNL1       -0.4713
      9 C          -8.0825  -18.1133   21.7554 C.2     1  UNL1        0.0035
     10 C          -8.2011  -18.9745   20.5329 C.2     1  UNL1        0.0420
     11 C          -9.5462  -19.2201   19.9162 C.2     1  UNL1        0.1957
     12 O          -9.7281  -20.3398   18.9347 O.2     1  UNL1       -0.2866
     13 C         -10.7094  -18.3462   20.2810 C.ar    1  UNL1        0.0420
     14 C         -10.9062  -17.0311   19.5868 C.ar    1  UNL1        0.0239
     15 C         -12.0695  -16.1572   19.9516 C.ar    1  UNL1        0.0990
     16 N         -13.0359  -16.5983   21.0105 N.ar    1  UNL1       -0.2423
     17 C         -12.8392  -17.9134   21.7047 C.ar    1  UNL1        0.0990
     18 C         -11.6759  -18.7873   21.3400 C.ar    1  UNL1        0.0239
     19 O          -4.9731  -15.2517   24.7792 O.3     1  UNL1       -0.4713
     20 C          -5.6434  -15.1967   26.1199 C.3     1  UNL1        0.2525
@<TRIPOS>BOND
     1     7     8    1
     2     8     1    1
     3     1     2   ar
     4     2     3   ar
     5     3     9    1
     6     9    10    2
     7    10    11    1
     8    11    12    2
     9    11    13    1
    10    13    14   ar
    11    14    15   ar
    12    15    16   ar
    13    16    17   ar
    14    17    18   ar
    15     3     4   ar
    16     4     5   ar
    17     5    19    1
    18    19    20    1
    19     5     6   ar
    20     6     1   ar
    21    18    13   ar
@<TRIPOS>MOLECULE
*****
 20 21 0 0 0
SMALL
GASTEIGER

@<TRIPOS>ATOM
      1 C         -11.0464   -5.7768   19.0344 C.ar    1  UNL1        0.1418
      2 C         -12.1841   -6.7531   18.9868 C.ar    1  UNL1        0.0371
      3 C         -13.5988   -6.2552   18.9548 C.ar    1  UNL1        0.0061
      4 C         -13.8756   -4.7811   18.9703 C.ar    1  UNL1        0.0371
      5 C         -12.7379   -3.8048   19.0179 C.ar    1  UNL1        0.1418
      6 C         -11.3232   -4.3027   19.0499 C.ar    1  UNL1        0.0737
      7 C          -9.3392   -7.7205   18.7949 C.3     1  UNL1        0.2525
      8 O          -9.6318   -6.2746   19.0664 O.3     1  UNL1       -0.4713
      9 C         -14.7366   -7.2316   18.9072 C.2     1  UNL1        0.0035
     10 C         -14.5186   -8.6112   18.3601 C.2     1  UNL1        0.0420
     11 C         -15.6563   -9.5875   18.3125 C.2     1  UNL1        0.1957
     12 O         -15.3820  -11.0502   18.1244 O.2     1  UNL1       -0.2866
     13 C         -17.0683   -9.1013   18.4530 C.ar    1  UNL1        0.0420
     14 C         -17.7352   -9.1127   19.7965 C.ar    1  UNL1        0.0239
     15 C         -19.1473   -8.6264   19.9371 C.ar    1  UNL1        0.0990
     16 N         -19.8923   -8.1288   18.7341 N.ar    1  UNL1       -0.2423
     17 C         -19.2254   -8.1173   17.3905 C.ar    1  UNL1        0.0990
     18 C         -17.8134   -8.6036   17.2500 C.ar    1  UNL1        0.0239
     19 O         -13.0147   -2.3306   19.0334 O.3     1  UNL1       -0.4713
     20 C         -11.8987   -1.3555   18.8020 C.3     1  UNL1        0.2525
@<TRIPOS>BOND
     1     7     8    1
     2     8     1    1
     3     1     2   ar
     4     2     3   ar
     5     3     9    1
     6     9    10    2
     7    10    11    1
     8    11    12    2
     9    11    13    1
    10    13    14   ar
    11    14    15   ar
    12    15    16   ar
    13    16    17   ar
    14    17    18   ar
    15     3     4   ar
    16     4     5   ar
    17     5    19    1
    18    19    20    1
    19     5     6   ar
    20     6     1   ar
    21    18    13   ar
@<TRIPOS>MOLECULE
*****
 20 21 0 0 0
SMALL
GASTEIGER

@<TRIPOS>ATOM
      1 C         -12.7725   -3.8344   18.5062 C.ar    1  UNL1        0.1418
      2 C         -13.8511   -4.8505   18.2738 C.ar    1  UNL1        0.0371
      3 C         -13.5352   -6.3140   18.3657 C.ar    1  UNL1        0.0061
      4 C         -12.1407   -6.7613   18.6899 C.ar    1  UNL1        0.0371
      5 C         -11.0621   -5.7452   18.9222 C.ar    1  UNL1        0.1418
      6 C         -11.3780   -4.2818   18.8304 C.ar    1  UNL1        0.0737
      7 C         -12.0369   -1.3543   18.7475 C.3     1  UNL1        0.2525
      8 O         -13.0883   -2.3709   18.4143 O.3     1  UNL1       -0.4713
      9 C         -14.6139   -7.3301   18.1333 C.2     1  UNL1        0.0035
     10 C         -14.5164   -8.6858   18.7678 C.2     1  UNL1        0.0420
     11 C         -15.5951   -9.7019   18.5354 C.2     1  UNL1        0.1957
     12 O         -15.2448  -11.0583   17.9991 O.2     1  UNL1       -0.2866
     13 C         -17.0240   -9.3617   18.8394 C.ar    1  UNL1        0.0420
     14 C         -18.1187   -9.8449   17.9349 C.ar    1  UNL1        0.0239
     15 C         -19.5477   -9.5046   18.2389 C.ar    1  UNL1        0.0990
     16 N         -19.8819   -8.6813   19.4473 N.ar    1  UNL1       -0.2423
     17 C         -18.7871   -8.1981   20.3518 C.ar    1  UNL1        0.0990
     18 C         -17.3582   -8.5383   20.0479 C.ar    1  UNL1        0.0239
     19 O          -9.6675   -6.1926   19.2465 O.3     1  UNL1       -0.4713
     20 C          -9.2346   -7.5920   18.9236 C.3     1  UNL1        0.2525
@<TRIPOS>BOND
     1     7     8    1
     2     8     1    1
     3     1     2   ar
     4     2     3   ar
     5     3     9    1
     6     9    10    2
     7    10    11    1
     8    11    12    2
     9    11    13    1
    10    13    14   ar
    11    14    15   ar
    12    15    16   ar
    13    16    17   ar
    14    17    18   ar
    15     3     4   ar
    16     4     5   ar
    17     5    19    1
    18    19    20    1
    19     5     6   ar
    20     6     1   ar
    21    18    13   ar
@<TRIPOS>MOLECULE
*****
 20 21 0 0 0
SMALL
GASTEIGER

@<TRIPOS>ATOM
      1 C          -5.1457  -16.1629   24.1662 C.ar    1  UNL1        0.1418
      2 C          -6.4216  -16.5469   23.4772 C.ar    1  UNL1        0.0371
      3 C          -7.7375  -16.3437   24.1678 C.ar    1  UNL1        0.0061
      4 C          -7.7776  -15.7565   25.5475 C.ar    1  UNL1        0.0371
      5 C          -6.5018  -15.3725   26.2365 C.ar    1  UNL1        0.1418
      6 C          -5.1859  -15.5757   25.5458 C.ar    1  UNL1        0.0737
      7 C          -3.3810  -17.7495   23.1087 C.3     1  UNL1        0.2525
      8 O          -3.8298  -16.3661   23.4755 O.3     1  UNL1       -0.4713
      9 C          -9.0134  -16.7278   23.4788 C.2     1  UNL1        0.0035
     10 C         -10.0800  -17.4657   24.2323 C.2     1  UNL1        0.0420
     11 C         -11.3558  -17.8498   23.5433 C.2     1  UNL1        0.1957
     12 O         -12.4673  -18.4867   24.3237 O.2     1  UNL1       -0.2866
     13 C         -11.5201  -17.5971   22.0739 C.ar    1  UNL1        0.0420
     14 C         -12.1967  -16.3454   21.5993 C.ar    1  UNL1        0.0239
     15 C         -12.3611  -16.0926   20.1299 C.ar    1  UNL1        0.0990
     16 N         -11.8488  -17.0916   19.1351 N.ar    1  UNL1       -0.2423
     17 C         -11.1721  -18.3434   19.6097 C.ar    1  UNL1        0.0990
     18 C         -11.0078  -18.5961   21.0791 C.ar    1  UNL1        0.0239
     19 O          -6.5419  -14.7852   27.6162 O.3     1  UNL1       -0.4713
     20 C          -7.8557  -14.4023   28.2305 C.3     1  UNL1        0.2525
@<TRIPOS>BOND
     1     7     8    1
     2     8     1    1
     3     1     2   ar
     4     2     3   ar
     5     3     9    1
     6     9    10    2
     7    10    11    1
     8    11    12    2
     9    11    13    1
    10    13    14   ar
    11    14    15   ar
    12    15    16   ar
    13    16    17   ar
    14    17    18   ar
    15     3     4   ar
    16     4     5   ar
    17     5    19    1
    18    19    20    1
    19     5     6   ar
    20     6     1   ar
    21    18    13   ar
@<TRIPOS>MOLECULE
*****
 20 21 0 0 0
SMALL
GASTEIGER

@<TRIPOS>ATOM
      1 C         -11.3543   -2.7729   18.5907 C.ar    1  UNL1        0.1418
      2 C         -12.7617   -3.2722   18.4499 C.ar    1  UNL1        0.0371
      3 C         -13.0433   -4.7448   18.4961 C.ar    1  UNL1        0.0061
      4 C         -11.9174   -5.7181   18.6831 C.ar    1  UNL1        0.0371
      5 C         -10.5100   -5.2189   18.8239 C.ar    1  UNL1        0.1418
      6 C         -10.2284   -3.7463   18.7777 C.ar    1  UNL1        0.0737
      7 C         -10.6880   -0.6506   17.2484 C.3     1  UNL1        0.2525
      8 O         -11.0727   -1.3003   18.5445 O.3     1  UNL1       -0.4713
      9 C         -14.4508   -5.2440   18.3553 C.2     1  UNL1        0.0035
     10 C         -15.1302   -5.9092   19.5155 C.2     1  UNL1        0.0420
     11 C         -16.5376   -6.4084   19.3747 C.2     1  UNL1        0.1957
     12 O         -17.6904   -5.4761   19.6027 O.2     1  UNL1       -0.2866
     13 C         -16.7923   -7.8399   19.0061 C.ar    1  UNL1        0.0420
     14 C         -18.1941   -8.3735   18.9948 C.ar    1  UNL1        0.0239
     15 C         -18.4488   -9.8050   18.6262 C.ar    1  UNL1        0.0990
     16 N         -17.3017  -10.7029   18.2688 N.ar    1  UNL1       -0.2423
     17 C         -15.8998  -10.1694   18.2800 C.ar    1  UNL1        0.0990
     18 C         -15.6451   -8.7379   18.6487 C.ar    1  UNL1        0.0239
     19 O          -9.3841   -6.1923   19.0109 O.3     1  UNL1       -0.4713
     20 C          -9.6362   -7.6650   18.8790 C.3     1  UNL1        0.2525
@<TRIPOS>BOND
     1     7     8    1
     2     8     1    1
     3     1     2   ar
     4     2     3   ar
     5     3     9    1
     6     9    10    2
     7    10    11    1
     8    11    12    2
     9    11    13    1
    10    13    14   ar
    11    14    15   ar
    12    15    16   ar
    13    16    17   ar
    14    17    18   ar
    15     3     4   ar
    16     4     5   ar
    17     5    19    1
    18    19    20    1
    19     5     6   ar
    20     6     1   ar
    21    18    13   ar
@<TRIPOS>MOLECULE
*****
 20 21 0 0 0
SMALL
GASTEIGER

@<TRIPOS>ATOM
      1 C           2.6195   -0.8062   21.0050 C.ar    1  UNL1        0.1418
      2 C           3.2655   -1.1643   22.3106 C.ar    1  UNL1        0.0371
      3 C           4.1612   -2.3642   22.4001 C.ar    1  UNL1        0.0061
      4 C           4.4110   -3.2060   21.1840 C.ar    1  UNL1        0.0371
      5 C           3.7650   -2.8480   19.8785 C.ar    1  UNL1        0.1418
      6 C           2.8693   -1.6481   19.7890 C.ar    1  UNL1        0.0737
      7 C           0.4325    0.3106   20.1570 C.3     1  UNL1        0.2525
      8 O           1.7238    0.3936   20.9156 O.3     1  UNL1       -0.4713
      9 C           4.8071   -2.7222   23.7057 C.2     1  UNL1        0.0035
     10 C           6.0174   -3.6081   23.7257 C.2     1  UNL1        0.0420
     11 C           6.6633   -3.9662   25.0312 C.2     1  UNL1        0.1957
     12 O           6.8147   -2.9275   26.1029 O.2     1  UNL1       -0.2866
     13 C           7.1580   -5.3628   25.2652 C.ar    1  UNL1        0.0420
     14 C           6.8951   -6.0417   26.5766 C.ar    1  UNL1        0.0239
     15 C           7.3897   -7.4384   26.8106 C.ar    1  UNL1        0.0990
     16 N           8.1473   -8.1561   25.7331 N.ar    1  UNL1       -0.2423
     17 C           8.4102   -7.4771   24.4216 C.ar    1  UNL1        0.0990
     18 C           7.9156   -6.0805   24.1876 C.ar    1  UNL1        0.0239
     19 O           4.0148   -3.6898   18.6623 O.3     1  UNL1       -0.4713
     20 C           4.5347   -5.0888   18.8124 C.3     1  UNL1        0.2525
@<TRIPOS>BOND
     1     7     8    1
     2     8     1    1
     3     1     2   ar
     4     2     3   ar
     5     3     9    1
     6     9    10    2
     7    10    11    1
     8    11    12    2
     9    11    13    1
    10    13    14   ar
    11    14    15   ar
    12    15    16   ar
    13    16    17   ar
    14    17    18   ar
    15     3     4   ar
    16     4     5   ar
    17     5    19    1
    18    19    20    1
    19     5     6   ar
    20     6     1   ar
    21    18    13   ar
