@<TRIPOS>MOLECULE
*****
 29 33 0 0 0
SMALL
GASTEIGER

@<TRIPOS>ATOM
      1 C         -12.4502  -18.0454   23.3182 C.3     1  UNL1        0.0538
      2 C         -10.9953  -17.8736   22.9962 C.ar    1  UNL1        0.0784
      3 C         -10.0864  -17.1898   23.9742 C.ar    1  UNL1        0.0962
      4 N          -8.6314  -17.0180   23.6522 N.ar    1  UNL1       -0.2856
      5 C          -7.5022  -16.3899   24.4141 C.ar    1  UNL1        0.0841
      6 C          -6.2583  -16.5138   23.5851 C.ar    1  UNL1        0.1179
      7 N          -6.6187  -17.2184   22.3109 N.ar    1  UNL1       -0.2223
      8 C          -8.0854  -17.5300   22.3524 C.ar    1  UNL1        0.1800
      9 C          -8.9942  -18.2139   21.3745 C.ar    1  UNL1        0.1670
     10 N         -10.4492  -18.3857   21.6964 N.ar    1  UNL1       -0.2304
     11 C          -7.5999  -15.7502   25.7673 C.2     1  UNL1        0.0425
     12 C          -8.8667  -15.3523   26.4651 C.2     1  UNL1        0.1209
     13 N          -8.4976  -14.7523   27.7895 N.2     1  UNL1       -0.1510
     14 N          -7.0027  -14.7795   27.9101 N.2     1  UNL1       -0.1694
     15 C          -6.4479  -15.3962   26.6604 C.3     1  UNL1        0.1786
     16 N          -8.4481  -18.7259   20.0746 N.pl3   1  UNL1       -0.2894
     17 H          -8.9120  -18.5209   19.2309 H       1  UNL1        0.1542
     18 C          -7.1951  -19.5505   20.0604 C.ar    1  UNL1        0.0990
     19 C          -5.7916  -19.0214   20.0448 C.ar    1  UNL1        0.0385
     20 C          -4.8547  -20.1927   20.0340 C.ar    1  UNL1        0.0746
     21 N          -5.6792  -21.4458   20.0429 N.ar    1  UNL1       -0.2119
     22 S          -7.1256  -21.0489   20.0592 S.2     1  UNL1        0.0276
     23 C          -3.3564  -20.1232   20.0173 C.3     1  UNL1        0.0922
     24 C          -2.6598  -18.8563   20.4169 C.ar    1  UNL1        0.0650
     25 C          -1.4646  -18.3819   19.6446 C.ar    1  UNL1        0.0151
     26 C          -0.7680  -17.1150   20.0442 C.ar    1  UNL1        0.0028
     27 C          -1.2667  -16.3225   21.2160 C.ar    1  UNL1        0.0207
     28 C          -2.4619  -16.7968   21.9884 C.ar    1  UNL1        0.0985
     29 N          -3.1585  -18.0638   21.5887 N.ar    1  UNL1       -0.2478
@<TRIPOS>BOND
     1     1     2    1
     2     2     3   ar
     3     3     4   ar
     4     4     5   ar
     5     5    11    1
     6    11    12    2
     7    12    13    1
     8    13    14    2
     9    14    15    1
    10     5     6   ar
    11     6     7   ar
    12     7     8   ar
    13     8     9   ar
    14     9    16    1
    15    16    18    1
    16    18    19   ar
    17    19    20   ar
    18    20    23    1
    19    23    24    1
    20    24    25   ar
    21    25    26   ar
    22    26    27   ar
    23    27    28   ar
    24    28    29   ar
    25    20    21   ar
    26    21    22   ar
    27     9    10   ar
    28    10     2   ar
    29     8     4   ar
    30    22    18   ar
    31    15    11    1
    32    29    24   ar
    33    16    17    1
@<TRIPOS>MOLECULE
*****
 29 33 0 0 0
SMALL
GASTEIGER

@<TRIPOS>ATOM
      1 C          -9.3783   -7.5911   18.6071 C.3     1  UNL1        0.0538
      2 C         -10.5907   -6.7313   18.8091 C.ar    1  UNL1        0.0784
      3 C         -11.9552   -7.3537   18.8383 C.ar    1  UNL1        0.0962
      4 N         -13.1675   -6.4939   19.0404 N.ar    1  UNL1       -0.2856
      5 C         -14.6295   -6.8216   19.1140 C.ar    1  UNL1        0.0841
      6 C         -15.3809   -5.5419   19.3323 C.ar    1  UNL1        0.1179
      7 N         -14.3834   -4.4233   19.3937 N.ar    1  UNL1       -0.2223
      8 C         -13.0155   -5.0117   19.2133 C.ar    1  UNL1        0.1800
      9 C         -11.6511   -4.3892   19.1841 C.ar    1  UNL1        0.1670
     10 N         -10.4386   -5.2490   18.9820 N.ar    1  UNL1       -0.2304
     11 C         -15.2338   -8.1889   18.9909 C.2     1  UNL1        0.0425
     12 C         -16.3389   -8.7441   19.8396 C.2     1  UNL1        0.1209
     13 N         -16.6272  -10.1395   19.3706 N.2     1  UNL1       -0.1510
     14 N         -15.7002  -10.4466   18.2320 N.2     1  UNL1       -0.1694
     15 C         -14.8390   -9.2411   17.9973 C.3     1  UNL1        0.1786
     16 N         -11.4990   -2.9070   19.3569 N.pl3   1  UNL1       -0.2894
     17 H         -10.9844   -2.5502   20.1166 H       1  UNL1        0.1542
     18 C         -12.1310   -1.9683   18.3723 C.ar    1  UNL1        0.0990
     19 C         -13.0418   -0.8238   18.7048 C.ar    1  UNL1        0.0385
     20 C         -13.4370   -0.1575   17.4203 C.ar    1  UNL1        0.0746
     21 N         -12.7703   -0.8903   16.2939 N.ar    1  UNL1       -0.2119
     22 S         -11.9632   -2.0094   16.8823 S.2     1  UNL1        0.0276
     23 C         -14.3401    1.0325   17.2858 C.3     1  UNL1        0.0922
     24 C         -15.1314    1.5108   18.4670 C.ar    1  UNL1        0.0650
     25 C         -16.2151    0.6481   19.0427 C.ar    1  UNL1        0.0151
     26 C         -17.0064    1.1264   20.2238 C.ar    1  UNL1        0.0028
     27 C         -16.7140    2.4673   20.8292 C.ar    1  UNL1        0.0207
     28 C         -15.6304    3.3301   20.2534 C.ar    1  UNL1        0.0985
     29 N         -14.8391    2.8518   19.0723 N.ar    1  UNL1       -0.2478
@<TRIPOS>BOND
     1     1     2    1
     2     2     3   ar
     3     3     4   ar
     4     4     5   ar
     5     5    11    1
     6    11    12    2
     7    12    13    1
     8    13    14    2
     9    14    15    1
    10     5     6   ar
    11     6     7   ar
    12     7     8   ar
    13     8     9   ar
    14     9    16    1
    15    16    18    1
    16    18    19   ar
    17    19    20   ar
    18    20    23    1
    19    23    24    1
    20    24    25   ar
    21    25    26   ar
    22    26    27   ar
    23    27    28   ar
    24    28    29   ar
    25    20    21   ar
    26    21    22   ar
    27     9    10   ar
    28    10     2   ar
    29     8     4   ar
    30    22    18   ar
    31    15    11    1
    32    29    24   ar
    33    16    17    1
@<TRIPOS>MOLECULE
*****
 29 33 0 0 0
SMALL
GASTEIGER

@<TRIPOS>ATOM
      1 C          -9.2187  -21.6047   17.0315 C.3     1  UNL1        0.0538
      2 C          -8.7067  -20.8958   18.2502 C.ar    1  UNL1        0.0784
      3 C          -9.5704  -19.8889   18.9505 C.ar    1  UNL1        0.0962
      4 N          -9.0584  -19.1800   20.1692 N.ar    1  UNL1       -0.2856
      5 C          -9.6766  -18.1458   21.0627 C.ar    1  UNL1        0.0841
      6 C          -8.6830  -17.8045   22.1334 C.ar    1  UNL1        0.1179
      7 N          -7.4507  -18.6277   21.9015 N.ar    1  UNL1       -0.2223
      8 C          -7.6827  -19.4778   20.6876 C.ar    1  UNL1        0.1800
      9 C          -6.8190  -20.4846   19.9874 C.ar    1  UNL1        0.1670
     10 N          -7.3310  -21.1936   18.7686 N.ar    1  UNL1       -0.2304
     11 C         -11.0477  -17.5565   20.9120 C.2     1  UNL1        0.0425
     12 C         -12.2833  -18.0019   21.6365 C.2     1  UNL1        0.1209
     13 N         -13.4232  -17.1389   21.1826 N.2     1  UNL1       -0.1510
     14 N         -12.8920  -16.1601   20.1777 N.2     1  UNL1       -0.1694
     15 C         -11.4238  -16.4182   20.0105 C.3     1  UNL1        0.1786
     16 N          -5.4433  -20.7824   20.5058 N.pl3   1  UNL1       -0.2894
     17 H          -5.0985  -21.7043   20.4854 H       1  UNL1        0.1542
     18 C          -4.5930  -19.6756   21.0553 C.ar    1  UNL1        0.0990
     19 C          -4.7783  -18.9957   22.3795 C.ar    1  UNL1        0.0385
     20 C          -3.7080  -17.9542   22.5197 C.ar    1  UNL1        0.0746
     21 N          -2.8611  -17.9905   21.2821 N.ar    1  UNL1       -0.2119
     22 S          -3.4080  -19.0543   20.3771 S.2     1  UNL1        0.0276
     23 C          -3.5179  -17.0375   23.6916 C.3     1  UNL1        0.0922
     24 C          -4.7011  -16.3491   24.3050 C.ar    1  UNL1        0.0650
     25 C          -4.7856  -16.1870   25.7939 C.ar    1  UNL1        0.0151
     26 C          -5.9688  -15.4986   26.4073 C.ar    1  UNL1        0.0028
     27 C          -7.0673  -14.9724   25.5319 C.ar    1  UNL1        0.0207
     28 C          -6.9828  -15.1346   24.0431 C.ar    1  UNL1        0.0985
     29 N          -5.7996  -15.8229   23.4297 N.ar    1  UNL1       -0.2478
@<TRIPOS>BOND
     1     1     2    1
     2     2     3   ar
     3     3     4   ar
     4     4     5   ar
     5     5    11    1
     6    11    12    2
     7    12    13    1
     8    13    14    2
     9    14    15    1
    10     5     6   ar
    11     6     7   ar
    12     7     8   ar
    13     8     9   ar
    14     9    16    1
    15    16    18    1
    16    18    19   ar
    17    19    20   ar
    18    20    23    1
    19    23    24    1
    20    24    25   ar
    21    25    26   ar
    22    26    27   ar
    23    27    28   ar
    24    28    29   ar
    25    20    21   ar
    26    21    22   ar
    27     9    10   ar
    28    10     2   ar
    29     8     4   ar
    30    22    18   ar
    31    15    11    1
    32    29    24   ar
    33    16    17    1
@<TRIPOS>MOLECULE
*****
 29 33 0 0 0
SMALL
GASTEIGER

@<TRIPOS>ATOM
      1 C         -12.2416  -15.7980   19.4725 C.3     1  UNL1        0.0538
      2 C         -11.4767  -16.4029   20.6122 C.ar    1  UNL1        0.0784
      3 C         -12.2114  -16.9885   21.7815 C.ar    1  UNL1        0.0962
      4 N         -11.4465  -17.5934   22.9212 N.ar    1  UNL1       -0.2856
      5 C         -11.8932  -18.2412   24.1983 C.ar    1  UNL1        0.0841
      6 C         -10.6698  -18.6608   24.9579 C.ar    1  UNL1        0.1179
      7 N          -9.4669  -18.2725   24.1503 N.ar    1  UNL1       -0.2223
      8 C          -9.9469  -17.6128   22.8916 C.ar    1  UNL1        0.1800
      9 C          -9.2122  -17.0272   21.7223 C.ar    1  UNL1        0.1670
     10 N          -9.9771  -16.4222   20.5825 N.ar    1  UNL1       -0.2304
     11 C         -13.3140  -18.4352   24.6384 C.2     1  UNL1        0.0425
     12 C         -13.7823  -18.6160   26.0519 C.2     1  UNL1        0.1209
     13 N         -15.2738  -18.7750   26.0293 N.2     1  UNL1       -0.1510
     14 N         -15.7271  -18.6925   24.6018 N.2     1  UNL1       -0.1694
     15 C         -14.5160  -18.4825   23.7422 C.3     1  UNL1        0.1786
     16 N          -7.7126  -17.0465   21.6927 N.pl3   1  UNL1       -0.2894
     17 H          -7.2053  -16.2344   21.9215 H       1  UNL1        0.1542
     18 C          -6.9861  -18.3032   21.3144 C.ar    1  UNL1        0.0990
     19 C          -5.5311  -18.4094   20.9657 C.ar    1  UNL1        0.0385
     20 C          -5.2327  -19.8460   20.6542 C.ar    1  UNL1        0.0746
     21 N          -6.5034  -20.6277   20.8105 N.ar    1  UNL1       -0.2119
     22 S          -7.5870  -19.6742   21.2185 S.2     1  UNL1        0.0276
     23 C          -3.8981  -20.4032   20.2564 C.3     1  UNL1        0.0922
     24 C          -2.7464  -19.4779   19.9962 C.ar    1  UNL1        0.0650
     25 C          -2.7104  -18.6606   18.7390 C.ar    1  UNL1        0.0151
     26 C          -1.5587  -17.7353   18.4788 C.ar    1  UNL1        0.0028
     27 C          -0.4433  -17.6275   19.4759 C.ar    1  UNL1        0.0207
     28 C          -0.4793  -18.4448   20.7331 C.ar    1  UNL1        0.0985
     29 N          -1.6310  -19.3701   20.9933 N.ar    1  UNL1       -0.2478
@<TRIPOS>BOND
     1     1     2    1
     2     2     3   ar
     3     3     4   ar
     4     4     5   ar
     5     5    11    1
     6    11    12    2
     7    12    13    1
     8    13    14    2
     9    14    15    1
    10     5     6   ar
    11     6     7   ar
    12     7     8   ar
    13     8     9   ar
    14     9    16    1
    15    16    18    1
    16    18    19   ar
    17    19    20   ar
    18    20    23    1
    19    23    24    1
    20    24    25   ar
    21    25    26   ar
    22    26    27   ar
    23    27    28   ar
    24    28    29   ar
    25    20    21   ar
    26    21    22   ar
    27     9    10   ar
    28    10     2   ar
    29     8     4   ar
    30    22    18   ar
    31    15    11    1
    32    29    24   ar
    33    16    17    1
@<TRIPOS>MOLECULE
*****
 29 33 0 0 0
SMALL
GASTEIGER

@<TRIPOS>ATOM
      1 C          -7.7965  -15.2966   24.1195 C.3     1  UNL1        0.0538
      2 C          -8.3646  -16.3753   23.2456 C.ar    1  UNL1        0.0784
      3 C          -9.7118  -16.9585   23.5539 C.ar    1  UNL1        0.0962
      4 N         -10.2799  -18.0372   22.6800 N.ar    1  UNL1       -0.2856
      5 C         -11.5723  -18.7966   22.7348 C.ar    1  UNL1        0.0841
      6 C         -11.5921  -19.7614   21.5864 C.ar    1  UNL1        0.1179
      7 N         -10.3119  -19.5983   20.8219 N.ar    1  UNL1       -0.2223
      8 C          -9.5009  -18.5326   21.4978 C.ar    1  UNL1        0.1800
      9 C          -8.1538  -17.9495   21.1895 C.ar    1  UNL1        0.1670
     10 N          -7.5856  -16.8708   22.0634 N.ar    1  UNL1       -0.2304
     11 C         -12.6549  -18.6218   23.7582 C.2     1  UNL1        0.0425
     12 C         -12.5546  -18.9646   25.2151 C.2     1  UNL1        0.1209
     13 N         -13.8656  -18.6282   25.8618 N.2     1  UNL1       -0.1510
     14 N         -14.7761  -18.0775   24.8045 N.2     1  UNL1       -0.1694
     15 C         -14.0279  -18.0736   23.5045 C.3     1  UNL1        0.1786
     16 N          -7.3748  -18.4449   20.0072 N.pl3   1  UNL1       -0.2894
     17 H          -7.6501  -18.1938   19.0960 H       1  UNL1        0.1542
     18 C          -6.1762  -19.3231   20.2135 C.ar    1  UNL1        0.0990
     19 C          -4.8004  -18.8620   20.5937 C.ar    1  UNL1        0.0385
     20 C          -3.9169  -20.0703   20.6909 C.ar    1  UNL1        0.0746
     21 N          -4.7468  -21.2782   20.3707 N.ar    1  UNL1       -0.2119
     22 S          -6.1430  -20.8163   20.0756 S.2     1  UNL1        0.0276
     23 C          -2.4596  -20.0707   21.0460 C.3     1  UNL1        0.0922
     24 C          -1.6322  -18.8400   20.8202 C.ar    1  UNL1        0.0650
     25 C          -2.0595  -17.5300   21.4129 C.ar    1  UNL1        0.0151
     26 C          -1.2322  -16.2993   21.1871 C.ar    1  UNL1        0.0028
     27 C           0.0223  -16.3787   20.3686 C.ar    1  UNL1        0.0207
     28 C           0.4496  -17.6887   19.7759 C.ar    1  UNL1        0.0985
     29 N          -0.3778  -18.9194   20.0017 N.ar    1  UNL1       -0.2478
@<TRIPOS>BOND
     1     1     2    1
     2     2     3   ar
     3     3     4   ar
     4     4     5   ar
     5     5    11    1
     6    11    12    2
     7    12    13    1
     8    13    14    2
     9    14    15    1
    10     5     6   ar
    11     6     7   ar
    12     7     8   ar
    13     8     9   ar
    14     9    16    1
    15    16    18    1
    16    18    19   ar
    17    19    20   ar
    18    20    23    1
    19    23    24    1
    20    24    25   ar
    21    25    26   ar
    22    26    27   ar
    23    27    28   ar
    24    28    29   ar
    25    20    21   ar
    26    21    22   ar
    27     9    10   ar
    28    10     2   ar
    29     8     4   ar
    30    22    18   ar
    31    15    11    1
    32    29    24   ar
    33    16    17    1
@<TRIPOS>MOLECULE
*****
 29 33 0 0 0
SMALL
GASTEIGER

@<TRIPOS>ATOM
      1 C           8.3854   -7.7963   25.4189 C.3     1  UNL1        0.0538
      2 C           7.9969   -6.3698   25.6720 C.ar    1  UNL1        0.0784
      3 C           7.6553   -5.9207   27.0619 C.ar    1  UNL1        0.0962
      4 N           7.2667   -4.4943   27.3150 N.ar    1  UNL1       -0.2856
      5 C           6.8803   -3.7664   28.5684 C.ar    1  UNL1        0.0841
      6 C           6.5945   -2.3392   28.2063 C.ar    1  UNL1        0.1179
      7 N           6.8043   -2.1848   26.7290 N.ar    1  UNL1       -0.2223
      8 C           7.2197   -3.5167   26.1782 C.ar    1  UNL1        0.1800
      9 C           7.5613   -3.9657   24.7883 C.ar    1  UNL1        0.1670
     10 N           7.9499   -5.3923   24.5352 N.ar    1  UNL1       -0.2304
     11 C           6.7948   -4.3615   29.9426 C.2     1  UNL1        0.0425
     12 C           6.5342   -3.6098   31.2142 C.2     1  UNL1        0.1209
     13 N           6.5332   -4.5965   32.3441 N.2     1  UNL1       -0.1510
     14 N           6.7931   -5.9580   31.7706 N.2     1  UNL1       -0.1694
     15 C           6.9548   -5.8128   30.2865 C.3     1  UNL1        0.1786
     16 N           7.5143   -2.9882   23.6516 N.pl3   1  UNL1       -0.2894
     17 H           7.9406   -2.1056   23.7433 H       1  UNL1        0.1542
     18 C           6.8176   -3.3556   22.3749 C.ar    1  UNL1        0.0990
     19 C           5.3927   -3.0423   22.0263 C.ar    1  UNL1        0.0385
     20 C           5.1180   -3.5937   20.6587 C.ar    1  UNL1        0.0746
     21 N           6.3732   -4.2478   20.1620 N.ar    1  UNL1       -0.2119
     22 S           7.4236   -4.1006   21.2226 S.2     1  UNL1        0.0276
     23 C           3.8167   -3.5064   19.9179 C.3     1  UNL1        0.0922
     24 C           3.3729   -2.1983   19.3330 C.ar    1  UNL1        0.0650
     25 C           2.3344   -1.3760   20.0368 C.ar    1  UNL1        0.0151
     26 C           1.8907   -0.0679   19.4519 C.ar    1  UNL1        0.0028
     27 C           2.4853    0.4177   18.1633 C.ar    1  UNL1        0.0207
     28 C           3.5238   -0.4046   17.4595 C.ar    1  UNL1        0.0985
     29 N           3.9676   -1.7127   18.0444 N.ar    1  UNL1       -0.2478
@<TRIPOS>BOND
     1     1     2    1
     2     2     3   ar
     3     3     4   ar
     4     4     5   ar
     5     5    11    1
     6    11    12    2
     7    12    13    1
     8    13    14    2
     9    14    15    1
    10     5     6   ar
    11     6     7   ar
    12     7     8   ar
    13     8     9   ar
    14     9    16    1
    15    16    18    1
    16    18    19   ar
    17    19    20   ar
    18    20    23    1
    19    23    24    1
    20    24    25   ar
    21    25    26   ar
    22    26    27   ar
    23    27    28   ar
    24    28    29   ar
    25    20    21   ar
    26    21    22   ar
    27     9    10   ar
    28    10     2   ar
    29     8     4   ar
    30    22    18   ar
    31    15    11    1
    32    29    24   ar
    33    16    17    1
@<TRIPOS>MOLECULE
*****
 29 33 0 0 0
SMALL
GASTEIGER

@<TRIPOS>ATOM
      1 C           5.3737   -0.6148   25.2621 C.3     1  UNL1        0.0538
      2 C           5.9279   -1.9143   24.7578 C.ar    1  UNL1        0.0784
      3 C           6.3423   -2.9800   25.7286 C.ar    1  UNL1        0.0962
      4 N           6.8966   -4.2795   25.2244 N.ar    1  UNL1       -0.2856
      5 C           7.3852   -5.5059   25.9364 C.ar    1  UNL1        0.0841
      6 C           7.8271   -6.4977   24.9014 C.ar    1  UNL1        0.1179
      7 N           7.6115   -5.8841   23.5497 N.ar    1  UNL1       -0.2223
      8 C           7.0364   -4.5132   23.7493 C.ar    1  UNL1        0.1800
      9 C           6.6220   -3.4475   22.7785 C.ar    1  UNL1        0.1670
     10 N           6.0677   -2.1480   23.2827 N.ar    1  UNL1       -0.2304
     11 C           7.4251   -5.7056   27.4225 C.2     1  UNL1        0.0425
     12 C           8.5424   -6.3390   28.1974 C.2     1  UNL1        0.1209
     13 N           8.1624   -6.3318   29.6485 N.2     1  UNL1       -0.1510
     14 N           6.8102   -5.6939   29.7703 N.2     1  UNL1       -0.1694
     15 C           6.3545   -5.3069   28.3946 C.3     1  UNL1        0.1786
     16 N           6.7618   -3.6812   21.3034 N.pl3   1  UNL1       -0.2894
     17 H           7.5804   -4.0952   20.9461 H       1  UNL1        0.1542
     18 C           5.6544   -3.2841   20.3729 C.ar    1  UNL1        0.0990
     19 C           5.3865   -1.8997   19.8612 C.ar    1  UNL1        0.0385
     20 C           4.1870   -1.9616   18.9627 C.ar    1  UNL1        0.0746
     21 N           3.7135   -3.3843   18.9191 N.ar    1  UNL1       -0.2119
     22 S           4.6204   -4.2016   19.7906 S.2     1  UNL1        0.0276
     23 C           3.5694   -0.8041   18.2356 C.3     1  UNL1        0.0922
     24 C           2.4108   -0.0693   18.8421 C.ar    1  UNL1        0.0650
     25 C           1.6442   -0.6831   19.9759 C.ar    1  UNL1        0.0151
     26 C           0.4856    0.0516   20.5824 C.ar    1  UNL1        0.0028
     27 C           0.0937    1.4001   20.0551 C.ar    1  UNL1        0.0207
     28 C           0.8603    2.0139   18.9213 C.ar    1  UNL1        0.0985
     29 N           2.0189    1.2791   18.3148 N.ar    1  UNL1       -0.2478
@<TRIPOS>BOND
     1     1     2    1
     2     2     3   ar
     3     3     4   ar
     4     4     5   ar
     5     5    11    1
     6    11    12    2
     7    12    13    1
     8    13    14    2
     9    14    15    1
    10     5     6   ar
    11     6     7   ar
    12     7     8   ar
    13     8     9   ar
    14     9    16    1
    15    16    18    1
    16    18    19   ar
    17    19    20   ar
    18    20    23    1
    19    23    24    1
    20    24    25   ar
    21    25    26   ar
    22    26    27   ar
    23    27    28   ar
    24    28    29   ar
    25    20    21   ar
    26    21    22   ar
    27     9    10   ar
    28    10     2   ar
    29     8     4   ar
    30    22    18   ar
    31    15    11    1
    32    29    24   ar
    33    16    17    1
@<TRIPOS>MOLECULE
*****
 29 33 0 0 0
SMALL
GASTEIGER

@<TRIPOS>ATOM
      1 C           4.8409    0.6054   25.0710 C.3     1  UNL1        0.0538
      2 C           3.4813    1.1788   24.8017 C.ar    1  UNL1        0.0784
      3 C           2.4331    1.1594   25.8746 C.ar    1  UNL1        0.0962
      4 N           1.0735    1.7327   25.6053 N.ar    1  UNL1       -0.2856
      5 C          -0.1524    1.8537   26.4613 C.ar    1  UNL1        0.0841
      6 C          -1.2216    2.5212   25.6481 C.ar    1  UNL1        0.1179
      7 N          -0.6565    2.8127   24.2895 N.ar    1  UNL1       -0.2223
      8 C           0.7619    2.3254   24.2630 C.ar    1  UNL1        0.1800
      9 C           1.8099    2.3448   23.1901 C.ar    1  UNL1        0.1670
     10 N           3.1697    1.7715   23.4594 N.ar    1  UNL1       -0.2304
     11 C          -0.2856    1.3888   27.8812 C.2     1  UNL1        0.0425
     12 C          -1.2837    0.3928   28.3929 C.2     1  UNL1        0.1209
     13 N          -1.0590    0.2267   29.8667 N.2     1  UNL1       -0.1510
     14 N           0.0780    1.1201   30.2657 N.2     1  UNL1       -0.1694
     15 C           0.5560    1.8382   29.0386 C.3     1  UNL1        0.1786
     16 N           1.4983    2.9375   21.8479 N.pl3   1  UNL1       -0.2894
     17 H           1.2891    3.8964   21.7698 H       1  UNL1        0.1542
     18 C           1.5054    2.0693   20.6247 C.ar    1  UNL1        0.0990
     19 C           2.7172    1.4645   19.9798 C.ar    1  UNL1        0.0385
     20 C           2.2627    0.6749   18.7882 C.ar    1  UNL1        0.0746
     21 N           0.7700    0.7916   18.6967 N.ar    1  UNL1       -0.2119
     22 S           0.3020    1.6534   19.8317 S.2     1  UNL1        0.0276
     23 C           3.1458   -0.0961   17.8524 C.3     1  UNL1        0.0922
     24 C           3.8282   -1.3460   18.3239 C.ar    1  UNL1        0.0650
     25 C           3.2145   -2.1682   19.4182 C.ar    1  UNL1        0.0151
     26 C           3.8969   -3.4180   19.8897 C.ar    1  UNL1        0.0028
     27 C           5.1927   -3.8456   19.2669 C.ar    1  UNL1        0.0207
     28 C           5.8064   -3.0234   18.1726 C.ar    1  UNL1        0.0985
     29 N           5.1240   -1.7735   17.7011 N.ar    1  UNL1       -0.2478
@<TRIPOS>BOND
     1     1     2    1
     2     2     3   ar
     3     3     4   ar
     4     4     5   ar
     5     5    11    1
     6    11    12    2
     7    12    13    1
     8    13    14    2
     9    14    15    1
    10     5     6   ar
    11     6     7   ar
    12     7     8   ar
    13     8     9   ar
    14     9    16    1
    15    16    18    1
    16    18    19   ar
    17    19    20   ar
    18    20    23    1
    19    23    24    1
    20    24    25   ar
    21    25    26   ar
    22    26    27   ar
    23    27    28   ar
    24    28    29   ar
    25    20    21   ar
    26    21    22   ar
    27     9    10   ar
    28    10     2   ar
    29     8     4   ar
    30    22    18   ar
    31    15    11    1
    32    29    24   ar
    33    16    17    1
@<TRIPOS>MOLECULE
*****
 29 33 0 0 0
SMALL
GASTEIGER

@<TRIPOS>ATOM
      1 C           3.3996   -0.5592   24.0782 C.3     1  UNL1        0.0538
      2 C           4.4161   -1.6112   23.7468 C.ar    1  UNL1        0.0784
      3 C           4.8912   -1.7762   22.3335 C.ar    1  UNL1        0.0962
      4 N           5.9077   -2.8282   22.0020 N.ar    1  UNL1       -0.2856
      5 C           6.5595   -3.2224   20.7098 C.ar    1  UNL1        0.0841
      6 C           7.5037   -4.3530   20.9928 C.ar    1  UNL1        0.1179
      7 N           7.4355   -4.6576   22.4599 N.ar    1  UNL1       -0.2223
      8 C           6.4492   -3.7153   23.0837 C.ar    1  UNL1        0.1800
      9 C           5.9741   -3.5503   24.4969 C.ar    1  UNL1        0.1670
     10 N           4.9575   -2.4983   24.8284 N.ar    1  UNL1       -0.2304
     11 C           6.3107   -2.5958   19.3698 C.2     1  UNL1        0.0425
     12 C           7.3341   -1.9118   18.5126 C.2     1  UNL1        0.1209
     13 N           6.6506   -1.4366   17.2647 N.2     1  UNL1       -0.1510
     14 N           5.2048   -1.8269   17.3508 N.2     1  UNL1       -0.1694
     15 C           4.9947   -2.5433   18.6518 C.3     1  UNL1        0.1786
     16 N           6.5155   -4.4374   25.5785 N.pl3   1  UNL1       -0.2894
     17 H           6.6215   -5.4026   25.4165 H       1  UNL1        0.1542
     18 C           6.8955   -3.8536   26.9071 C.ar    1  UNL1        0.0990
     19 C           6.3640   -4.2819   28.2428 C.ar    1  UNL1        0.0385
     20 C           7.0137   -3.4322   29.2944 C.ar    1  UNL1        0.0746
     21 N           7.9468   -2.4787   28.6085 N.ar    1  UNL1       -0.2119
     22 S           7.8737   -2.7392   27.1331 S.2     1  UNL1        0.0276
     23 C           6.7726   -3.5204   30.7722 C.3     1  UNL1        0.0922
     24 C           5.8026   -2.5850   31.4311 C.ar    1  UNL1        0.0650
     25 C           5.4015   -2.8046   32.8597 C.ar    1  UNL1        0.0151
     26 C           4.4315   -1.8692   33.5186 C.ar    1  UNL1        0.0028
     27 C           3.8626   -0.7143   32.7488 C.ar    1  UNL1        0.0207
     28 C           4.2637   -0.4947   31.3202 C.ar    1  UNL1        0.0985
     29 N           5.2337   -1.4301   30.6613 N.ar    1  UNL1       -0.2478
@<TRIPOS>BOND
     1     1     2    1
     2     2     3   ar
     3     3     4   ar
     4     4     5   ar
     5     5    11    1
     6    11    12    2
     7    12    13    1
     8    13    14    2
     9    14    15    1
    10     5     6   ar
    11     6     7   ar
    12     7     8   ar
    13     8     9   ar
    14     9    16    1
    15    16    18    1
    16    18    19   ar
    17    19    20   ar
    18    20    23    1
    19    23    24    1
    20    24    25   ar
    21    25    26   ar
    22    26    27   ar
    23    27    28   ar
    24    28    29   ar
    25    20    21   ar
    26    21    22   ar
    27     9    10   ar
    28    10     2   ar
    29     8     4   ar
    30    22    18   ar
    31    15    11    1
    32    29    24   ar
    33    16    17    1
