@<TRIPOS>MOLECULE
*****
 23 26 0 0 0
SMALL
GASTEIGER

@<TRIPOS>ATOM
      1 C          -8.8136  -19.5311   19.4589 C.2     1  UNL1        0.3425
      2 O          -9.0252  -20.4729   18.3108 O.2     1  UNL1       -0.2448
      3 C         -12.0887  -18.4317   23.3800 C.2     1  UNL1        0.1425
      4 C         -11.3450  -19.1494   24.4671 C.2     1  UNL1        0.0347
      5 C         -10.0657  -19.8670   24.1530 C.2     1  UNL1        0.0026
      6 C          -9.5302  -19.8669   22.7518 C.2     1  UNL1       -0.0016
      7 C         -10.2740  -19.1492   21.6648 C.2     1  UNL1        0.0148
      8 C          -9.9930  -18.9767   20.2015 C.2     1  UNL1        0.0926
      9 C         -11.0986  -18.1525   19.6112 C.2     1  UNL1        0.1001
     10 N         -12.0628  -17.8156   20.7097 N.2     1  UNL1       -0.2585
     11 C         -11.5532  -18.4316   21.9789 C.3     1  UNL1        0.1818
     12 C         -14.3178  -18.2827   24.7061 C.3     1  UNL1        0.2521
     13 O         -13.3679  -17.7141   23.6941 O.2     1  UNL1       -0.4734
     14 O          -7.4223  -19.1437   19.8644 O.3     1  UNL1       -0.4454
     15 C          -6.5578  -20.1201   20.6056 C.3     1  UNL1        0.2087
     16 C          -5.1994  -19.7042   21.0868 C.3     1  UNL1        0.0445
     17 C          -5.0614  -18.9217   22.3590 C.3     1  UNL1        0.0210
     18 C          -3.7029  -18.5058   22.8401 C.3     1  UNL1        0.0722
     19 N          -2.4823  -18.8725   22.0490 N.3     1  UNL1       -0.2727
     20 C          -2.6202  -19.6551   20.7768 C.3     1  UNL1        0.0722
     21 C          -3.9788  -20.0710   20.2957 C.3     1  UNL1        0.0210
     22 C          -3.2056  -19.1226   21.7454 C.3     1  UNL1        0.0722
     23 C          -4.4340  -19.4987   21.3103 C.3     1  UNL1        0.0210
@<TRIPOS>BOND
     1    12    13    1
     2    13     3    1
     3     3     4    2
     4     4     5    1
     5     5     6    2
     6     6     7    1
     7     7     8    2
     8     8     1    1
     9     1     2    2
    10     1    14    1
    11    14    15    1
    12    15    16    1
    13    16    17    1
    14    17    18    1
    15    18    19    1
    16    19    20    1
    17    20    21    1
    18    19    22    1
    19    22    23    1
    20     8     9    1
    21     9    10    2
    22    10    11    1
    23    11     3    1
    24    11     7    1
    25    21    16    1
    26    23    16    1
@<TRIPOS>MOLECULE
*****
 23 26 0 0 0
SMALL
GASTEIGER

@<TRIPOS>ATOM
      1 C          -7.6224  -19.7330   21.5113 C.2     1  UNL1        0.3425
      2 O          -8.0987  -20.1009   22.8852 O.2     1  UNL1       -0.2448
      3 C          -2.4818  -18.7983   21.6162 C.2     1  UNL1        0.1425
      4 C          -2.4910  -17.7586   22.6975 C.2     1  UNL1        0.0347
      5 C          -3.7859  -17.3530   23.3368 C.2     1  UNL1        0.0026
      6 C          -5.0715  -17.9870   22.8950 C.2     1  UNL1       -0.0016
      7 C          -5.0622  -19.0266   21.8137 C.2     1  UNL1        0.0148
      8 C          -6.1632  -19.8202   21.1750 C.2     1  UNL1        0.0926
      9 C          -5.5488  -20.7164   20.1408 C.2     1  UNL1        0.1001
     10 N          -4.0681  -20.4766   20.1405 N.2     1  UNL1       -0.2585
     11 C          -3.7674  -19.4322   21.1744 C.3     1  UNL1        0.1818
     12 C          -0.5957  -18.3654   19.8827 C.3     1  UNL1        0.2521
     13 O          -1.1869  -19.2039   20.9769 O.2     1  UNL1       -0.4734
     14 O          -8.6054  -19.2779   20.4736 O.3     1  UNL1       -0.4454
     15 C         -10.0470  -19.6785   20.5794 C.3     1  UNL1        0.2087
     16 C         -11.0120  -18.8143   21.3356 C.3     1  UNL1        0.0445
     17 C         -11.6139  -17.6084   20.6771 C.3     1  UNL1        0.0210
     18 C         -12.5788  -16.7442   21.4334 C.3     1  UNL1        0.0722
     19 N         -12.9419  -17.0858   22.8482 N.3     1  UNL1       -0.2727
     20 C         -12.3400  -18.2917   23.5066 C.3     1  UNL1        0.0722
     21 C         -11.3750  -19.1559   22.7503 C.3     1  UNL1        0.0210
     22 C         -12.4086  -17.5893   22.4740 C.3     1  UNL1        0.0722
     23 C         -11.5360  -18.3709   21.7903 C.3     1  UNL1        0.0210
@<TRIPOS>BOND
     1    12    13    1
     2    13     3    1
     3     3     4    2
     4     4     5    1
     5     5     6    2
     6     6     7    1
     7     7     8    2
     8     8     1    1
     9     1     2    2
    10     1    14    1
    11    14    15    1
    12    15    16    1
    13    16    17    1
    14    17    18    1
    15    18    19    1
    16    19    20    1
    17    20    21    1
    18    19    22    1
    19    22    23    1
    20     8     9    1
    21     9    10    2
    22    10    11    1
    23    11     3    1
    24    11     7    1
    25    21    16    1
    26    23    16    1
@<TRIPOS>MOLECULE
*****
 23 26 0 0 0
SMALL
GASTEIGER

@<TRIPOS>ATOM
      1 C          -7.9078  -19.5050   21.9533 C.2     1  UNL1        0.3425
      2 O          -8.4206  -20.3006   23.1168 O.2     1  UNL1       -0.2448
      3 C          -2.7341  -18.8362   21.6422 C.2     1  UNL1        0.1425
      4 C          -2.6034  -17.7968   22.7158 C.2     1  UNL1        0.0347
      5 C          -3.8204  -17.3247   23.4548 C.2     1  UNL1        0.0026
      6 C          -5.1681  -17.8919   23.1202 C.2     1  UNL1       -0.0016
      7 C          -5.2988  -18.9312   22.0466 C.2     1  UNL1        0.0148
      8 C          -6.4866  -19.6675   21.5017 C.2     1  UNL1        0.0926
      9 C          -6.0038  -20.5946   20.4259 C.2     1  UNL1        0.1001
     10 N          -4.5176  -20.4314   20.3060 N.2     1  UNL1       -0.2585
     11 C          -4.0818  -19.4033   21.3076 C.3     1  UNL1        0.1818
     12 C          -0.8711  -18.4230   19.8792 C.3     1  UNL1        0.2521
     13 O          -1.5172  -19.3083   20.9033 O.2     1  UNL1       -0.4734
     14 O          -8.8162  -18.5469   21.2412 O.3     1  UNL1       -0.4454
     15 C          -9.6008  -17.5355   22.0231 C.3     1  UNL1        0.2087
     16 C          -8.9491  -16.7877   23.1482 C.3     1  UNL1        0.0445
     17 C          -9.2673  -17.1449   24.5699 C.3     1  UNL1        0.0210
     18 C          -8.6156  -16.3971   25.6950 C.3     1  UNL1        0.0722
     19 N          -7.6457  -15.2919   25.3986 N.3     1  UNL1       -0.2727
     20 C          -7.3275  -14.9346   23.9769 C.3     1  UNL1        0.0722
     21 C          -7.9792  -15.6825   22.8517 C.3     1  UNL1        0.0210
     22 C          -7.9778  -15.6733   24.7488 C.3     1  UNL1        0.0722
     23 C          -8.5670  -16.3495   23.7313 C.3     1  UNL1        0.0210
@<TRIPOS>BOND
     1    12    13    1
     2    13     3    1
     3     3     4    2
     4     4     5    1
     5     5     6    2
     6     6     7    1
     7     7     8    2
     8     8     1    1
     9     1     2    2
    10     1    14    1
    11    14    15    1
    12    15    16    1
    13    16    17    1
    14    17    18    1
    15    18    19    1
    16    19    20    1
    17    20    21    1
    18    19    22    1
    19    22    23    1
    20     8     9    1
    21     9    10    2
    22    10    11    1
    23    11     3    1
    24    11     7    1
    25    21    16    1
    26    23    16    1
@<TRIPOS>MOLECULE
*****
 23 26 0 0 0
SMALL
GASTEIGER

@<TRIPOS>ATOM
      1 C          -7.5225  -19.2468   20.8647 C.2     1  UNL1        0.3425
      2 O          -6.9249  -17.9272   20.4757 O.2     1  UNL1       -0.2448
      3 C         -12.1220  -18.4062   23.1990 C.2     1  UNL1        0.1425
      4 C         -12.7297  -17.5415   22.1347 C.2     1  UNL1        0.0347
      5 C         -11.9504  -17.2199   20.8940 C.2     1  UNL1        0.0026
      6 C         -10.5634  -17.7630   20.7177 C.2     1  UNL1       -0.0016
      7 C          -9.9557  -18.6277   21.7820 C.2     1  UNL1        0.0148
      8 C          -8.6195  -19.3014   21.8863 C.2     1  UNL1        0.0926
      9 C          -8.5730  -20.0394   23.1914 C.2     1  UNL1        0.1001
     10 N          -9.8804  -19.8217   23.8937 N.2     1  UNL1       -0.2585
     11 C         -10.7349  -18.9493   23.0227 C.3     1  UNL1        0.1818
     12 C         -14.3155  -18.2486   24.5824 C.3     1  UNL1        0.2521
     13 O         -12.9012  -18.7277   24.4397 O.2     1  UNL1       -0.4734
     14 O          -7.0230  -20.5119   20.2321 O.3     1  UNL1       -0.4454
     15 C          -5.6667  -21.0441   20.5889 C.3     1  UNL1        0.2087
     16 C          -4.4999  -20.1083   20.7022 C.3     1  UNL1        0.0445
     17 C          -4.0709  -19.6039   22.0481 C.3     1  UNL1        0.0210
     18 C          -2.9041  -18.6681   22.1613 C.3     1  UNL1        0.0722
     19 N          -2.1662  -18.2367   20.9286 N.3     1  UNL1       -0.2727
     20 C          -2.5953  -18.7411   19.5827 C.3     1  UNL1        0.0722
     21 C          -3.7621  -19.6770   19.4695 C.3     1  UNL1        0.0210
     22 C          -2.7996  -18.7508   20.8165 C.3     1  UNL1        0.0722
     23 C          -3.8546  -19.5970   20.7141 C.3     1  UNL1        0.0210
@<TRIPOS>BOND
     1    12    13    1
     2    13     3    1
     3     3     4    2
     4     4     5    1
     5     5     6    2
     6     6     7    1
     7     7     8    2
     8     8     1    1
     9     1     2    2
    10     1    14    1
    11    14    15    1
    12    15    16    1
    13    16    17    1
    14    17    18    1
    15    18    19    1
    16    19    20    1
    17    20    21    1
    18    19    22    1
    19    22    23    1
    20     8     9    1
    21     9    10    2
    22    10    11    1
    23    11     3    1
    24    11     7    1
    25    21    16    1
    26    23    16    1
@<TRIPOS>MOLECULE
*****
 23 26 0 0 0
SMALL
GASTEIGER

@<TRIPOS>ATOM
      1 C          -6.5952  -20.0546   20.9556 C.2     1  UNL1        0.3425
      2 O          -6.3392  -20.4907   22.3677 O.2     1  UNL1       -0.2448
      3 C         -10.9994  -17.2694   21.3500 C.2     1  UNL1        0.1425
      4 C         -10.8062  -16.7908   22.7583 C.2     1  UNL1        0.0347
      5 C          -9.5828  -17.1946   23.5265 C.2     1  UNL1        0.0026
      6 C          -8.5525  -18.0770   22.8863 C.2     1  UNL1       -0.0016
      7 C          -8.7457  -18.5556   21.4780 C.2     1  UNL1        0.0148
      8 C          -7.9081  -19.4278   20.5905 C.2     1  UNL1        0.0926
      9 C          -8.6138  -19.5630   19.2738 C.2     1  UNL1        0.1001
     10 N          -9.8876  -18.7744   19.3475 N.2     1  UNL1       -0.2585
     11 C          -9.9692  -18.1518   20.7098 C.3     1  UNL1        0.1818
     12 C         -12.1181  -15.8466   19.4861 C.3     1  UNL1        0.2521
     13 O         -12.2229  -16.8656   20.5818 O.2     1  UNL1       -0.4734
     14 O          -5.5381  -20.2454   19.9084 O.3     1  UNL1       -0.4454
     15 C          -4.0975  -20.3624   20.3096 C.3     1  UNL1        0.2087
     16 C          -3.2820  -19.1258   20.5455 C.3     1  UNL1        0.0445
     17 C          -2.4709  -18.5378   19.4291 C.3     1  UNL1        0.0210
     18 C          -1.6554  -17.3012   19.6652 C.3     1  UNL1        0.0722
     19 N          -1.6509  -16.6525   21.0177 N.3     1  UNL1       -0.2727
     20 C          -2.4619  -17.2405   22.1341 C.3     1  UNL1        0.0722
     21 C          -3.2775  -18.4772   21.8981 C.3     1  UNL1        0.0210
     22 C          -2.1134  -17.3289   20.9362 C.3     1  UNL1        0.0722
     23 C          -2.8508  -18.4471   20.7229 C.3     1  UNL1        0.0210
@<TRIPOS>BOND
     1    12    13    1
     2    13     3    1
     3     3     4    2
     4     4     5    1
     5     5     6    2
     6     6     7    1
     7     7     8    2
     8     8     1    1
     9     1     2    2
    10     1    14    1
    11    14    15    1
    12    15    16    1
    13    16    17    1
    14    17    18    1
    15    18    19    1
    16    19    20    1
    17    20    21    1
    18    19    22    1
    19    22    23    1
    20     8     9    1
    21     9    10    2
    22    10    11    1
    23    11     3    1
    24    11     7    1
    25    21    16    1
    26    23    16    1
@<TRIPOS>MOLECULE
*****
 23 26 0 0 0
SMALL
GASTEIGER

@<TRIPOS>ATOM
      1 C          -6.5013  -20.1078   21.4588 C.2     1  UNL1        0.3425
      2 O          -6.2641  -21.1155   22.5443 O.2     1  UNL1       -0.2448
      3 C         -10.7311  -17.0860   20.9220 C.2     1  UNL1        0.1425
      4 C         -11.3985  -17.8705   19.8316 C.2     1  UNL1        0.0347
      5 C         -10.7486  -19.1113   19.2948 C.2     1  UNL1        0.0026
      6 C          -9.4314  -19.5676   19.8486 C.2     1  UNL1       -0.0016
      7 C          -8.7640  -18.7831   20.9390 C.2     1  UNL1        0.0148
      8 C          -7.4734  -18.9863   21.6760 C.2     1  UNL1        0.0926
      9 C          -7.3256  -17.8711   22.6682 C.2     1  UNL1        0.1001
     10 N          -8.5249  -16.9787   22.5444 N.2     1  UNL1       -0.2585
     11 C          -9.4139  -17.5423   21.4757 C.3     1  UNL1        0.1818
     12 C         -12.1436  -15.8962   22.7493 C.3     1  UNL1        0.2521
     13 O         -11.3810  -15.8452   21.4587 O.2     1  UNL1       -0.4734
     14 O          -5.7663  -20.2217   20.1561 O.3     1  UNL1       -0.4454
     15 C          -4.2832  -20.4462   20.1489 C.3     1  UNL1        0.2087
     16 C          -3.3491  -19.2928   20.3658 C.3     1  UNL1        0.0445
     17 C          -2.7261  -18.6008   19.1898 C.3     1  UNL1        0.0210
     18 C          -1.7920  -17.4474   19.4068 C.3     1  UNL1        0.0722
     19 N          -1.4808  -16.9860   20.7998 N.3     1  UNL1       -0.2727
     20 C          -2.1038  -17.6780   21.9758 C.3     1  UNL1        0.0722
     21 C          -3.0380  -18.8315   21.7588 C.3     1  UNL1        0.0210
     22 C          -1.9987  -17.6224   20.7307 C.3     1  UNL1        0.0722
     23 C          -2.8434  -18.6654   20.5346 C.3     1  UNL1        0.0210
@<TRIPOS>BOND
     1    12    13    1
     2    13     3    1
     3     3     4    2
     4     4     5    1
     5     5     6    2
     6     6     7    1
     7     7     8    2
     8     8     1    1
     9     1     2    2
    10     1    14    1
    11    14    15    1
    12    15    16    1
    13    16    17    1
    14    17    18    1
    15    18    19    1
    16    19    20    1
    17    20    21    1
    18    19    22    1
    19    22    23    1
    20     8     9    1
    21     9    10    2
    22    10    11    1
    23    11     3    1
    24    11     7    1
    25    21    16    1
    26    23    16    1
@<TRIPOS>MOLECULE
*****
 23 26 0 0 0
SMALL
GASTEIGER

@<TRIPOS>ATOM
      1 C          -7.8755  -18.3733   22.9370 C.2     1  UNL1        0.3425
      2 O          -8.5938  -17.1398   23.3976 O.2     1  UNL1       -0.2448
      3 C          -3.2320  -19.5364   20.8402 C.2     1  UNL1        0.1425
      4 C          -3.6852  -20.6724   19.9720 C.2     1  UNL1        0.0347
      5 C          -5.1287  -21.0802   19.9632 C.2     1  UNL1        0.0026
      6 C          -6.1190  -20.3519   20.8227 C.2     1  UNL1       -0.0016
      7 C          -5.6658  -19.2159   21.6910 C.2     1  UNL1        0.0148
      8 C          -6.4068  -18.3181   22.6371 C.2     1  UNL1        0.0926
      9 C          -5.4213  -17.3555   23.2306 C.2     1  UNL1        0.1001
     10 N          -4.0712  -17.6584   22.6513 N.2     1  UNL1       -0.2585
     11 C          -4.2223  -18.8081   21.6998 C.3     1  UNL1        0.1818
     12 C          -1.3675  -17.8461   20.1949 C.3     1  UNL1        0.2521
     13 O          -1.7885  -19.1286   20.8490 O.2     1  UNL1       -0.4734
     14 O          -8.6259  -19.6623   22.7764 O.3     1  UNL1       -0.4454
     15 C         -10.1258  -19.6603   22.7640 C.3     1  UNL1        0.2087
     16 C         -10.8674  -18.6766   21.9083 C.3     1  UNL1        0.0445
     17 C         -10.5469  -18.5621   20.4475 C.3     1  UNL1        0.0210
     18 C         -11.2886  -17.5783   19.5918 C.3     1  UNL1        0.0722
     19 N         -12.3508  -16.7090   20.1970 N.3     1  UNL1       -0.2727
     20 C         -12.6712  -16.8235   21.6579 C.3     1  UNL1        0.0722
     21 C         -11.9295  -17.8074   22.5136 C.3     1  UNL1        0.0210
     22 C         -11.9712  -17.2334   20.7059 C.3     1  UNL1        0.0722
     23 C         -11.3006  -18.1229   21.4797 C.3     1  UNL1        0.0210
@<TRIPOS>BOND
     1    12    13    1
     2    13     3    1
     3     3     4    2
     4     4     5    1
     5     5     6    2
     6     6     7    1
     7     7     8    2
     8     8     1    1
     9     1     2    2
    10     1    14    1
    11    14    15    1
    12    15    16    1
    13    16    17    1
    14    17    18    1
    15    18    19    1
    16    19    20    1
    17    20    21    1
    18    19    22    1
    19    22    23    1
    20     8     9    1
    21     9    10    2
    22    10    11    1
    23    11     3    1
    24    11     7    1
    25    21    16    1
    26    23    16    1
@<TRIPOS>MOLECULE
*****
 23 26 0 0 0
SMALL
GASTEIGER

@<TRIPOS>ATOM
      1 C          -6.3959  -20.4119   21.4761 C.2     1  UNL1        0.3425
      2 O          -6.3021  -21.6618   22.3000 O.2     1  UNL1       -0.2448
      3 C          -6.7978  -15.7742   23.8511 C.2     1  UNL1        0.1425
      4 C          -5.3365  -15.5567   24.1106 C.2     1  UNL1        0.0347
      5 C          -4.3361  -16.5858   23.6747 C.2     1  UNL1        0.0026
      6 C          -4.7969  -17.8324   22.9794 C.2     1  UNL1       -0.0016
      7 C          -6.2582  -18.0500   22.7200 C.2     1  UNL1        0.0148
      8 C          -7.0044  -19.1719   22.0610 C.2     1  UNL1        0.0926
      9 C          -8.4661  -18.8363   22.0896 C.2     1  UNL1        0.1001
     10 N          -8.6232  -17.5068   22.7662 N.2     1  UNL1       -0.2585
     11 C          -7.2586  -17.0208   23.1558 C.3     1  UNL1        0.1818
     12 C          -8.7849  -15.0694   25.3693 C.3     1  UNL1        0.2521
     13 O          -7.7982  -14.7451   24.2870 O.2     1  UNL1       -0.4734
     14 O          -5.8809  -20.4019   20.0672 O.3     1  UNL1       -0.4454
     15 C          -4.4289  -20.6643   19.7975 C.3     1  UNL1        0.2087
     16 C          -3.4112  -19.5957   20.0662 C.3     1  UNL1        0.0445
     17 C          -2.4899  -19.7164   21.2437 C.3     1  UNL1        0.0210
     18 C          -1.4722  -18.6477   21.5124 C.3     1  UNL1        0.0722
     19 N          -1.3758  -17.4582   20.6036 N.3     1  UNL1       -0.2727
     20 C          -2.2972  -17.3374   19.4261 C.3     1  UNL1        0.0722
     21 C          -3.3149  -18.4062   19.1574 C.3     1  UNL1        0.0210
     22 C          -1.9494  -18.0183   20.4159 C.3     1  UNL1        0.0722
     23 C          -2.8697  -18.9846   20.1729 C.3     1  UNL1        0.0210
@<TRIPOS>BOND
     1    12    13    1
     2    13     3    1
     3     3     4    2
     4     4     5    1
     5     5     6    2
     6     6     7    1
     7     7     8    2
     8     8     1    1
     9     1     2    2
    10     1    14    1
    11    14    15    1
    12    15    16    1
    13    16    17    1
    14    17    18    1
    15    18    19    1
    16    19    20    1
    17    20    21    1
    18    19    22    1
    19    22    23    1
    20     8     9    1
    21     9    10    2
    22    10    11    1
    23    11     3    1
    24    11     7    1
    25    21    16    1
    26    23    16    1
@<TRIPOS>MOLECULE
*****
 23 26 0 0 0
SMALL
GASTEIGER

@<TRIPOS>ATOM
      1 C         -13.9196   -7.7820   17.6079 C.2     1  UNL1        0.3425
      2 O         -14.4476   -8.7748   18.6006 O.2     1  UNL1       -0.2448
      3 C         -15.0961   -2.9035   19.0663 C.2     1  UNL1        0.1425
      4 C         -14.4242   -2.9296   20.4071 C.2     1  UNL1        0.0347
      5 C         -13.7155   -4.1691   20.8669 C.2     1  UNL1        0.0026
      6 C         -13.6787   -5.3825   19.9858 C.2     1  UNL1       -0.0016
      7 C         -14.3505   -5.3564   18.6450 C.2     1  UNL1        0.0148
      8 C         -14.4803   -6.3914   17.5670 C.2     1  UNL1        0.0926
      9 C         -15.2691   -5.7915   16.4410 C.2     1  UNL1        0.1001
     10 N         -15.6269   -4.3858   16.8231 N.2     1  UNL1       -0.2585
     11 C         -15.0592   -4.1169   18.1852 C.3     1  UNL1        0.1818
     12 C         -15.4240   -0.3285   19.1732 C.3     1  UNL1        0.2521
     13 O         -15.8048   -1.6640   18.6065 O.2     1  UNL1       -0.4734
     14 O         -12.8307   -8.1800   16.6559 O.3     1  UNL1       -0.4454
     15 C         -11.7411   -7.2075   16.3139 C.3     1  UNL1        0.2087
     16 C         -10.8988   -6.6116   17.4027 C.3     1  UNL1        0.0445
     17 C         -10.0540   -7.4989   18.2681 C.3     1  UNL1        0.0210
     18 C          -9.2117   -6.9030   19.3569 C.3     1  UNL1        0.0722
     19 N          -9.2142   -5.4197   19.5803 N.3     1  UNL1       -0.2727
     20 C         -10.0589   -4.5324   18.7148 C.3     1  UNL1        0.0722
     21 C         -10.9013   -5.1283   17.6260 C.3     1  UNL1        0.0210
     22 C          -9.6921   -5.7002   18.9713 C.3     1  UNL1        0.0722
     23 C         -10.4537   -6.2390   17.9867 C.3     1  UNL1        0.0210
@<TRIPOS>BOND
     1    12    13    1
     2    13     3    1
     3     3     4    2
     4     4     5    1
     5     5     6    2
     6     6     7    1
     7     7     8    2
     8     8     1    1
     9     1     2    2
    10     1    14    1
    11    14    15    1
    12    15    16    1
    13    16    17    1
    14    17    18    1
    15    18    19    1
    16    19    20    1
    17    20    21    1
    18    19    22    1
    19    22    23    1
    20     8     9    1
    21     9    10    2
    22    10    11    1
    23    11     3    1
    24    11     7    1
    25    21    16    1
    26    23    16    1
