@<TRIPOS>MOLECULE
*****
 39 45 0 0 0
SMALL
GASTEIGER

@<TRIPOS>ATOM
      1 C           5.7490   -1.9630   32.6220 C.2     1  UNL1       -0.0378
      2 C           5.7231   -1.2408   31.3075 C.2     1  UNL1       -0.0080
      3 C           6.1252   -1.9552   30.0512 C.2     1  UNL1        0.0022
      4 C           6.5530   -3.3916   30.1095 C.2     1  UNL1        0.0350
      5 C           7.0008   -4.3495   29.0455 C.2     1  UNL1        0.1040
      6 N           7.3033   -5.6636   29.7023 N.2     1  UNL1       -0.1483
      7 N           7.0426   -5.5180   31.1723 N.2     1  UNL1       -0.1520
      8 C           6.5789   -4.1138   31.4239 C.2     1  UNL1        0.0860
      9 C           6.1769   -3.3995   32.6802 C.3     1  UNL1        0.0697
     10 C           4.2572    1.4259   38.3754 C.ar    1  UNL1        0.1385
     11 C           5.5313    2.1161   38.7630 C.ar    1  UNL1        0.0382
     12 C           6.7588    1.9558   37.9159 C.ar    1  UNL1        0.0175
     13 C           6.7122    1.1053   36.6813 C.ar    1  UNL1        0.0469
     14 C           5.4381    0.4151   36.2936 C.ar    1  UNL1        0.0022
     15 C           4.2105    0.5754   37.1406 C.ar    1  UNL1        0.0343
     16 C           5.6928   -0.3531   35.0307 C.3     1  UNL1        0.0928
     17 C           4.3048   -0.9069   34.9014 C.3     1  UNL1        0.0179
     18 C           5.3469   -1.2487   33.8782 C.3     1  UNL1        0.0315
     19 C           7.1244   -0.1378   34.6379 C.2     1  UNL1        0.2293
     20 O           7.8062   -0.7213   33.4360 O.2     1  UNL1       -0.2744
     21 N           7.7544    0.7636   35.6580 N.am    1  UNL1       -0.2839
     22 H           8.6880    1.0761   35.6562 H       1  UNL1        0.1549
     23 C           1.7967    0.7894   38.9145 C.3     1  UNL1        0.2525
     24 O           3.0296    1.5862   39.2224 O.3     1  UNL1       -0.4714
     25 C           7.1242   -4.0464   27.5816 C.2     1  UNL1        0.0209
     26 C           6.9261   -5.1366   26.5707 C.2     1  UNL1        0.0016
     27 C           7.0495   -4.8336   25.1067 C.ar    1  UNL1        0.0000
     28 C           6.1870   -3.7758   24.4845 C.ar    1  UNL1       -0.0003
     29 C           6.3104   -3.4727   23.0207 C.ar    1  UNL1       -0.0029
     30 C           7.2963   -4.2274   22.1791 C.ar    1  UNL1       -0.0061
     31 C           8.1589   -5.2851   22.8013 C.ar    1  UNL1       -0.0029
     32 C           8.0355   -5.5882   24.2652 C.ar    1  UNL1       -0.0003
     33 C           7.4197   -3.9243   20.7152 C.3     1  UNL1        0.0993
     34 N           6.2501   -3.3595   19.9650 N.3     1  UNL1       -0.2646
     35 C           5.0374   -4.2071   19.7180 C.3     1  UNL1        0.1049
     36 C           3.8677   -3.6423   18.9677 C.3     1  UNL1        0.1595
     37 O           3.9107   -2.2299   18.4646 O.3     1  UNL1       -0.3508
     38 C           5.1233   -1.3823   18.7116 C.3     1  UNL1        0.1595
     39 C           6.2930   -1.9471   19.4618 C.3     1  UNL1        0.1049
@<TRIPOS>BOND
     1    23    24    1
     2    24    10    1
     3    10    11   ar
     4    11    12   ar
     5    12    13   ar
     6    13    14   ar
     7    14    15   ar
     8    14    16    1
     9    16    17    1
    10    17    18    1
    11    18     1    1
    12     1     2    2
    13     2     3    1
    14     3     4    2
    15     4     5    1
    16     5    25    1
    17    25    26    2
    18    26    27    1
    19    27    28   ar
    20    28    29   ar
    21    29    30   ar
    22    30    33    1
    23    33    34    1
    24    34    35    1
    25    35    36    1
    26    36    37    1
    27    37    38    1
    28    38    39    1
    29    30    31   ar
    30    31    32   ar
    31     5     6    2
    32     6     7    1
    33     7     8    2
    34     8     9    1
    35    16    19    1
    36    19    20    2
    37    19    21   am
    38    15    10   ar
    39    18    16    1
    40     9     1    1
    41    21    13    1
    42     8     4    1
    43    32    27   ar
    44    39    34    1
    45    21    22    1
@<TRIPOS>MOLECULE
*****
 39 45 0 0 0
SMALL
GASTEIGER

@<TRIPOS>ATOM
      1 C           6.5324   -3.7080   25.7395 C.2     1  UNL1       -0.0378
      2 C           6.3216   -2.5572   26.6781 C.2     1  UNL1       -0.0080
      3 C           6.4830   -2.7556   28.1562 C.2     1  UNL1        0.0022
      4 C           6.8551   -4.1048   28.6956 C.2     1  UNL1        0.0350
      5 C           7.0830   -4.5991   30.0934 C.2     1  UNL1        0.1040
      6 N           7.4346   -6.0553   30.0186 N.2     1  UNL1       -0.1483
      7 N           7.4241   -6.4612   28.5746 N.2     1  UNL1       -0.1520
      8 C           7.0660   -5.2557   27.7569 C.2     1  UNL1        0.0860
      9 C           6.9046   -5.0573   26.2789 C.3     1  UNL1        0.0697
     10 C           6.1563   -2.7349   18.9776 C.ar    1  UNL1        0.1385
     11 C           7.5584   -2.4157   18.5508 C.ar    1  UNL1        0.0382
     12 C           8.6604   -2.3731   19.5676 C.ar    1  UNL1        0.0175
     13 C           8.3603   -2.6496   21.0110 C.ar    1  UNL1        0.0469
     14 C           6.9581   -2.9687   21.4377 C.ar    1  UNL1        0.0022
     15 C           5.8561   -3.0114   20.4210 C.ar    1  UNL1        0.0343
     16 C           6.9652   -3.1957   22.9204 C.3     1  UNL1        0.0928
     17 C           5.4974   -3.4799   23.0425 C.3     1  UNL1        0.0179
     18 C           6.3710   -3.5096   24.2615 C.3     1  UNL1        0.0315
     19 C           8.3717   -3.0169   23.4100 C.2     1  UNL1        0.2293
     20 O           8.8347   -3.1518   24.8304 O.2     1  UNL1       -0.2744
     21 N           9.2339   -2.6793   22.2300 N.am    1  UNL1       -0.2839
     22 H          10.2031   -2.5074   22.2517 H       1  UNL1        0.1549
     23 C           4.2879   -1.5306   17.6326 C.3     1  UNL1        0.2525
     24 O           5.0542   -2.7776   17.9609 O.3     1  UNL1       -0.4714
     25 C           6.9777   -3.7806   31.3460 C.2     1  UNL1        0.0209
     26 C           5.7923   -2.8869   31.5605 C.2     1  UNL1        0.0016
     27 C           5.6869   -2.0684   32.8131 C.ar    1  UNL1        0.0000
     28 C           6.8551   -1.2476   33.2732 C.ar    1  UNL1       -0.0003
     29 C           6.7498   -0.4291   34.5258 C.ar    1  UNL1       -0.0029
     30 C           5.4762   -0.4314   35.3182 C.ar    1  UNL1       -0.0061
     31 C           4.3080   -1.2522   34.8582 C.ar    1  UNL1       -0.0029
     32 C           4.4133   -2.0707   33.6056 C.ar    1  UNL1       -0.0003
     33 C           5.3709    0.3871   36.5708 C.3     1  UNL1        0.0993
     34 N           4.1344    1.1928   36.8386 N.3     1  UNL1       -0.2646
     35 C           3.6871    2.2304   35.8519 C.3     1  UNL1        0.1049
     36 C           2.4505    3.0361   36.1196 C.3     1  UNL1        0.1595
     37 O           1.6613    2.8044   37.3740 O.3     1  UNL1       -0.3508
     38 C           2.1086    1.7669   38.3606 C.3     1  UNL1        0.1595
     39 C           3.3452    0.9611   38.0929 C.3     1  UNL1        0.1049
@<TRIPOS>BOND
     1    23    24    1
     2    24    10    1
     3    10    11   ar
     4    11    12   ar
     5    12    13   ar
     6    13    14   ar
     7    14    15   ar
     8    14    16    1
     9    16    17    1
    10    17    18    1
    11    18     1    1
    12     1     2    2
    13     2     3    1
    14     3     4    2
    15     4     5    1
    16     5    25    1
    17    25    26    2
    18    26    27    1
    19    27    28   ar
    20    28    29   ar
    21    29    30   ar
    22    30    33    1
    23    33    34    1
    24    34    35    1
    25    35    36    1
    26    36    37    1
    27    37    38    1
    28    38    39    1
    29    30    31   ar
    30    31    32   ar
    31     5     6    2
    32     6     7    1
    33     7     8    2
    34     8     9    1
    35    16    19    1
    36    19    20    2
    37    19    21   am
    38    15    10   ar
    39    18    16    1
    40     9     1    1
    41    21    13    1
    42     8     4    1
    43    32    27   ar
    44    39    34    1
    45    21    22    1
@<TRIPOS>MOLECULE
*****
 39 45 0 0 0
SMALL
GASTEIGER

@<TRIPOS>ATOM
      1 C           2.1781    0.5368   24.4222 C.2     1  UNL1       -0.0378
      2 C           3.0792    0.7728   25.5979 C.2     1  UNL1       -0.0080
      3 C           2.5467    1.4471   26.8275 C.2     1  UNL1        0.0022
      4 C           1.1132    1.8854   26.8813 C.2     1  UNL1        0.0350
      5 C           0.3121    2.5693   27.9493 C.2     1  UNL1        0.1040
      6 N          -1.0840    2.7559   27.4337 N.2     1  UNL1       -0.1483
      7 N          -1.1458    2.1874   26.0470 N.2     1  UNL1       -0.1520
      8 C           0.2121    1.6494   25.7056 C.2     1  UNL1        0.0860
      9 C           0.7446    0.9751   24.4760 C.3     1  UNL1        0.0697
     10 C           4.5860   -2.2164   18.6400 C.ar    1  UNL1        0.1385
     11 C           4.6280   -1.0842   17.6569 C.ar    1  UNL1        0.0382
     12 C           4.1853    0.2872   18.0730 C.ar    1  UNL1        0.0175
     13 C           3.7007    0.5265   19.4723 C.ar    1  UNL1        0.0469
     14 C           3.6587   -0.6056   20.4554 C.ar    1  UNL1        0.0022
     15 C           4.1014   -1.9771   20.0393 C.ar    1  UNL1        0.0343
     16 C           3.1365   -0.0710   21.7559 C.3     1  UNL1        0.0928
     17 C           3.2068   -1.3717   22.4997 C.3     1  UNL1        0.0179
     18 C           2.7106   -0.1375   23.1926 C.3     1  UNL1        0.0315
     19 C           2.8558    1.3915   21.5766 C.2     1  UNL1        0.2293
     20 O           2.3204    2.3215   22.6247 O.2     1  UNL1       -0.2744
     21 N           3.2045    1.7608   20.1652 N.am    1  UNL1       -0.2839
     22 H           3.1221    2.6562   19.7641 H       1  UNL1        0.1549
     23 C           4.4967   -4.7960   18.9362 C.3     1  UNL1        0.2525
     24 O           5.0287   -3.5878   18.2239 O.3     1  UNL1       -0.4714
     25 C           0.8184    2.9922   29.2965 C.2     1  UNL1        0.0209
     26 C           0.4934    2.1737   30.5107 C.2     1  UNL1        0.0016
     27 C           0.9996    2.5965   31.8579 C.ar    1  UNL1        0.0000
     28 C           0.5425    3.8932   32.4577 C.ar    1  UNL1       -0.0003
     29 C           1.0486    4.3161   33.8049 C.ar    1  UNL1       -0.0029
     30 C           2.0119    3.4424   34.5522 C.ar    1  UNL1       -0.0061
     31 C           2.4690    2.1457   33.9525 C.ar    1  UNL1       -0.0029
     32 C           1.9629    1.7228   32.6053 C.ar    1  UNL1       -0.0003
     33 C           2.5181    3.8653   35.8994 C.3     1  UNL1        0.0993
     34 N           2.3233    2.9717   37.0883 N.3     1  UNL1       -0.2646
     35 C           3.2654    1.8297   37.3305 C.3     1  UNL1        0.1049
     36 C           3.0707    0.9360   38.5193 C.3     1  UNL1        0.1595
     37 O           1.9339    1.1843   39.4661 O.3     1  UNL1       -0.3508
     38 C           0.9920    2.3262   39.2239 C.3     1  UNL1        0.1595
     39 C           1.1866    3.2199   38.0350 C.3     1  UNL1        0.1049
@<TRIPOS>BOND
     1    23    24    1
     2    24    10    1
     3    10    11   ar
     4    11    12   ar
     5    12    13   ar
     6    13    14   ar
     7    14    15   ar
     8    14    16    1
     9    16    17    1
    10    17    18    1
    11    18     1    1
    12     1     2    2
    13     2     3    1
    14     3     4    2
    15     4     5    1
    16     5    25    1
    17    25    26    2
    18    26    27    1
    19    27    28   ar
    20    28    29   ar
    21    29    30   ar
    22    30    33    1
    23    33    34    1
    24    34    35    1
    25    35    36    1
    26    36    37    1
    27    37    38    1
    28    38    39    1
    29    30    31   ar
    30    31    32   ar
    31     5     6    2
    32     6     7    1
    33     7     8    2
    34     8     9    1
    35    16    19    1
    36    19    20    2
    37    19    21   am
    38    15    10   ar
    39    18    16    1
    40     9     1    1
    41    21    13    1
    42     8     4    1
    43    32    27   ar
    44    39    34    1
    45    21    22    1
@<TRIPOS>MOLECULE
*****
 39 45 0 0 0
SMALL
GASTEIGER

@<TRIPOS>ATOM
      1 C           7.1398   -2.5402   31.0859 C.2     1  UNL1       -0.0378
      2 C           6.6055   -2.0014   29.7920 C.2     1  UNL1       -0.0080
      3 C           6.5715   -2.8747   28.5729 C.2     1  UNL1        0.0022
      4 C           7.0717   -4.2869   28.6478 C.2     1  UNL1        0.0350
      5 C           7.1626   -5.3753   27.6197 C.2     1  UNL1        0.1040
      6 N           7.7530   -6.5868   28.2781 N.2     1  UNL1       -0.1483
      7 N           8.0271   -6.2471   29.7132 N.2     1  UNL1       -0.1520
      8 C           7.6060   -4.8257   29.9417 C.2     1  UNL1        0.0860
      9 C           7.6400   -3.9524   31.1608 C.3     1  UNL1        0.0697
     10 C           6.9510    1.3388   36.7189 C.ar    1  UNL1        0.1385
     11 C           5.5821    1.1252   37.2938 C.ar    1  UNL1        0.0382
     12 C           4.6156    0.2059   36.6077 C.ar    1  UNL1        0.0175
     13 C           5.0179   -0.4998   35.3468 C.ar    1  UNL1        0.0469
     14 C           6.3868   -0.2863   34.7718 C.ar    1  UNL1        0.0022
     15 C           7.3534    0.6330   35.4579 C.ar    1  UNL1        0.0343
     16 C           6.5000   -1.1125   33.5251 C.3     1  UNL1        0.0928
     17 C           7.9067   -0.7086   33.1964 C.3     1  UNL1        0.0179
     18 C           7.1739   -1.6669   32.3050 C.3     1  UNL1        0.0315
     19 C           5.2010   -1.8368   33.3295 C.2     1  UNL1        0.2293
     20 O           4.8753   -2.7750   32.2054 O.2     1  UNL1       -0.2744
     21 N           4.2851   -1.4581   34.4553 N.am    1  UNL1       -0.2839
     22 H           3.3645   -1.7817   34.5862 H       1  UNL1        0.1549
     23 C           7.4078    3.4081   38.2219 C.3     1  UNL1        0.2525
     24 O           7.9176    2.2581   37.4049 O.3     1  UNL1       -0.4714
     25 C           6.7376   -5.2706   26.1849 C.2     1  UNL1        0.0209
     26 C           7.2148   -4.1245   25.3431 C.2     1  UNL1        0.0016
     27 C           6.7899   -4.0197   23.9084 C.ar    1  UNL1        0.0000
     28 C           7.7445   -4.3956   22.8141 C.ar    1  UNL1       -0.0003
     29 C           7.3197   -4.2908   21.3794 C.ar    1  UNL1       -0.0029
     30 C           5.9403   -3.8101   21.0389 C.ar    1  UNL1       -0.0061
     31 C           4.9856   -3.4342   22.1331 C.ar    1  UNL1       -0.0029
     32 C           5.4105   -3.5389   23.5679 C.ar    1  UNL1       -0.0003
     33 C           5.5154   -3.7053   19.6042 C.3     1  UNL1        0.0993
     34 N           5.2793   -2.3582   18.9883 N.3     1  UNL1       -0.2646
     35 C           3.8789   -1.8867   18.7299 C.3     1  UNL1        0.1049
     36 C           3.6427   -0.5395   18.1140 C.3     1  UNL1        0.1595
     37 O           4.8070    0.3362   17.7565 O.3     1  UNL1       -0.3508
     38 C           6.2073   -0.1353   18.0149 C.3     1  UNL1        0.1595
     39 C           6.4435   -1.4825   18.6308 C.3     1  UNL1        0.1049
@<TRIPOS>BOND
     1    23    24    1
     2    24    10    1
     3    10    11   ar
     4    11    12   ar
     5    12    13   ar
     6    13    14   ar
     7    14    15   ar
     8    14    16    1
     9    16    17    1
    10    17    18    1
    11    18     1    1
    12     1     2    2
    13     2     3    1
    14     3     4    2
    15     4     5    1
    16     5    25    1
    17    25    26    2
    18    26    27    1
    19    27    28   ar
    20    28    29   ar
    21    29    30   ar
    22    30    33    1
    23    33    34    1
    24    34    35    1
    25    35    36    1
    26    36    37    1
    27    37    38    1
    28    38    39    1
    29    30    31   ar
    30    31    32   ar
    31     5     6    2
    32     6     7    1
    33     7     8    2
    34     8     9    1
    35    16    19    1
    36    19    20    2
    37    19    21   am
    38    15    10   ar
    39    18    16    1
    40     9     1    1
    41    21    13    1
    42     8     4    1
    43    32    27   ar
    44    39    34    1
    45    21    22    1
@<TRIPOS>MOLECULE
*****
 39 45 0 0 0
SMALL
GASTEIGER

@<TRIPOS>ATOM
      1 C          -1.4998    3.3735   26.9361 C.2     1  UNL1       -0.0378
      2 C          -0.9750    1.9723   27.0427 C.2     1  UNL1       -0.0080
      3 C           0.3286    1.7105   27.7371 C.2     1  UNL1        0.0022
      4 C           1.1074    2.8498   28.3249 C.2     1  UNL1        0.0350
      5 C           2.4129    2.8987   29.0618 C.2     1  UNL1        0.1040
      6 N           2.6951    4.3300   29.4107 N.2     1  UNL1       -0.1483
      7 N           1.5638    5.1658   28.8893 N.2     1  UNL1       -0.1520
      8 C           0.5826    4.2510   28.2182 C.2     1  UNL1        0.0860
      9 C          -0.7210    4.5128   27.5239 C.3     1  UNL1        0.0697
     10 C          -7.2681    4.5465   23.4485 C.ar    1  UNL1        0.1385
     11 C          -6.8626    4.5224   22.0046 C.ar    1  UNL1        0.0382
     12 C          -5.4310    4.2741   21.6317 C.ar    1  UNL1        0.0175
     13 C          -4.4051    4.0499   22.7026 C.ar    1  UNL1        0.0469
     14 C          -4.8105    4.0740   24.1466 C.ar    1  UNL1        0.0022
     15 C          -6.2420    4.3223   24.5196 C.ar    1  UNL1        0.0343
     16 C          -3.5864    3.8220   24.9761 C.3     1  UNL1        0.0928
     17 C          -4.2780    3.9022   26.3046 C.3     1  UNL1        0.0179
     18 C          -2.8033    3.6353   26.2417 C.3     1  UNL1        0.0315
     19 C          -2.4244    3.6421   24.0447 C.2     1  UNL1        0.2293
     20 O          -1.0055    3.3693   24.4477 O.2     1  UNL1       -0.2744
     21 N          -2.9303    3.7830   22.6397 N.am    1  UNL1       -0.2839
     22 H          -2.3894    3.7126   21.8201 H       1  UNL1        0.1549
     23 C          -9.0525    5.9446   24.7179 C.3     1  UNL1        0.2525
     24 O          -8.6996    4.7948   23.8215 O.3     1  UNL1       -0.4714
     25 C           3.2835    1.7227   29.3920 C.2     1  UNL1        0.0209
     26 C           3.5570    1.3706   30.8242 C.2     1  UNL1        0.0016
     27 C           4.4276    0.1945   31.1544 C.ar    1  UNL1        0.0000
     28 C           5.8534    0.1629   30.6895 C.ar    1  UNL1       -0.0003
     29 C           6.7240   -1.0131   31.0197 C.ar    1  UNL1       -0.0029
     30 C           6.1688   -2.1574   31.8148 C.ar    1  UNL1       -0.0061
     31 C           4.7431   -2.1258   32.2798 C.ar    1  UNL1       -0.0029
     32 C           3.8724   -0.9498   31.9496 C.ar    1  UNL1       -0.0003
     33 C           7.0395   -3.3334   32.1450 C.3     1  UNL1        0.0993
     34 N           7.3374   -4.3639   31.0967 N.3     1  UNL1       -0.2646
     35 C           8.4155   -5.3807   31.3294 C.3     1  UNL1        0.1049
     36 C           8.7135   -6.4112   30.2810 C.3     1  UNL1        0.1595
     37 O           7.9334   -6.4250   28.9998 O.3     1  UNL1       -0.3508
     38 C           6.8554   -5.4083   28.7671 C.3     1  UNL1        0.1595
     39 C           6.5574   -4.3778   29.8155 C.3     1  UNL1        0.1049
@<TRIPOS>BOND
     1    23    24    1
     2    24    10    1
     3    10    11   ar
     4    11    12   ar
     5    12    13   ar
     6    13    14   ar
     7    14    15   ar
     8    14    16    1
     9    16    17    1
    10    17    18    1
    11    18     1    1
    12     1     2    2
    13     2     3    1
    14     3     4    2
    15     4     5    1
    16     5    25    1
    17    25    26    2
    18    26    27    1
    19    27    28   ar
    20    28    29   ar
    21    29    30   ar
    22    30    33    1
    23    33    34    1
    24    34    35    1
    25    35    36    1
    26    36    37    1
    27    37    38    1
    28    38    39    1
    29    30    31   ar
    30    31    32   ar
    31     5     6    2
    32     6     7    1
    33     7     8    2
    34     8     9    1
    35    16    19    1
    36    19    20    2
    37    19    21   am
    38    15    10   ar
    39    18    16    1
    40     9     1    1
    41    21    13    1
    42     8     4    1
    43    32    27   ar
    44    39    34    1
    45    21    22    1
@<TRIPOS>MOLECULE
*****
 39 45 0 0 0
SMALL
GASTEIGER

@<TRIPOS>ATOM
      1 C           3.2170    0.6652   18.9109 C.2     1  UNL1       -0.0378
      2 C           3.4768    0.2278   20.3220 C.2     1  UNL1       -0.0080
      3 C           4.6315   -0.6804   20.6252 C.2     1  UNL1        0.0022
      4 C           5.5263   -1.1512   19.5173 C.2     1  UNL1        0.0350
      5 C           6.7320   -2.0436   19.5115 C.2     1  UNL1        0.1040
      6 N           7.2174   -2.1578   18.0968 N.2     1  UNL1       -0.1483
      7 N           6.3117   -1.3360   17.2283 N.2     1  UNL1       -0.1520
      8 C           5.2666   -0.7139   18.1062 C.2     1  UNL1        0.0860
      9 C           4.1119    0.1943   17.8030 C.3     1  UNL1        0.0697
     10 C          -1.8167    5.0911   17.5377 C.ar    1  UNL1        0.1385
     11 C          -1.1550    6.4369   17.5064 C.ar    1  UNL1        0.0382
     12 C           0.3200    6.5533   17.7534 C.ar    1  UNL1        0.0175
     13 C           1.1331    5.3240   18.0318 C.ar    1  UNL1        0.0469
     14 C           0.4715    3.9782   18.0631 C.ar    1  UNL1        0.0022
     15 C          -1.0035    3.8617   17.8161 C.ar    1  UNL1        0.0343
     16 C           1.5234    2.9513   18.3613 C.3     1  UNL1        0.0928
     17 C           0.6015    1.7685   18.3289 C.3     1  UNL1        0.0179
     18 C           2.0624    1.5734   18.6077 C.3     1  UNL1        0.0315
     19 C           2.8352    3.6625   18.5143 C.2     1  UNL1        0.2293
     20 O           4.1563    3.0201   18.8176 O.2     1  UNL1       -0.2744
     21 N           2.5941    5.1289   18.3106 N.am    1  UNL1       -0.2839
     22 H           3.2750    5.8387   18.3526 H       1  UNL1        0.1549
     23 C          -3.8693    3.6819   16.7953 C.3     1  UNL1        0.2525
     24 O          -3.2916    4.9745   17.2907 O.3     1  UNL1       -0.4714
     25 C           7.3447   -2.7056   20.7100 C.2     1  UNL1        0.0209
     26 C           6.4991   -3.5556   21.6115 C.2     1  UNL1        0.0016
     27 C           7.1117   -4.2176   22.8100 C.ar    1  UNL1        0.0000
     28 C           8.3450   -5.0571   22.6545 C.ar    1  UNL1       -0.0003
     29 C           8.9577   -5.7192   23.8530 C.ar    1  UNL1       -0.0029
     30 C           8.3370   -5.5416   25.2069 C.ar    1  UNL1       -0.0061
     31 C           7.1037   -4.7021   25.3625 C.ar    1  UNL1       -0.0029
     32 C           6.4911   -4.0401   24.1640 C.ar    1  UNL1       -0.0003
     33 C           8.9497   -6.2037   26.4054 C.3     1  UNL1        0.0993
     34 N           8.6468   -5.6912   27.7821 N.3     1  UNL1       -0.2646
     35 C           7.6007   -6.3649   28.6200 C.3     1  UNL1        0.1049
     36 C           7.2978   -5.8524   29.9968 C.3     1  UNL1        0.1595
     37 O           8.0410   -4.6661   30.5357 O.3     1  UNL1       -0.3508
     38 C           9.0870   -3.9924   29.6980 C.3     1  UNL1        0.1595
     39 C           9.3899   -4.5049   28.3212 C.3     1  UNL1        0.1049
@<TRIPOS>BOND
     1    23    24    1
     2    24    10    1
     3    10    11   ar
     4    11    12   ar
     5    12    13   ar
     6    13    14   ar
     7    14    15   ar
     8    14    16    1
     9    16    17    1
    10    17    18    1
    11    18     1    1
    12     1     2    2
    13     2     3    1
    14     3     4    2
    15     4     5    1
    16     5    25    1
    17    25    26    2
    18    26    27    1
    19    27    28   ar
    20    28    29   ar
    21    29    30   ar
    22    30    33    1
    23    33    34    1
    24    34    35    1
    25    35    36    1
    26    36    37    1
    27    37    38    1
    28    38    39    1
    29    30    31   ar
    30    31    32   ar
    31     5     6    2
    32     6     7    1
    33     7     8    2
    34     8     9    1
    35    16    19    1
    36    19    20    2
    37    19    21   am
    38    15    10   ar
    39    18    16    1
    40     9     1    1
    41    21    13    1
    42     8     4    1
    43    32    27   ar
    44    39    34    1
    45    21    22    1
@<TRIPOS>MOLECULE
*****
 39 45 0 0 0
SMALL
GASTEIGER

@<TRIPOS>ATOM
      1 C           5.9097   -1.9454   32.2121 C.2     1  UNL1       -0.0378
      2 C           5.0913   -1.6935   30.9805 C.2     1  UNL1       -0.0080
      3 C           5.4679   -2.3462   29.6834 C.2     1  UNL1        0.0022
      4 C           6.6627   -3.2506   29.6180 C.2     1  UNL1        0.0350
      5 C           7.2727   -4.0278   28.4893 C.2     1  UNL1        0.1040
      6 N           8.4680   -4.7600   29.0233 N.2     1  UNL1       -0.1483
      7 N           8.5968   -4.4353   30.4821 N.2     1  UNL1       -0.1520
      8 C           7.4811   -3.5025   30.8496 C.2     1  UNL1        0.0860
      9 C           7.1046   -2.8499   32.1466 C.3     1  UNL1        0.0697
     10 C           4.4514    1.2835   38.0653 C.ar    1  UNL1        0.1385
     11 C           5.3993    2.4449   38.1167 C.ar    1  UNL1        0.0382
     12 C           6.3811    2.6615   37.0035 C.ar    1  UNL1        0.0175
     13 C           6.4149    1.7167   35.8389 C.ar    1  UNL1        0.0469
     14 C           5.4670    0.5554   35.7875 C.ar    1  UNL1        0.0022
     15 C           4.4852    0.3387   36.9006 C.ar    1  UNL1        0.0343
     16 C           5.7317   -0.2033   34.5209 C.3     1  UNL1        0.0928
     17 C           4.6826   -1.2518   34.7439 C.3     1  UNL1        0.0179
     18 C           5.5332   -1.2927   33.5091 C.3     1  UNL1        0.0315
     19 C           6.8433    0.4892   33.7895 C.2     1  UNL1        0.2293
     20 O           7.4297    0.0689   32.4744 O.2     1  UNL1       -0.2744
     21 N           7.2656    1.6758   34.6041 N.am    1  UNL1       -0.2839
     22 H           7.9762    2.3155   34.3695 H       1  UNL1        0.1549
     23 C           1.9979    1.1877   38.9146 C.3     1  UNL1        0.2525
     24 O           3.4695    1.0669   39.1784 O.3     1  UNL1       -0.4714
     25 C           6.7747   -4.0661   27.0749 C.2     1  UNL1        0.0209
     26 C           6.3226   -2.8027   26.4045 C.2     1  UNL1        0.0016
     27 C           5.8246   -2.8409   24.9900 C.ar    1  UNL1        0.0000
     28 C           6.4714   -3.7547   23.9917 C.ar    1  UNL1       -0.0003
     29 C           5.9735   -3.7929   22.5773 C.ar    1  UNL1       -0.0029
     30 C           4.8288   -2.9174   22.1612 C.ar    1  UNL1       -0.0061
     31 C           4.1821   -2.0036   23.1596 C.ar    1  UNL1       -0.0029
     32 C           4.6800   -1.9653   24.5740 C.ar    1  UNL1       -0.0003
     33 C           4.3309   -2.9556   20.7468 C.3     1  UNL1        0.0993
     34 N           3.9184   -1.6863   20.0623 N.3     1  UNL1       -0.2646
     35 C           2.4726   -1.2878   20.0291 C.3     1  UNL1        0.1049
     36 C           2.0600   -0.0185   19.3446 C.3     1  UNL1        0.1595
     37 O           3.0932    0.8523   18.6932 O.3     1  UNL1       -0.3508
     38 C           4.5389    0.4538   18.7264 C.3     1  UNL1        0.1595
     39 C           4.9515   -0.8155   19.4109 C.3     1  UNL1        0.1049
@<TRIPOS>BOND
     1    23    24    1
     2    24    10    1
     3    10    11   ar
     4    11    12   ar
     5    12    13   ar
     6    13    14   ar
     7    14    15   ar
     8    14    16    1
     9    16    17    1
    10    17    18    1
    11    18     1    1
    12     1     2    2
    13     2     3    1
    14     3     4    2
    15     4     5    1
    16     5    25    1
    17    25    26    2
    18    26    27    1
    19    27    28   ar
    20    28    29   ar
    21    29    30   ar
    22    30    33    1
    23    33    34    1
    24    34    35    1
    25    35    36    1
    26    36    37    1
    27    37    38    1
    28    38    39    1
    29    30    31   ar
    30    31    32   ar
    31     5     6    2
    32     6     7    1
    33     7     8    2
    34     8     9    1
    35    16    19    1
    36    19    20    2
    37    19    21   am
    38    15    10   ar
    39    18    16    1
    40     9     1    1
    41    21    13    1
    42     8     4    1
    43    32    27   ar
    44    39    34    1
    45    21    22    1
@<TRIPOS>MOLECULE
*****
 39 45 0 0 0
SMALL
GASTEIGER

@<TRIPOS>ATOM
      1 C          -1.9072    3.5639   24.3069 C.2     1  UNL1       -0.0378
      2 C          -1.1933    2.5620   25.1651 C.2     1  UNL1       -0.0080
      3 C           0.0733    1.9236   24.6769 C.2     1  UNL1        0.0022
      4 C           0.6259    2.2870   23.3306 C.2     1  UNL1        0.0350
      5 C           1.8454    1.8265   22.5885 C.2     1  UNL1        0.1040
      6 N           1.8851    2.5437   21.2717 N.2     1  UNL1       -0.1483
      7 N           0.6902    3.4475   21.1999 N.2     1  UNL1       -0.1520
      8 C          -0.0881    3.2889   22.4724 C.2     1  UNL1        0.0860
      9 C          -1.3546    3.9273   22.9605 C.3     1  UNL1        0.0697
     10 C          -7.8592    6.3230   26.2494 C.ar    1  UNL1        0.1385
     11 C          -8.8555    5.8603   25.2279 C.ar    1  UNL1        0.0382
     12 C          -8.4155    4.9785   24.0970 C.ar    1  UNL1        0.0175
     13 C          -6.9794    4.5594   23.9876 C.ar    1  UNL1        0.0469
     14 C          -5.9832    5.0221   25.0091 C.ar    1  UNL1        0.0022
     15 C          -6.4230    5.9039   26.1400 C.ar    1  UNL1        0.0343
     16 C          -4.6453    4.4508   24.6437 C.3     1  UNL1        0.0928
     17 C          -3.8960    5.0596   25.7917 C.3     1  UNL1        0.0179
     18 C          -3.1738    4.2023   24.7950 C.3     1  UNL1        0.0315
     19 C          -4.8146    3.6350   23.3963 C.2     1  UNL1        0.2293
     20 O          -3.7315    2.8840   22.6802 O.2     1  UNL1       -0.2744
     21 N          -6.2572    3.7021   22.9909 N.am    1  UNL1       -0.2839
     22 H          -6.6594    3.2610   22.2080 H       1  UNL1        0.1549
     23 C          -7.5876    7.1437   28.6994 C.3     1  UNL1        0.2525
     24 O          -8.2991    7.2047   27.3803 O.3     1  UNL1       -0.4714
     25 C           2.8489    0.8246   23.0774 C.2     1  UNL1        0.0209
     26 C           2.8333   -0.5759   22.5405 C.2     1  UNL1        0.0016
     27 C           3.8369   -1.5779   23.0294 C.ar    1  UNL1        0.0000
     28 C           4.4216   -1.4442   24.4042 C.ar    1  UNL1       -0.0003
     29 C           5.4251   -2.4461   24.8932 C.ar    1  UNL1       -0.0029
     30 C           5.8439   -3.5817   24.0072 C.ar    1  UNL1       -0.0061
     31 C           5.2592   -3.7155   22.6324 C.ar    1  UNL1       -0.0029
     32 C           4.2556   -2.7136   22.1434 C.ar    1  UNL1       -0.0003
     33 C           6.8474   -4.5837   24.4962 C.3     1  UNL1        0.0993
     34 N           7.2424   -4.6049   25.9430 N.3     1  UNL1       -0.2646
     35 C           6.4675   -5.4389   26.9199 C.3     1  UNL1        0.1049
     36 C           6.8624   -5.4602   28.3668 C.3     1  UNL1        0.1595
     37 O           8.0322   -4.6475   28.8369 O.3     1  UNL1       -0.3508
     38 C           8.8071   -3.8135   27.8602 C.3     1  UNL1        0.1595
     39 C           8.4122   -3.7922   26.4132 C.3     1  UNL1        0.1049
@<TRIPOS>BOND
     1    23    24    1
     2    24    10    1
     3    10    11   ar
     4    11    12   ar
     5    12    13   ar
     6    13    14   ar
     7    14    15   ar
     8    14    16    1
     9    16    17    1
    10    17    18    1
    11    18     1    1
    12     1     2    2
    13     2     3    1
    14     3     4    2
    15     4     5    1
    16     5    25    1
    17    25    26    2
    18    26    27    1
    19    27    28   ar
    20    28    29   ar
    21    29    30   ar
    22    30    33    1
    23    33    34    1
    24    34    35    1
    25    35    36    1
    26    36    37    1
    27    37    38    1
    28    38    39    1
    29    30    31   ar
    30    31    32   ar
    31     5     6    2
    32     6     7    1
    33     7     8    2
    34     8     9    1
    35    16    19    1
    36    19    20    2
    37    19    21   am
    38    15    10   ar
    39    18    16    1
    40     9     1    1
    41    21    13    1
    42     8     4    1
    43    32    27   ar
    44    39    34    1
    45    21    22    1
@<TRIPOS>MOLECULE
*****
 39 45 0 0 0
SMALL
GASTEIGER

@<TRIPOS>ATOM
      1 C          -1.1355    2.9409   26.3150 C.2     1  UNL1       -0.0378
      2 C          -0.5422    4.0736   27.0992 C.2     1  UNL1       -0.0080
      3 C           0.2100    3.7951   28.3668 C.2     1  UNL1        0.0022
      4 C           0.3688    2.3841   28.8501 C.2     1  UNL1        0.0350
      5 C           1.0524    1.8064   30.0538 C.2     1  UNL1        0.1040
      6 N           0.8816    0.3167   30.0136 N.2     1  UNL1       -0.1483
      7 N           0.0924   -0.0263   28.7850 N.2     1  UNL1       -0.1520
      8 C          -0.2245    1.2514   28.0659 C.2     1  UNL1        0.0860
      9 C          -0.9767    1.5298   26.7984 C.3     1  UNL1        0.0697
     10 C          -4.8677    4.2652   20.7356 C.ar    1  UNL1        0.1385
     11 C          -6.2486    4.5482   21.2482 C.ar    1  UNL1        0.0382
     12 C          -6.5273    4.4954   22.7212 C.ar    1  UNL1        0.0175
     13 C          -5.4250    4.1595   23.6814 C.ar    1  UNL1        0.0469
     14 C          -4.0440    3.8764   23.1688 C.ar    1  UNL1        0.0022
     15 C          -3.7653    3.9293   21.6959 C.ar    1  UNL1        0.0343
     16 C          -3.1651    3.5755   24.3465 C.3     1  UNL1        0.0928
     17 C          -1.9132    3.3453   23.5530 C.3     1  UNL1        0.0179
     18 C          -1.8877    3.2193   25.0474 C.3     1  UNL1        0.0315
     19 C          -4.0029    3.6726   25.5869 C.2     1  UNL1        0.2293
     20 O          -3.5274    3.4481   26.9918 O.2     1  UNL1       -0.2744
     21 N          -5.3996    4.0335   25.1760 N.am    1  UNL1       -0.2839
     22 H          -6.1652    4.1647   25.7809 H       1  UNL1        0.1549
     23 C          -3.1754    4.2581   18.7642 C.3     1  UNL1        0.2525
     24 O          -4.5889    4.3180   19.2627 O.3     1  UNL1       -0.4714
     25 C           1.7793    2.5822   31.1120 C.2     1  UNL1        0.0209
     26 C           1.7021    2.1488   32.5460 C.2     1  UNL1        0.0016
     27 C           2.4289    2.9246   33.6043 C.ar    1  UNL1        0.0000
     28 C           3.8899    2.6817   33.8418 C.ar    1  UNL1       -0.0003
     29 C           4.6168    3.4575   34.9001 C.ar    1  UNL1       -0.0029
     30 C           3.8826    4.4760   35.7207 C.ar    1  UNL1       -0.0061
     31 C           2.4216    4.7189   35.4831 C.ar    1  UNL1       -0.0029
     32 C           1.6947    3.9432   34.4249 C.ar    1  UNL1       -0.0003
     33 C           4.6095    5.2518   36.7789 C.3     1  UNL1        0.0993
     34 N           4.7569    4.6820   38.1586 N.3     1  UNL1       -0.2646
     35 C           3.9769    5.2666   39.2988 C.3     1  UNL1        0.1049
     36 C           4.1242    4.6968   40.6785 C.3     1  UNL1        0.1595
     37 O           5.0515    3.5423   40.9180 O.3     1  UNL1       -0.3508
     38 C           5.8314    2.9577   39.7779 C.3     1  UNL1        0.1595
     39 C           5.6841    3.5275   38.3982 C.3     1  UNL1        0.1049
@<TRIPOS>BOND
     1    23    24    1
     2    24    10    1
     3    10    11   ar
     4    11    12   ar
     5    12    13   ar
     6    13    14   ar
     7    14    15   ar
     8    14    16    1
     9    16    17    1
    10    17    18    1
    11    18     1    1
    12     1     2    2
    13     2     3    1
    14     3     4    2
    15     4     5    1
    16     5    25    1
    17    25    26    2
    18    26    27    1
    19    27    28   ar
    20    28    29   ar
    21    29    30   ar
    22    30    33    1
    23    33    34    1
    24    34    35    1
    25    35    36    1
    26    36    37    1
    27    37    38    1
    28    38    39    1
    29    30    31   ar
    30    31    32   ar
    31     5     6    2
    32     6     7    1
    33     7     8    2
    34     8     9    1
    35    16    19    1
    36    19    20    2
    37    19    21   am
    38    15    10   ar
    39    18    16    1
    40     9     1    1
    41    21    13    1
    42     8     4    1
    43    32    27   ar
    44    39    34    1
    45    21    22    1
