@<TRIPOS>MOLECULE
*****
 30 32 0 0 0
SMALL
GASTEIGER

@<TRIPOS>ATOM
      1 C          -7.4989  -18.9452   20.1722 C.ar    1  UNL1        0.0505
      2 C          -8.1200  -19.6169   18.9835 C.ar    1  UNL1        0.0170
      3 C          -9.5260  -20.1333   19.0635 C.ar    1  UNL1        0.0307
      4 C         -10.3109  -19.9781   20.3323 C.ar    1  UNL1        0.1402
      5 F         -11.7169  -20.4946   20.4124 F       1  UNL1       -0.2044
      6 C          -9.6898  -19.3064   21.5210 C.ar    1  UNL1        0.0555
      7 C          -8.2838  -18.7899   21.4410 C.ar    1  UNL1        0.0168
      8 C         -10.4747  -19.1512   22.7898 C.3     1  UNL1        0.2513
      9 C          -9.3598  -20.0273   23.2789 C.3     1  UNL1        0.0638
     10 N         -11.3172  -18.3290   21.8602 N.2     1  UNL1       -0.0663
     11 C         -12.5572  -17.6558   22.3691 C.2     1  UNL1        0.3195
     12 N         -13.3996  -16.8335   21.4394 N.pl3   1  UNL1       -0.2480
     13 C         -12.9549  -17.8049   23.8077 C.3     1  UNL1        0.2611
     14 O         -12.1125  -18.6271   24.7374 O.3     1  UNL1       -0.3108
     15 C         -10.8724  -19.3003   24.2284 C.3     1  UNL1        0.3281
     16 F         -10.0300  -20.1225   25.1581 F       1  UNL1       -0.1989
     17 H         -13.1386  -16.7357   20.4952 H       1  UNL1        0.2882
     18 H         -14.2135  -16.3917   21.7735 H       1  UNL1        0.2882
     19 C          -4.9374  -19.3787   20.2032 C.2     1  UNL1        0.2688
     20 O          -5.1880  -20.8452   20.3942 O.2     1  UNL1       -0.2681
     21 N          -6.0929  -18.4287   20.0922 N.am    1  UNL1       -0.2791
     22 H          -5.9284  -17.4662   19.9668 H       1  UNL1        0.1552
     23 C          -0.7194  -17.8293   19.9630 C.ar    1  UNL1        0.2449
     24 C          -1.7785  -17.2637   19.0640 C.ar    1  UNL1        0.1565
     25 N          -3.1845  -17.7801   19.1441 N.ar    1  UNL1       -0.2328
     26 C          -3.5314  -18.8623   20.1231 C.ar    1  UNL1        0.1541
     27 C          -2.4723  -19.4279   21.0221 C.ar    1  UNL1        0.1258
     28 N          -1.0663  -18.9115   20.9421 N.ar    1  UNL1       -0.2071
     29 C           1.7117  -17.7712   20.8774 C.3     1  UNL1        0.2543
     30 O           0.6866  -17.3129   19.8830 O.3     1  UNL1       -0.4551
@<TRIPOS>BOND
     1    29    30    1
     2    30    23    1
     3    23    24   ar
     4    24    25   ar
     5    25    26   ar
     6    26    19    1
     7    19    20    2
     8    19    21   am
     9    21     1    1
    10     1     2   ar
    11     2     3   ar
    12     3     4   ar
    13     4     5    1
    14     4     6   ar
    15     6     8    1
    16     8     9    1
    17     8    10    1
    18    10    11    2
    19    11    12    1
    20    11    13    1
    21    13    14    1
    22    14    15    1
    23    15    16    1
    24     6     7   ar
    25    26    27   ar
    26    27    28   ar
    27    28    23   ar
    28     7     1   ar
    29    15     8    1
    30    21    22    1
    31    12    17    1
    32    12    18    1
@<TRIPOS>MOLECULE
*****
 30 32 0 0 0
SMALL
GASTEIGER

@<TRIPOS>ATOM
      1 C          -6.8147  -19.8702   21.6784 C.ar    1  UNL1        0.0505
      2 C          -6.6750  -20.9620   20.6593 C.ar    1  UNL1        0.0170
      3 C          -5.3670  -21.1667   19.9541 C.ar    1  UNL1        0.0307
      4 C          -4.1988  -20.2796   20.2680 C.ar    1  UNL1        0.1402
      5 F          -2.8909  -20.4843   19.5627 F       1  UNL1       -0.2044
      6 C          -4.3386  -19.1879   21.2870 C.ar    1  UNL1        0.0555
      7 C          -5.6466  -18.9832   21.9922 C.ar    1  UNL1        0.0168
      8 C          -3.1705  -18.3008   21.6008 C.3     1  UNL1        0.2513
      9 C          -3.5582  -18.7211   22.9875 C.3     1  UNL1        0.0638
     10 N          -3.1883  -18.1885   20.1052 N.2     1  UNL1       -0.0663
     11 C          -2.1727  -17.3352   19.4049 C.2     1  UNL1        0.3195
     12 N          -2.1906  -17.2230   17.9092 N.pl3   1  UNL1       -0.2480
     13 C          -1.1392  -16.5942   20.2003 C.3     1  UNL1        0.2611
     14 O          -1.1213  -16.7064   21.6960 O.3     1  UNL1       -0.3108
     15 C          -2.1369  -17.5598   22.3962 C.3     1  UNL1        0.3281
     16 F          -2.1191  -17.6720   23.8919 F       1  UNL1       -0.1989
     17 H          -2.8689  -17.7093   17.3871 H       1  UNL1        0.2882
     18 H          -1.5240  -16.6629   17.4496 H       1  UNL1        0.2882
     19 C          -9.1908  -18.8220   21.7531 C.2     1  UNL1        0.2688
     20 O          -8.9510  -18.1833   20.4173 O.2     1  UNL1       -0.2681
     21 N          -8.1227  -19.6655   22.3837 N.am    1  UNL1       -0.2791
     22 H          -8.2801  -20.0847   23.2604 H       1  UNL1        0.1552
     23 C         -13.1146  -18.2079   23.8688 C.ar    1  UNL1        0.2449
     24 C         -12.9559  -17.7736   22.4419 C.ar    1  UNL1        0.1565
     25 N         -11.6480  -17.9783   21.7366 N.ar    1  UNL1       -0.2328
     26 C         -10.4987  -18.6173   22.4583 C.ar    1  UNL1        0.1541
     27 C         -10.6575  -19.0516   23.8853 C.ar    1  UNL1        0.1258
     28 N         -11.9654  -18.8469   24.5905 N.ar    1  UNL1       -0.2071
     29 C         -14.5939  -18.4735   25.9880 C.3     1  UNL1        0.2543
     30 O         -14.4226  -18.0032   24.5740 O.3     1  UNL1       -0.4551
@<TRIPOS>BOND
     1    29    30    1
     2    30    23    1
     3    23    24   ar
     4    24    25   ar
     5    25    26   ar
     6    26    19    1
     7    19    20    2
     8    19    21   am
     9    21     1    1
    10     1     2   ar
    11     2     3   ar
    12     3     4   ar
    13     4     5    1
    14     4     6   ar
    15     6     8    1
    16     8     9    1
    17     8    10    1
    18    10    11    2
    19    11    12    1
    20    11    13    1
    21    13    14    1
    22    14    15    1
    23    15    16    1
    24     6     7   ar
    25    26    27   ar
    26    27    28   ar
    27    28    23   ar
    28     7     1   ar
    29    15     8    1
    30    21    22    1
    31    12    17    1
    32    12    18    1
@<TRIPOS>MOLECULE
*****
 30 32 0 0 0
SMALL
GASTEIGER

@<TRIPOS>ATOM
      1 C           1.3153    0.1966   19.6403 C.ar    1  UNL1        0.0505
      2 C           1.8721    0.7346   18.3555 C.ar    1  UNL1        0.0170
      3 C           3.1073    0.1262   17.7604 C.ar    1  UNL1        0.0307
      4 C           3.7857   -1.0203   18.4501 C.ar    1  UNL1        0.1402
      5 F           5.0209   -1.6287   17.8551 F       1  UNL1       -0.2044
      6 C           3.2288   -1.5582   19.7348 C.ar    1  UNL1        0.0555
      7 C           1.9936   -0.9498   20.3299 C.ar    1  UNL1        0.0168
      8 C           3.9072   -2.7046   20.4245 C.3     1  UNL1        0.2513
      9 C           3.1951   -3.4434   19.3304 C.3     1  UNL1        0.0638
     10 N           4.3837   -1.5678   21.2791 N.2     1  UNL1       -0.0663
     11 C           5.2913   -1.8338   22.4433 C.2     1  UNL1        0.3195
     12 N           5.7678   -0.6969   23.2980 N.pl3   1  UNL1       -0.2480
     13 C           5.7223   -3.2368   22.7530 C.3     1  UNL1        0.2611
     14 O           5.2458   -4.3737   21.8984 O.3     1  UNL1       -0.3108
     15 C           4.3382   -4.1075   20.7341 C.3     1  UNL1        0.3281
     16 F           3.8617   -5.2445   19.8795 F       1  UNL1       -0.1989
     17 H           5.4849    0.2239   23.0948 H       1  UNL1        0.2882
     18 H           6.3635   -0.8715   24.0621 H       1  UNL1        0.2882
     19 C           0.1470    2.1560   20.8835 C.2     1  UNL1        0.2688
     20 O           1.4492    2.8986   20.9367 O.2     1  UNL1       -0.2681
     21 N           0.0801    0.8050   20.2353 N.am    1  UNL1       -0.2791
     22 H          -0.7746    0.3176   20.2005 H       1  UNL1        0.1552
     23 C          -3.5586    3.9813   22.6687 C.ar    1  UNL1        0.2449
     24 C          -3.6029    3.3898   21.2910 C.ar    1  UNL1        0.1565
     25 N          -2.3677    2.7814   20.6960 N.ar    1  UNL1       -0.2328
     26 C          -1.0882    2.7644   21.4786 C.ar    1  UNL1        0.1541
     27 C          -1.0439    3.3559   22.8563 C.ar    1  UNL1        0.1258
     28 N          -2.2791    3.9643   23.4514 N.ar    1  UNL1       -0.2071
     29 C          -6.1312    3.9521   23.0301 C.3     1  UNL1        0.2543
     30 O          -4.7938    4.5897   23.2638 O.3     1  UNL1       -0.4551
@<TRIPOS>BOND
     1    29    30    1
     2    30    23    1
     3    23    24   ar
     4    24    25   ar
     5    25    26   ar
     6    26    19    1
     7    19    20    2
     8    19    21   am
     9    21     1    1
    10     1     2   ar
    11     2     3   ar
    12     3     4   ar
    13     4     5    1
    14     4     6   ar
    15     6     8    1
    16     8     9    1
    17     8    10    1
    18    10    11    2
    19    11    12    1
    20    11    13    1
    21    13    14    1
    22    14    15    1
    23    15    16    1
    24     6     7   ar
    25    26    27   ar
    26    27    28   ar
    27    28    23   ar
    28     7     1   ar
    29    15     8    1
    30    21    22    1
    31    12    17    1
    32    12    18    1
@<TRIPOS>MOLECULE
*****
 30 32 0 0 0
SMALL
GASTEIGER

@<TRIPOS>ATOM
      1 C           1.7150    0.0008   20.2896 C.ar    1  UNL1        0.0505
      2 C           1.7890    0.7045   18.9669 C.ar    1  UNL1        0.0170
      3 C           2.7271    0.2102   17.9059 C.ar    1  UNL1        0.0307
      4 C           3.5912   -0.9877   18.1676 C.ar    1  UNL1        0.1402
      5 F           4.5293   -1.4820   17.1067 F       1  UNL1       -0.2044
      6 C           3.5171   -1.6913   19.4903 C.ar    1  UNL1        0.0555
      7 C           2.5790   -1.1970   20.5512 C.ar    1  UNL1        0.0168
      8 C           4.3812   -2.8892   19.7519 C.3     1  UNL1        0.2513
      9 C           3.1629   -3.5636   19.1943 C.3     1  UNL1        0.0638
     10 N           5.2994   -1.7988   20.2187 N.2     1  UNL1       -0.0663
     11 C           6.6585   -2.1405   20.7534 C.2     1  UNL1        0.3195
     12 N           7.5768   -1.0500   21.2202 N.pl3   1  UNL1       -0.2480
     13 C           7.0995   -3.5726   20.8214 C.3     1  UNL1        0.2611
     14 O           6.1813   -4.6630   20.3547 O.3     1  UNL1       -0.3108
     15 C           4.8221   -4.3213   19.8199 C.3     1  UNL1        0.3281
     16 F           3.9039   -5.4117   19.3532 F       1  UNL1       -0.1989
     17 H           7.2874   -0.1101   21.1755 H       1  UNL1        0.2882
     18 H           8.4688   -1.2743   21.5711 H       1  UNL1        0.2882
     19 C           1.2948    1.3444   22.4732 C.2     1  UNL1        0.2688
     20 O           2.7508    1.6994   22.5348 O.2     1  UNL1       -0.2681
     21 N           0.7768    0.4951   21.3505 N.am    1  UNL1       -0.2791
     22 H          -0.1788    0.2620   21.3100 H       1  UNL1        0.1552
     23 C          -1.5196    2.8271   25.6561 C.ar    1  UNL1        0.2449
     24 C          -0.5676    1.7082   25.9587 C.ar    1  UNL1        0.1565
     25 N           0.3705    1.2140   24.8978 N.ar    1  UNL1       -0.2328
     26 C           0.3566    1.8386   23.5341 C.ar    1  UNL1        0.1541
     27 C          -0.5954    2.9575   23.2315 C.ar    1  UNL1        0.1258
     28 N          -1.5335    3.4518   24.2924 N.ar    1  UNL1       -0.2071
     29 C          -3.7360    4.0037   26.3293 C.3     1  UNL1        0.2543
     30 O          -2.4577    3.3214   26.7170 O.3     1  UNL1       -0.4551
@<TRIPOS>BOND
     1    29    30    1
     2    30    23    1
     3    23    24   ar
     4    24    25   ar
     5    25    26   ar
     6    26    19    1
     7    19    20    2
     8    19    21   am
     9    21     1    1
    10     1     2   ar
    11     2     3   ar
    12     3     4   ar
    13     4     5    1
    14     4     6   ar
    15     6     8    1
    16     8     9    1
    17     8    10    1
    18    10    11    2
    19    11    12    1
    20    11    13    1
    21    13    14    1
    22    14    15    1
    23    15    16    1
    24     6     7   ar
    25    26    27   ar
    26    27    28   ar
    27    28    23   ar
    28     7     1   ar
    29    15     8    1
    30    21    22    1
    31    12    17    1
    32    12    18    1
@<TRIPOS>MOLECULE
*****
 30 32 0 0 0
SMALL
GASTEIGER

@<TRIPOS>ATOM
      1 C           5.5896   -2.0658   20.2057 C.ar    1  UNL1        0.0505
      2 C           5.6866   -2.9440   18.9934 C.ar    1  UNL1        0.0170
      3 C           5.0154   -2.5355   17.7157 C.ar    1  UNL1        0.0307
      4 C           4.2471   -1.2488   17.6503 C.ar    1  UNL1        0.1402
      5 F           3.5759   -0.8403   16.3726 F       1  UNL1       -0.2044
      6 C           4.1501   -0.3707   18.8625 C.ar    1  UNL1        0.0555
      7 C           4.8213   -0.7792   20.1402 C.ar    1  UNL1        0.0168
      8 C           3.3818    0.9159   18.7970 C.3     1  UNL1        0.2513
      9 C           4.6786    1.3555   18.1846 C.3     1  UNL1        0.0638
     10 N           2.3517    0.0296   19.4321 N.2     1  UNL1       -0.0663
     11 C           1.0039    0.5825   19.7891 C.2     1  UNL1        0.3195
     12 N          -0.0262   -0.3038   20.4242 N.pl3   1  UNL1       -0.2480
     13 C           0.6860    2.0218   19.5109 C.3     1  UNL1        0.2611
     14 O           1.7160    2.9082   18.8757 O.3     1  UNL1       -0.3108
     15 C           3.0639    2.3552   18.5188 C.3     1  UNL1        0.3281
     16 F           4.0940    3.2416   17.8836 F       1  UNL1       -0.1989
     17 H           0.1825   -1.2485   20.6068 H       1  UNL1        0.2882
     18 H          -0.9108    0.0591   20.6585 H       1  UNL1        0.2882
     19 C           5.7202   -3.6244   22.2802 C.2     1  UNL1        0.2688
     20 O           4.5082   -4.3660   21.7993 O.2     1  UNL1       -0.2681
     21 N           6.2608   -2.4743   21.4834 N.am    1  UNL1       -0.2791
     22 H           7.0563   -1.9876   21.7990 H       1  UNL1        0.1552
     23 C           7.7339   -4.8500   26.1134 C.ar    1  UNL1        0.2449
     24 C           7.9600   -5.6431   24.8605 C.ar    1  UNL1        0.1565
     25 N           7.2888   -5.2346   23.5828 N.ar    1  UNL1       -0.2328
     26 C           6.3914   -4.0329   23.5579 C.ar    1  UNL1        0.1541
     27 C           6.1652   -3.2398   24.8108 C.ar    1  UNL1        0.1258
     28 N           6.8365   -3.6483   26.0885 N.ar    1  UNL1       -0.2071
     29 C           7.6133   -5.9327   28.4720 C.3     1  UNL1        0.2543
     30 O           8.4051   -5.2585   27.3911 O.3     1  UNL1       -0.4551
@<TRIPOS>BOND
     1    29    30    1
     2    30    23    1
     3    23    24   ar
     4    24    25   ar
     5    25    26   ar
     6    26    19    1
     7    19    20    2
     8    19    21   am
     9    21     1    1
    10     1     2   ar
    11     2     3   ar
    12     3     4   ar
    13     4     5    1
    14     4     6   ar
    15     6     8    1
    16     8     9    1
    17     8    10    1
    18    10    11    2
    19    11    12    1
    20    11    13    1
    21    13    14    1
    22    14    15    1
    23    15    16    1
    24     6     7   ar
    25    26    27   ar
    26    27    28   ar
    27    28    23   ar
    28     7     1   ar
    29    15     8    1
    30    21    22    1
    31    12    17    1
    32    12    18    1
@<TRIPOS>MOLECULE
*****
 30 32 0 0 0
SMALL
GASTEIGER

@<TRIPOS>ATOM
      1 C           1.0789    0.3309   21.0257 C.ar    1  UNL1        0.0505
      2 C           1.4921    0.3570   22.4674 C.ar    1  UNL1        0.0170
      3 C           2.7953   -0.2569   22.8853 C.ar    1  UNL1        0.0307
      4 C           3.6853   -0.8970   21.8614 C.ar    1  UNL1        0.1402
      5 F           4.9885   -1.5110   22.2793 F       1  UNL1       -0.2044
      6 C           3.2721   -0.9231   20.4197 C.ar    1  UNL1        0.0555
      7 C           1.9688   -0.3091   20.0019 C.ar    1  UNL1        0.0168
      8 C           4.1620   -1.5631   19.3959 C.3     1  UNL1        0.2513
      9 C           3.2824   -2.7280   19.7410 C.3     1  UNL1        0.0638
     10 N           4.7327   -0.1760   19.4063 N.2     1  UNL1       -0.0663
     11 C           5.8878    0.1666   18.5128 C.2     1  UNL1        0.3195
     12 N           6.4584    1.5538   18.5232 N.pl3   1  UNL1       -0.2480
     13 C           6.4723   -0.8780   17.6088 C.3     1  UNL1        0.2611
     14 O           5.9016   -2.2653   17.5984 O.3     1  UNL1       -0.3108
     15 C           4.7465   -2.6077   18.4920 C.3     1  UNL1        0.3281
     16 F           4.1759   -3.9950   18.4816 F       1  UNL1       -0.1989
     17 H           6.0748    2.2394   19.1165 H       1  UNL1        0.2882
     18 H           7.2165    1.7786   17.9367 H       1  UNL1        0.2882
     19 C          -0.3397    2.4333   20.4622 C.2     1  UNL1        0.2688
     20 O           0.8482    3.3078   20.7345 O.2     1  UNL1       -0.2681
     21 N          -0.2244    0.9449   20.6078 N.am    1  UNL1       -0.2791
     22 H          -1.0040    0.3710   20.4291 H       1  UNL1        0.1552
     23 C          -4.2494    4.2753   19.2086 C.ar    1  UNL1        0.2449
     24 C          -4.1916    3.3878   20.4165 C.ar    1  UNL1        0.1565
     25 N          -2.8883    2.7739   20.8343 N.ar    1  UNL1       -0.2328
     26 C          -1.6429    3.0473   20.0443 C.ar    1  UNL1        0.1541
     27 C          -1.7008    3.9348   18.8364 C.ar    1  UNL1        0.1258
     28 N          -3.0040    4.5487   18.4186 N.ar    1  UNL1       -0.2071
     29 C          -6.8303    4.1207   18.9540 C.3     1  UNL1        0.2543
     30 O          -5.5526    4.8893   18.7907 O.3     1  UNL1       -0.4551
@<TRIPOS>BOND
     1    29    30    1
     2    30    23    1
     3    23    24   ar
     4    24    25   ar
     5    25    26   ar
     6    26    19    1
     7    19    20    2
     8    19    21   am
     9    21     1    1
    10     1     2   ar
    11     2     3   ar
    12     3     4   ar
    13     4     5    1
    14     4     6   ar
    15     6     8    1
    16     8     9    1
    17     8    10    1
    18    10    11    2
    19    11    12    1
    20    11    13    1
    21    13    14    1
    22    14    15    1
    23    15    16    1
    24     6     7   ar
    25    26    27   ar
    26    27    28   ar
    27    28    23   ar
    28     7     1   ar
    29    15     8    1
    30    21    22    1
    31    12    17    1
    32    12    18    1
@<TRIPOS>MOLECULE
*****
 30 32 0 0 0
SMALL
GASTEIGER

@<TRIPOS>ATOM
      1 C           5.4719   -2.0779   20.3360 C.ar    1  UNL1        0.0505
      2 C           5.8879   -2.5482   18.9737 C.ar    1  UNL1        0.0170
      3 C           5.1329   -2.0928   17.7601 C.ar    1  UNL1        0.0307
      4 C           3.9619   -1.1672   17.9090 C.ar    1  UNL1        0.1402
      5 F           3.2069   -0.7119   16.6954 F       1  UNL1       -0.2044
      6 C           3.5459   -0.6970   19.2712 C.ar    1  UNL1        0.0555
      7 C           4.3009   -1.1524   20.4847 C.ar    1  UNL1        0.0168
      8 C           2.3750    0.2285   19.4200 C.3     1  UNL1        0.2513
      9 C           1.7826   -1.0323   19.9761 C.3     1  UNL1        0.0638
     10 N           3.3739    1.1680   18.8122 N.2     1  UNL1       -0.0663
     11 C           2.9962    2.5951   18.5463 C.2     1  UNL1        0.3195
     12 N           3.9952    3.5346   17.9384 N.pl3   1  UNL1       -0.2480
     13 C           1.6195    3.0828   18.8882 C.3     1  UNL1        0.2611
     14 O           0.6205    2.1433   19.4960 O.3     1  UNL1       -0.3108
     15 C           0.9983    0.7162   19.7619 C.3     1  UNL1        0.3281
     16 F          -0.0007   -0.2233   20.3697 F       1  UNL1       -0.1989
     17 H           4.8988    3.2145   17.7140 H       1  UNL1        0.2882
     18 H           3.7473    4.4712   17.7639 H       1  UNL1        0.2882
     19 C           5.7505   -3.7250   22.3258 C.2     1  UNL1        0.2688
     20 O           4.5190   -4.4614   21.8886 O.2     1  UNL1       -0.2681
     21 N           6.2269   -2.5332   21.5495 N.am    1  UNL1       -0.2791
     22 H           7.0352   -2.0499   21.8364 H       1  UNL1        0.1552
     23 C           8.0155   -5.0910   25.9664 C.ar    1  UNL1        0.2449
     24 C           8.1818   -5.8160   24.6639 C.ar    1  UNL1        0.1565
     25 N           7.4267   -5.3607   23.4503 N.ar    1  UNL1       -0.2328
     26 C           6.5055   -4.1803   23.5394 C.ar    1  UNL1        0.1541
     27 C           6.3392   -3.4553   24.8419 C.ar    1  UNL1        0.1258
     28 N           7.0943   -3.9106   26.0554 N.ar    1  UNL1       -0.2071
     29 C           8.0768   -6.3564   28.2346 C.3     1  UNL1        0.2543
     30 O           8.7705   -5.5463   27.1799 O.3     1  UNL1       -0.4551
@<TRIPOS>BOND
     1    29    30    1
     2    30    23    1
     3    23    24   ar
     4    24    25   ar
     5    25    26   ar
     6    26    19    1
     7    19    20    2
     8    19    21   am
     9    21     1    1
    10     1     2   ar
    11     2     3   ar
    12     3     4   ar
    13     4     5    1
    14     4     6   ar
    15     6     8    1
    16     8     9    1
    17     8    10    1
    18    10    11    2
    19    11    12    1
    20    11    13    1
    21    13    14    1
    22    14    15    1
    23    15    16    1
    24     6     7   ar
    25    26    27   ar
    26    27    28   ar
    27    28    23   ar
    28     7     1   ar
    29    15     8    1
    30    21    22    1
    31    12    17    1
    32    12    18    1
@<TRIPOS>MOLECULE
*****
 30 32 0 0 0
SMALL
GASTEIGER

@<TRIPOS>ATOM
      1 C           5.6266    0.0861   35.7928 C.ar    1  UNL1        0.0505
      2 C           6.8524    0.4229   36.5891 C.ar    1  UNL1        0.0170
      3 C           6.7651    1.4021   37.7221 C.ar    1  UNL1        0.0307
      4 C           5.4520    2.0445   38.0587 C.ar    1  UNL1        0.1402
      5 F           5.3647    3.0237   39.1917 F       1  UNL1       -0.2044
      6 C           4.2263    1.7076   37.2624 C.ar    1  UNL1        0.0555
      7 C           4.3136    0.7284   36.1295 C.ar    1  UNL1        0.0168
      8 C           2.9133    2.3499   37.5991 C.3     1  UNL1        0.2513
      9 C           3.5148    3.4219   36.7395 C.3     1  UNL1        0.0638
     10 N           2.7676    1.0549   38.3418 N.2     1  UNL1       -0.0663
     11 C           1.5180    0.7745   39.1226 C.2     1  UNL1        0.3195
     12 N           1.3724   -0.5206   39.8653 N.pl3   1  UNL1       -0.2480
     13 C           0.4139    1.7891   39.1607 C.3     1  UNL1        0.2611
     14 O           0.5595    3.0842   38.4180 O.3     1  UNL1       -0.3108
     15 C           1.8092    3.3645   37.6372 C.3     1  UNL1        0.3281
     16 F           1.9547    4.6596   36.8945 F       1  UNL1       -0.1989
     17 H           2.0971   -1.1866   39.8403 H       1  UNL1        0.2882
     18 H           0.5522   -0.7047   40.3778 H       1  UNL1        0.2882
     19 C           6.2597   -0.4574   33.3324 C.2     1  UNL1        0.2688
     20 O           6.7182    0.9574   33.1379 O.2     1  UNL1       -0.2681
     21 N           5.7139   -0.8931   34.6599 N.am    1  UNL1       -0.2791
     22 H           5.4130   -1.8217   34.7876 H       1  UNL1        0.1552
     23 C           6.5216   -3.3950   29.9336 C.ar    1  UNL1        0.2449
     24 C           6.1843   -1.9594   29.6598 C.ar    1  UNL1        0.1565
     25 N           6.0969   -0.9802   30.7927 N.ar    1  UNL1       -0.2328
     26 C           6.3470   -1.4366   32.1995 C.ar    1  UNL1        0.1541
     27 C           6.6844   -2.8723   32.4733 C.ar    1  UNL1        0.1258
     28 N           6.7717   -3.8515   31.3404 N.ar    1  UNL1       -0.2071
     29 C           7.1299   -5.7594   29.0450 C.3     1  UNL1        0.2543
     30 O           6.6090   -4.3742   28.8007 O.3     1  UNL1       -0.4551
@<TRIPOS>BOND
     1    29    30    1
     2    30    23    1
     3    23    24   ar
     4    24    25   ar
     5    25    26   ar
     6    26    19    1
     7    19    20    2
     8    19    21   am
     9    21     1    1
    10     1     2   ar
    11     2     3   ar
    12     3     4   ar
    13     4     5    1
    14     4     6   ar
    15     6     8    1
    16     8     9    1
    17     8    10    1
    18    10    11    2
    19    11    12    1
    20    11    13    1
    21    13    14    1
    22    14    15    1
    23    15    16    1
    24     6     7   ar
    25    26    27   ar
    26    27    28   ar
    27    28    23   ar
    28     7     1   ar
    29    15     8    1
    30    21    22    1
    31    12    17    1
    32    12    18    1
@<TRIPOS>MOLECULE
*****
 30 32 0 0 0
SMALL
GASTEIGER

@<TRIPOS>ATOM
      1 C           4.8143   -2.4066   24.2403 C.ar    1  UNL1        0.0505
      2 C           6.1980   -2.9338   24.4803 C.ar    1  UNL1        0.0170
      3 C           7.0609   -3.3313   23.3195 C.ar    1  UNL1        0.0307
      4 C           6.5402   -3.2016   21.9188 C.ar    1  UNL1        0.1402
      5 F           7.4031   -3.5990   20.7580 F       1  UNL1       -0.2044
      6 C           5.1565   -2.6744   21.6788 C.ar    1  UNL1        0.0555
      7 C           4.2936   -2.2769   22.8396 C.ar    1  UNL1        0.0168
      8 C           4.6359   -2.5447   20.2781 C.3     1  UNL1        0.2513
      9 C           4.2053   -3.9479   20.5871 C.3     1  UNL1        0.0638
     10 N           5.2472   -1.1865   20.4554 N.2     1  UNL1       -0.0663
     11 C           5.1884   -0.1859   19.3395 C.2     1  UNL1        0.3195
     12 N           5.7997    1.1723   19.5169 N.pl3   1  UNL1       -0.2480
     13 C           4.5181   -0.5436   18.0461 C.3     1  UNL1        0.2611
     14 O           3.9067   -1.9018   17.8687 O.3     1  UNL1       -0.3108
     15 C           3.9656   -2.9023   18.9847 C.3     1  UNL1        0.3281
     16 F           3.3542   -4.2606   18.8073 F       1  UNL1       -0.1989
     17 H           6.2396    1.4071   20.3658 H       1  UNL1        0.2882
     18 H           5.7611    1.8290   18.7844 H       1  UNL1        0.2882
     19 C           3.8906   -0.5742   25.8338 C.2     1  UNL1        0.2688
     20 O           4.6929    0.4632   25.1057 O.2     1  UNL1       -0.2681
     21 N           3.9513   -2.0091   25.4010 N.am    1  UNL1       -0.2791
     22 H           3.4248   -2.6901   25.8789 H       1  UNL1        0.1552
     23 C           1.3018    0.6182   29.3160 C.ar    1  UNL1        0.2449
     24 C           2.1800   -0.5939   29.4147 C.ar    1  UNL1        0.1565
     25 N           3.0429   -0.9913   28.2539 N.ar    1  UNL1       -0.2328
     26 C           3.0277   -0.1768   26.9945 C.ar    1  UNL1        0.1541
     27 C           2.1495    1.0352   26.8958 C.ar    1  UNL1        0.1258
     28 N           1.2866    1.4327   28.0566 N.ar    1  UNL1       -0.2071
     29 C           0.8795    2.1151   31.3971 C.3     1  UNL1        0.2543
     30 O           0.4389    1.0156   30.4768 O.3     1  UNL1       -0.4551
@<TRIPOS>BOND
     1    29    30    1
     2    30    23    1
     3    23    24   ar
     4    24    25   ar
     5    25    26   ar
     6    26    19    1
     7    19    20    2
     8    19    21   am
     9    21     1    1
    10     1     2   ar
    11     2     3   ar
    12     3     4   ar
    13     4     5    1
    14     4     6   ar
    15     6     8    1
    16     8     9    1
    17     8    10    1
    18    10    11    2
    19    11    12    1
    20    11    13    1
    21    13    14    1
    22    14    15    1
    23    15    16    1
    24     6     7   ar
    25    26    27   ar
    26    27    28   ar
    27    28    23   ar
    28     7     1   ar
    29    15     8    1
    30    21    22    1
    31    12    17    1
    32    12    18    1
