@<TRIPOS>MOLECULE
*****
 28 30 0 0 0
SMALL
GASTEIGER

@<TRIPOS>ATOM
      1 N          -8.2172  -17.1831   22.6521 N.pl3   1  UNL1       -0.3035
      2 C          -4.2503  -20.1315   20.7944 C.2     1  UNL1        0.2257
      3 O          -4.0420  -21.1928   19.7550 O.2     1  UNL1       -0.2749
      4 N          -5.6127  -19.5376   20.9974 N.am    1  UNL1       -0.2778
      5 C          -6.8553  -19.9025   20.2405 C.3     1  UNL1        0.0952
      6 C          -7.9822  -19.0649   20.7682 C.3     1  UNL1        0.0430
      7 C          -7.4360  -18.1823   21.8513 C.3     1  UNL1        0.0946
      8 C          -5.9716  -18.4745   21.9929 C.3     1  UNL1        0.1131
      9 C          -2.0860  -18.7177   21.0531 C.3     1  UNL1        0.0101
     10 C          -3.0962  -19.6642   21.6308 C.3     1  UNL1        0.0853
     11 C          -9.6305  -17.4846   23.0545 C.ar    1  UNL1        0.0490
     12 C          -9.9128  -18.5845   24.0345 C.ar    1  UNL1        0.0153
     13 C         -11.3260  -18.8860   24.4369 C.ar    1  UNL1        0.0124
     14 C         -12.4568  -18.0875   23.8594 C.ar    1  UNL1        0.0791
     15 C         -12.1744  -16.9875   22.8795 C.ar    1  UNL1        0.0685
     16 CL        -13.3054  -16.1890   22.3019 Cl      1  UNL1       -0.0815
     17 C         -10.7613  -16.6860   22.4770 C.ar    1  UNL1        0.0266
     18 C         -13.8701  -18.3889   24.2619 C.1     1  UNL1        0.1013
     19 N         -15.2832  -18.6903   24.6643 N.1     1  UNL1       -0.1908
     20 C          -7.5851  -15.8824   23.0505 C.3     1  UNL1        0.1175
     21 C          -7.2050  -15.6404   24.4812 C.ar    1  UNL1       -0.0041
     22 C          -8.2715  -15.4547   25.5195 C.ar    1  UNL1        0.0267
     23 C          -7.8914  -15.2128   26.9502 C.ar    1  UNL1        0.1399
     24 F          -8.9580  -15.0270   27.9885 F       1  UNL1       -0.2042
     25 C          -6.4448  -15.1565   27.3426 C.ar    1  UNL1        0.0293
     26 C          -5.3782  -15.3423   26.3044 C.ar    1  UNL1       -0.0022
     27 C          -5.7584  -15.5842   24.8737 C.ar    1  UNL1       -0.0241
     28 C          -4.6918  -15.7700   23.8354 C.3     1  UNL1        0.0308
@<TRIPOS>BOND
     1     9    10    1
     2    10     2    1
     3     2     3    2
     4     2     4   am
     5     4     5    1
     6     5     6    1
     7     6     7    1
     8     7     1    1
     9     1    20    1
    10    20    21    1
    11    21    22   ar
    12    22    23   ar
    13    23    24    1
    14    23    25   ar
    15    25    26   ar
    16    26    27   ar
    17    27    28    1
    18     1    11    1
    19    11    12   ar
    20    12    13   ar
    21    13    14   ar
    22    14    18    1
    23    18    19    3
    24    14    15   ar
    25    15    16    1
    26    15    17   ar
    27     7     8    1
    28     8     4    1
    29    27    21   ar
    30    17    11   ar
@<TRIPOS>MOLECULE
*****
 28 30 0 0 0
SMALL
GASTEIGER

@<TRIPOS>ATOM
      1 N          -7.9799  -18.9400   21.7345 N.pl3   1  UNL1       -0.3035
      2 C          -2.7354  -19.4946   21.4726 C.2     1  UNL1        0.2257
      3 O          -1.7400  -20.3539   20.7510 O.2     1  UNL1       -0.2749
      4 N          -4.2040  -19.6875   21.2356 N.am    1  UNL1       -0.2778
      5 C          -4.8232  -20.6940   20.3116 C.3     1  UNL1        0.0952
      6 C          -6.3131  -20.5364   20.3860 C.3     1  UNL1        0.0430
      7 C          -6.6146  -19.4326   21.3560 C.3     1  UNL1        0.0946
      8 C          -5.3111  -18.9080   21.8811 C.3     1  UNL1        0.1131
      9 C          -2.1581  -17.0138   21.9851 C.3     1  UNL1        0.0101
     10 C          -2.2623  -18.4422   22.4310 C.3     1  UNL1        0.0853
     11 C          -8.1574  -18.0857   22.9547 C.ar    1  UNL1        0.0490
     12 C          -8.9098  -18.6165   24.1388 C.ar    1  UNL1        0.0153
     13 C          -9.0873  -17.7623   25.3589 C.ar    1  UNL1        0.0124
     14 C          -8.5125  -16.3773   25.3949 C.ar    1  UNL1        0.0791
     15 C          -7.7601  -15.8465   24.2107 C.ar    1  UNL1        0.0685
     16 CL         -7.1853  -14.4614   24.2468 Cl      1  UNL1       -0.0815
     17 C          -7.5826  -16.7007   22.9906 C.ar    1  UNL1        0.0266
     18 C          -8.6900  -15.5230   26.6151 C.1     1  UNL1        0.1013
     19 N          -8.8676  -14.6687   27.8352 N.1     1  UNL1       -0.1908
     20 C          -9.1677  -19.3016   20.8928 C.3     1  UNL1        0.1175
     21 C         -10.3694  -18.4043   20.8667 C.ar    1  UNL1       -0.0041
     22 C         -10.4208  -17.2470   19.9138 C.ar    1  UNL1        0.0267
     23 C         -11.6225  -16.3498   19.8876 C.ar    1  UNL1        0.1399
     24 F         -11.6739  -15.1925   18.9347 F       1  UNL1       -0.2042
     25 C         -12.7729  -16.6098   20.8144 C.ar    1  UNL1        0.0293
     26 C         -12.7216  -17.7670   21.7674 C.ar    1  UNL1       -0.0022
     27 C         -11.5198  -18.6642   21.7935 C.ar    1  UNL1       -0.0241
     28 C         -11.4685  -19.8216   22.7465 C.3     1  UNL1        0.0308
@<TRIPOS>BOND
     1     9    10    1
     2    10     2    1
     3     2     3    2
     4     2     4   am
     5     4     5    1
     6     5     6    1
     7     6     7    1
     8     7     1    1
     9     1    20    1
    10    20    21    1
    11    21    22   ar
    12    22    23   ar
    13    23    24    1
    14    23    25   ar
    15    25    26   ar
    16    26    27   ar
    17    27    28    1
    18     1    11    1
    19    11    12   ar
    20    12    13   ar
    21    13    14   ar
    22    14    18    1
    23    18    19    3
    24    14    15   ar
    25    15    16    1
    26    15    17   ar
    27     7     8    1
    28     8     4    1
    29    27    21   ar
    30    17    11   ar
@<TRIPOS>MOLECULE
*****
 28 30 0 0 0
SMALL
GASTEIGER

@<TRIPOS>ATOM
      1 N          -7.6906  -18.5373   21.8680 N.pl3   1  UNL1       -0.3035
      2 C          -7.6586  -15.4784   26.1718 C.2     1  UNL1        0.2257
      3 O          -8.5110  -15.2526   27.3852 O.2     1  UNL1       -0.2749
      4 N          -8.0640  -16.4988   25.1497 N.am    1  UNL1       -0.2778
      5 C          -9.2880  -17.3642   25.2052 C.3     1  UNL1        0.0952
      6 C          -9.2971  -18.2331   23.9826 C.3     1  UNL1        0.0430
      7 C          -8.0787  -17.9048   23.1715 C.3     1  UNL1        0.0946
      8 C          -7.3167  -16.8329   23.8928 C.3     1  UNL1        0.1131
      9 C          -5.0689  -15.3736   25.9925 C.3     1  UNL1        0.0101
     10 C          -6.4008  -14.6839   25.9804 C.3     1  UNL1        0.0853
     11 C          -6.2450  -18.6218   21.4764 C.ar    1  UNL1        0.0490
     12 C          -5.8677  -19.0425   20.0869 C.ar    1  UNL1        0.0153
     13 C          -4.4223  -19.1271   19.6953 C.ar    1  UNL1        0.0124
     14 C          -3.3540  -18.7910   20.6932 C.ar    1  UNL1        0.0791
     15 C          -3.7313  -18.3703   22.0827 C.ar    1  UNL1        0.0685
     16 CL         -2.6629  -18.0342   23.0806 Cl      1  UNL1       -0.0815
     17 C          -5.1768  -18.2857   22.4743 C.ar    1  UNL1        0.0266
     18 C          -1.9085  -18.8755   20.3016 C.1     1  UNL1        0.1013
     19 N          -0.4630  -18.9602   19.9101 N.1     1  UNL1       -0.1908
     20 C          -8.7479  -19.0852   20.9559 C.3     1  UNL1        0.1175
     21 C         -10.0752  -18.3949   20.8464 C.ar    1  UNL1       -0.0041
     22 C         -10.1967  -17.1236   20.0596 C.ar    1  UNL1        0.0267
     23 C         -11.5239  -16.4334   19.9501 C.ar    1  UNL1        0.1399
     24 F         -11.6455  -15.1621   19.1632 F       1  UNL1       -0.2042
     25 C         -12.7296  -17.0144   20.6275 C.ar    1  UNL1        0.0293
     26 C         -12.6080  -18.2856   21.4143 C.ar    1  UNL1       -0.0022
     27 C         -11.2808  -18.9759   21.5238 C.ar    1  UNL1       -0.0241
     28 C         -11.1592  -20.2472   22.3107 C.3     1  UNL1        0.0308
@<TRIPOS>BOND
     1     9    10    1
     2    10     2    1
     3     2     3    2
     4     2     4   am
     5     4     5    1
     6     5     6    1
     7     6     7    1
     8     7     1    1
     9     1    20    1
    10    20    21    1
    11    21    22   ar
    12    22    23   ar
    13    23    24    1
    14    23    25   ar
    15    25    26   ar
    16    26    27   ar
    17    27    28    1
    18     1    11    1
    19    11    12   ar
    20    12    13   ar
    21    13    14   ar
    22    14    18    1
    23    18    19    3
    24    14    15   ar
    25    15    16    1
    26    15    17   ar
    27     7     8    1
    28     8     4    1
    29    27    21   ar
    30    17    11   ar
