@<TRIPOS>MOLECULE
*****
 33 36 0 0 0
SMALL
GASTEIGER

@<TRIPOS>ATOM
      1 O           3.4813   -3.7946   19.3307 O.2     1  UNL1       -0.2670
      2 C           4.5167   -3.0701   20.1389 C.ar    1  UNL1        0.2613
      3 C           5.2472   -3.7854   21.2363 C.ar    1  UNL1        0.0623
      4 C           6.2826   -3.0609   22.0445 C.ar    1  UNL1        0.0240
      5 C           6.5874   -1.6210   21.7551 C.ar    1  UNL1        0.0204
      6 C           5.8569   -0.9057   20.6576 C.ar    1  UNL1        0.0787
      7 N           4.8215   -1.6302   19.8495 N.ar    1  UNL1       -0.2897
      8 C           7.0131   -3.7763   23.1420 C.ar    1  UNL1        0.0859
      9 C           8.4866   -4.0299   23.0209 C.ar    1  UNL1        0.0399
     10 C           9.2172   -4.7453   24.1184 C.ar    1  UNL1        0.1034
     11 N           8.4743   -5.2071   25.3370 N.ar    1  UNL1       -0.2123
     12 C           7.0008   -4.9536   25.4580 C.ar    1  UNL1        0.2168
     13 N           6.2703   -4.2381   24.3605 N.ar    1  UNL1       -0.2138
     14 N           6.2579   -5.4154   26.6765 N.pl3   1  UNL1       -0.3045
     15 H           5.6791   -6.2103   26.6283 H       1  UNL1        0.1496
     16 C           6.3969   -4.6661   27.9685 C.3     1  UNL1        0.0768
     17 C           6.2019   -3.1791   27.9978 C.3     1  UNL1        0.0517
     18 C           6.3409   -2.4297   29.2898 C.3     1  UNL1        0.1439
     19 O           6.6749   -3.1674   30.5524 O.3     1  UNL1       -0.3537
     20 C           6.8699   -4.6544   30.5231 C.3     1  UNL1        0.1439
     21 C           6.7310   -5.4037   29.2312 C.3     1  UNL1        0.0517
     22 C           4.0909   -0.9148   18.7519 C.3     1  UNL1        0.1402
     23 C           2.8669   -0.1074   19.0679 C.ar    1  UNL1        0.0030
     24 C           1.8231   -0.6586   19.9935 C.ar    1  UNL1       -0.0014
     25 C           0.5991    0.1488   20.3095 C.ar    1  UNL1        0.0134
     26 C           0.4188    1.5074   19.6999 C.ar    1  UNL1        0.0850
     27 CL         -0.8052    2.3148   20.0159 Cl      1  UNL1       -0.0799
     28 C           1.4626    2.0587   18.7744 C.ar    1  UNL1        0.1503
     29 F           1.2823    3.4173   18.1648 F       1  UNL1       -0.2033
     30 C           2.6867    1.2513   18.4584 C.ar    1  UNL1        0.0281
     31 C           4.5845   -1.0068   17.3384 C.3     1  UNL1        0.1642
     32 O           3.6386   -1.3833   16.2368 O.3     1  UNL1       -0.3797
     33 H           3.3410   -2.2976   16.3647 H       1  UNL1        0.2105
@<TRIPOS>BOND
     1     1     2    2
     2     2     3   ar
     3     3     4   ar
     4     4     8    1
     5     8     9   ar
     6     9    10   ar
     7    10    11   ar
     8    11    12   ar
     9    12    14    1
    10    14    16    1
    11    16    17    1
    12    17    18    1
    13    18    19    1
    14    19    20    1
    15    20    21    1
    16    12    13   ar
    17     4     5   ar
    18     5     6   ar
    19     6     7   ar
    20     7    22    1
    21    22    31    1
    22    31    32    1
    23    22    23    1
    24    23    24   ar
    25    24    25   ar
    26    25    26   ar
    27    26    27    1
    28    26    28   ar
    29    28    29    1
    30    28    30   ar
    31     7     2   ar
    32    30    23   ar
    33    13     8   ar
    34    21    16    1
    35    14    15    1
    36    32    33    1
@<TRIPOS>MOLECULE
*****
 33 36 0 0 0
SMALL
GASTEIGER

@<TRIPOS>ATOM
      1 O           3.2039   -3.3278   18.9020 O.2     1  UNL1       -0.2670
      2 C           4.2389   -2.6171   19.7228 C.ar    1  UNL1        0.2613
      3 C           5.0749   -3.3845   20.7036 C.ar    1  UNL1        0.0623
      4 C           6.1100   -2.6738   21.5244 C.ar    1  UNL1        0.0240
      5 C           6.3089   -1.1957   21.3643 C.ar    1  UNL1        0.0204
      6 C           5.4729   -0.4284   20.3834 C.ar    1  UNL1        0.0787
      7 N           4.4379   -1.1391   19.5627 N.ar    1  UNL1       -0.2897
      8 C           6.9460   -3.4413   22.5053 C.ar    1  UNL1        0.0859
      9 C           8.3998   -3.6820   22.2248 C.ar    1  UNL1        0.0399
     10 C           9.2358   -4.4494   23.2056 C.ar    1  UNL1        0.1034
     11 N           8.6181   -4.9762   24.4670 N.ar    1  UNL1       -0.2123
     12 C           7.1644   -4.7355   24.7475 C.ar    1  UNL1        0.2168
     13 N           6.3283   -3.9680   23.7666 N.ar    1  UNL1       -0.2138
     14 N           6.5467   -5.2622   26.0088 N.pl3   1  UNL1       -0.3045
     15 H           5.6648   -4.9348   26.2990 H       1  UNL1        0.1496
     16 C           7.2727   -6.2878   26.8279 C.3     1  UNL1        0.0768
     17 C           7.3415   -7.7108   26.3587 C.3     1  UNL1        0.0517
     18 C           8.0676   -8.7364   27.1779 C.3     1  UNL1        0.1439
     19 O           8.7249   -8.3389   28.4663 O.3     1  UNL1       -0.3537
     20 C           8.6561   -6.9159   28.9355 C.3     1  UNL1        0.1439
     21 C           7.9301   -5.8903   28.1164 C.3     1  UNL1        0.0517
     22 C           3.6018   -0.3716   18.5818 C.3     1  UNL1        0.1402
     23 C           2.3944    0.3828   19.0542 C.ar    1  UNL1        0.0030
     24 C           1.4198   -0.2709   19.9885 C.ar    1  UNL1       -0.0014
     25 C           0.2124    0.4835   20.4609 C.ar    1  UNL1        0.0134
     26 C          -0.0204    1.8915   19.9989 C.ar    1  UNL1        0.0850
     27 CL         -1.2277    2.6458   20.4713 Cl      1  UNL1       -0.0799
     28 C           0.9542    2.5451   19.0647 C.ar    1  UNL1        0.1503
     29 F           0.7214    3.9531   18.6027 F       1  UNL1       -0.2033
     30 C           2.1616    1.7907   18.5922 C.ar    1  UNL1        0.0281
     31 C           3.9732   -0.3585   17.1285 C.3     1  UNL1        0.1642
     32 O           3.7725   -1.5873   16.2921 O.3     1  UNL1       -0.3797
     33 H           4.3629   -2.2909   16.6042 H       1  UNL1        0.2105
@<TRIPOS>BOND
     1     1     2    2
     2     2     3   ar
     3     3     4   ar
     4     4     8    1
     5     8     9   ar
     6     9    10   ar
     7    10    11   ar
     8    11    12   ar
     9    12    14    1
    10    14    16    1
    11    16    17    1
    12    17    18    1
    13    18    19    1
    14    19    20    1
    15    20    21    1
    16    12    13   ar
    17     4     5   ar
    18     5     6   ar
    19     6     7   ar
    20     7    22    1
    21    22    31    1
    22    31    32    1
    23    22    23    1
    24    23    24   ar
    25    24    25   ar
    26    25    26   ar
    27    26    27    1
    28    26    28   ar
    29    28    29    1
    30    28    30   ar
    31     7     2   ar
    32    30    23   ar
    33    13     8   ar
    34    21    16    1
    35    14    15    1
    36    32    33    1
@<TRIPOS>MOLECULE
*****
 33 36 0 0 0
SMALL
GASTEIGER

@<TRIPOS>ATOM
      1 O           4.6607    1.8916   18.9639 O.2     1  UNL1       -0.2670
      2 C           3.2840    1.3847   19.2766 C.ar    1  UNL1        0.2613
      3 C           2.1829    2.3522   19.5950 C.ar    1  UNL1        0.0623
      4 C           0.8062    1.8453   19.9076 C.ar    1  UNL1        0.0240
      5 C           0.5306    0.3709   19.9018 C.ar    1  UNL1        0.0204
      6 C           1.6317   -0.5966   19.5834 C.ar    1  UNL1        0.0787
      7 N           3.0084   -0.0897   19.2708 N.ar    1  UNL1       -0.2897
      8 C          -0.2949    2.8129   20.2261 C.ar    1  UNL1        0.0859
      9 C          -0.0113    4.2853   20.2655 C.ar    1  UNL1        0.0399
     10 C          -1.1123    5.2529   20.5839 C.ar    1  UNL1        0.1034
     11 N          -2.4971    4.7481   20.8629 N.ar    1  UNL1       -0.2123
     12 C          -2.7807    3.2757   20.8235 C.ar    1  UNL1        0.2168
     13 N          -1.6796    2.3081   20.5050 N.ar    1  UNL1       -0.2138
     14 N          -4.1653    2.7709   21.1024 N.pl3   1  UNL1       -0.3045
     15 H          -4.5676    2.0886   20.5178 H       1  UNL1        0.1496
     16 C          -4.9370    3.3057   22.2722 C.3     1  UNL1        0.0768
     17 C          -4.3862    3.1675   23.6605 C.3     1  UNL1        0.0517
     18 C          -5.1580    3.7023   24.8304 C.3     1  UNL1        0.1439
     19 O          -6.4805    4.3753   24.6118 O.3     1  UNL1       -0.3537
     20 C          -7.0314    4.5135   23.2235 C.3     1  UNL1        0.1439
     21 C          -6.2597    3.9787   22.0537 C.3     1  UNL1        0.0517
     22 C           4.1095   -1.0573   18.9523 C.3     1  UNL1        0.1402
     23 C           4.7169   -1.8880   20.0437 C.ar    1  UNL1        0.0030
     24 C           4.1340   -1.8533   21.4254 C.ar    1  UNL1       -0.0014
     25 C           4.7414   -2.6839   22.5167 C.ar    1  UNL1        0.0134
     26 C           5.9317   -3.5493   22.2264 C.ar    1  UNL1        0.0850
     27 CL          6.5391   -4.3800   23.3178 Cl      1  UNL1       -0.0799
     28 C           6.5146   -3.5841   20.8448 C.ar    1  UNL1        0.1503
     29 F           7.7049   -4.4494   20.5545 F       1  UNL1       -0.2033
     30 C           5.9072   -2.7534   19.7534 C.ar    1  UNL1        0.0281
     31 C           4.6032   -1.1942   17.5425 C.3     1  UNL1        0.1642
     32 O           3.6239   -1.2651   16.4085 O.3     1  UNL1       -0.3797
     33 H           3.1060   -2.0822   16.4792 H       1  UNL1        0.2105
@<TRIPOS>BOND
     1     1     2    2
     2     2     3   ar
     3     3     4   ar
     4     4     8    1
     5     8     9   ar
     6     9    10   ar
     7    10    11   ar
     8    11    12   ar
     9    12    14    1
    10    14    16    1
    11    16    17    1
    12    17    18    1
    13    18    19    1
    14    19    20    1
    15    20    21    1
    16    12    13   ar
    17     4     5   ar
    18     5     6   ar
    19     6     7   ar
    20     7    22    1
    21    22    31    1
    22    31    32    1
    23    22    23    1
    24    23    24   ar
    25    24    25   ar
    26    25    26   ar
    27    26    27    1
    28    26    28   ar
    29    28    29    1
    30    28    30   ar
    31     7     2   ar
    32    30    23   ar
    33    13     8   ar
    34    21    16    1
    35    14    15    1
    36    32    33    1
@<TRIPOS>MOLECULE
*****
 33 36 0 0 0
SMALL
GASTEIGER

@<TRIPOS>ATOM
      1 O           3.4817    1.6421   22.3773 O.2     1  UNL1       -0.2670
      2 C           2.6626    1.7533   21.1257 C.ar    1  UNL1        0.2613
      3 C           1.3330    2.4467   21.1586 C.ar    1  UNL1        0.0623
      4 C           0.5139    2.5579   19.9069 C.ar    1  UNL1        0.0240
      5 C           1.0244    1.9757   18.6223 C.ar    1  UNL1        0.0204
      6 C           2.3541    1.2823   18.5894 C.ar    1  UNL1        0.0787
      7 N           3.1732    1.1711   19.8410 N.ar    1  UNL1       -0.2897
      8 C          -0.8159    3.2514   19.9399 C.ar    1  UNL1        0.0859
      9 C          -0.9695    4.6086   19.3199 C.ar    1  UNL1        0.0399
     10 C          -2.2991    5.3021   19.3529 C.ar    1  UNL1        0.1034
     11 N          -3.4752    4.6383   20.0059 N.ar    1  UNL1       -0.2123
     12 C          -3.3216    3.2811   20.6259 C.ar    1  UNL1        0.2168
     13 N          -1.9919    2.5876   20.5929 N.ar    1  UNL1       -0.2138
     14 N          -4.4976    2.6174   21.2788 N.pl3   1  UNL1       -0.3045
     15 H          -4.8103    1.7415   20.9560 H       1  UNL1        0.1496
     16 C          -5.1971    3.2882   22.4236 C.3     1  UNL1        0.0768
     17 C          -4.6472    3.1662   23.8138 C.3     1  UNL1        0.0517
     18 C          -5.3468    3.8370   24.9587 C.3     1  UNL1        0.1439
     19 O          -6.5962    4.6298   24.7133 O.3     1  UNL1       -0.3537
     20 C          -7.1462    4.7519   23.3231 C.3     1  UNL1        0.1439
     21 C          -6.4466    4.0811   22.1783 C.3     1  UNL1        0.0517
     22 C           4.5029    0.4776   19.8080 C.3     1  UNL1        0.1402
     23 C           4.5721   -1.0002   19.5609 C.ar    1  UNL1        0.0030
     24 C           4.9668   -1.5169   18.2091 C.ar    1  UNL1       -0.0014
     25 C           5.0360   -2.9948   17.9619 C.ar    1  UNL1        0.0134
     26 C           4.7106   -3.9560   19.0665 C.ar    1  UNL1        0.0850
     27 CL          4.7798   -5.4338   18.8194 Cl      1  UNL1       -0.0799
     28 C           4.3160   -3.4394   20.4183 C.ar    1  UNL1        0.1503
     29 F           3.9906   -4.4006   21.5229 F       1  UNL1       -0.2033
     30 C           4.2467   -1.9614   20.6655 C.ar    1  UNL1        0.0281
     31 C           5.7634    1.2621   20.0222 C.3     1  UNL1        0.1642
     32 O           5.6946    2.7411   20.2626 O.3     1  UNL1       -0.3797
     33 H           5.3618    3.1830   19.4659 H       1  UNL1        0.2105
@<TRIPOS>BOND
     1     1     2    2
     2     2     3   ar
     3     3     4   ar
     4     4     8    1
     5     8     9   ar
     6     9    10   ar
     7    10    11   ar
     8    11    12   ar
     9    12    14    1
    10    14    16    1
    11    16    17    1
    12    17    18    1
    13    18    19    1
    14    19    20    1
    15    20    21    1
    16    12    13   ar
    17     4     5   ar
    18     5     6   ar
    19     6     7   ar
    20     7    22    1
    21    22    31    1
    22    31    32    1
    23    22    23    1
    24    23    24   ar
    25    24    25   ar
    26    25    26   ar
    27    26    27    1
    28    26    28   ar
    29    28    29    1
    30    28    30   ar
    31     7     2   ar
    32    30    23   ar
    33    13     8   ar
    34    21    16    1
    35    14    15    1
    36    32    33    1
@<TRIPOS>MOLECULE
*****
 33 36 0 0 0
SMALL
GASTEIGER

@<TRIPOS>ATOM
      1 O           5.2722    1.9035   29.2261 O.2     1  UNL1       -0.2670
      2 C           4.7705    1.1096   30.3957 C.ar    1  UNL1        0.2613
      3 C           5.2748    1.4080   31.7765 C.ar    1  UNL1        0.0623
      4 C           4.7731    0.6140   32.9461 C.ar    1  UNL1        0.0240
      5 C           3.7670   -0.4783   32.7349 C.ar    1  UNL1        0.0204
      6 C           3.2627   -0.7767   31.3541 C.ar    1  UNL1        0.0787
      7 N           3.7644    0.0172   30.1846 N.ar    1  UNL1       -0.2897
      8 C           5.2774    0.9125   34.3269 C.ar    1  UNL1        0.0859
      9 C           6.6283    1.5373   34.5132 C.ar    1  UNL1        0.0399
     10 C           7.1327    1.8358   35.8939 C.ar    1  UNL1        0.1034
     11 N           6.2862    1.5094   37.0885 N.ar    1  UNL1       -0.2123
     12 C           4.9353    0.8845   36.9022 C.ar    1  UNL1        0.2168
     13 N           4.4309    0.5861   35.5214 N.ar    1  UNL1       -0.2138
     14 N           4.0888    0.5581   38.0967 N.pl3   1  UNL1       -0.3045
     15 H           4.3775   -0.1391   38.7290 H       1  UNL1        0.1496
     16 C           2.8024    1.2941   38.3280 C.3     1  UNL1        0.0768
     17 C           1.7128    0.6623   39.1425 C.3     1  UNL1        0.0517
     18 C           0.4264    1.3983   39.3738 C.3     1  UNL1        0.1439
     19 O           0.2296    2.7661   38.7904 O.3     1  UNL1       -0.3537
     20 C           1.3192    3.3980   37.9759 C.3     1  UNL1        0.1439
     21 C           2.6056    2.6620   37.7446 C.3     1  UNL1        0.0517
     22 C           3.2601   -0.2812   28.8037 C.3     1  UNL1        0.1402
     23 C           2.0260    0.4010   28.2923 C.ar    1  UNL1        0.0030
     24 C           2.1426    1.5035   27.2818 C.ar    1  UNL1       -0.0014
     25 C           0.9086    2.1857   26.7703 C.ar    1  UNL1        0.0134
     26 C          -0.4421    1.7656   27.2693 C.ar    1  UNL1        0.0850
     27 CL         -1.6762    2.4478   26.7579 Cl      1  UNL1       -0.0799
     28 C          -0.5588    0.6632   28.2798 C.ar    1  UNL1        0.1503
     29 F          -1.9095    0.2430   28.7788 F       1  UNL1       -0.2033
     30 C           0.6753   -0.0191   28.7913 C.ar    1  UNL1        0.0281
     31 C           3.9898   -1.2619   27.9344 C.3     1  UNL1        0.1642
     32 O           3.2518   -2.0084   26.8630 O.3     1  UNL1       -0.3797
     33 H           2.6042   -2.6040   27.2713 H       1  UNL1        0.2105
@<TRIPOS>BOND
     1     1     2    2
     2     2     3   ar
     3     3     4   ar
     4     4     8    1
     5     8     9   ar
     6     9    10   ar
     7    10    11   ar
     8    11    12   ar
     9    12    14    1
    10    14    16    1
    11    16    17    1
    12    17    18    1
    13    18    19    1
    14    19    20    1
    15    20    21    1
    16    12    13   ar
    17     4     5   ar
    18     5     6   ar
    19     6     7   ar
    20     7    22    1
    21    22    31    1
    22    31    32    1
    23    22    23    1
    24    23    24   ar
    25    24    25   ar
    26    25    26   ar
    27    26    27    1
    28    26    28   ar
    29    28    29    1
    30    28    30   ar
    31     7     2   ar
    32    30    23   ar
    33    13     8   ar
    34    21    16    1
    35    14    15    1
    36    32    33    1
@<TRIPOS>MOLECULE
*****
 33 36 0 0 0
SMALL
GASTEIGER

@<TRIPOS>ATOM
      1 O           4.2219   -4.7303   21.3644 O.2     1  UNL1       -0.2670
      2 C           4.9810   -3.6005   21.9947 C.ar    1  UNL1        0.2613
      3 C           5.4491   -3.7119   23.4154 C.ar    1  UNL1        0.0623
      4 C           6.2082   -2.5821   24.0458 C.ar    1  UNL1        0.0240
      5 C           6.4992   -1.3409   23.2554 C.ar    1  UNL1        0.0204
      6 C           6.0311   -1.2295   21.8347 C.ar    1  UNL1        0.0787
      7 N           5.2720   -2.3593   21.2044 N.ar    1  UNL1       -0.2897
      8 C           6.6763   -2.6935   25.4665 C.ar    1  UNL1        0.0859
      9 C           7.5005   -3.8715   25.8944 C.ar    1  UNL1        0.0399
     10 C           7.9686   -3.9829   27.3151 C.ar    1  UNL1        0.1034
     11 N           7.6125   -2.9163   28.3080 N.ar    1  UNL1       -0.2123
     12 C           6.7883   -1.7384   27.8801 C.ar    1  UNL1        0.2168
     13 N           6.3202   -1.6269   26.4593 N.ar    1  UNL1       -0.2138
     14 N           6.4322   -0.6718   28.8729 N.pl3   1  UNL1       -0.3045
     15 H           6.8815    0.2035   28.8375 H       1  UNL1        0.1496
     16 C           5.3917   -0.9389   29.9197 C.3     1  UNL1        0.0768
     17 C           3.9836   -0.4635   29.7160 C.3     1  UNL1        0.0517
     18 C           2.9430   -0.7307   30.7628 C.3     1  UNL1        0.1439
     19 O           3.3104   -1.4731   32.0133 O.3     1  UNL1       -0.3537
     20 C           4.7184   -1.9485   32.2170 C.3     1  UNL1        0.1439
     21 C           5.7590   -1.6814   31.1702 C.3     1  UNL1        0.0517
     22 C           4.8039   -2.2479   19.7836 C.3     1  UNL1        0.1402
     23 C           3.7424   -1.2527   19.4195 C.ar    1  UNL1        0.0030
     24 C           4.0025   -0.2376   18.3462 C.ar    1  UNL1       -0.0014
     25 C           2.9409    0.7577   17.9821 C.ar    1  UNL1        0.0134
     26 C           1.6194    0.7379   18.6913 C.ar    1  UNL1        0.0850
     27 CL          0.5578    1.7332   18.3273 Cl      1  UNL1       -0.0799
     28 C           1.3593   -0.2771   19.7646 C.ar    1  UNL1        0.1503
     29 F           0.0377   -0.2969   20.4739 F       1  UNL1       -0.2033
     30 C           2.4208   -1.2724   20.1287 C.ar    1  UNL1        0.0281
     31 C           5.3974   -3.1318   18.7269 C.3     1  UNL1        0.1642
     32 O           4.6522   -4.3471   18.2603 O.3     1  UNL1       -0.3797
     33 H           4.5867   -4.9854   18.9878 H       1  UNL1        0.2105
@<TRIPOS>BOND
     1     1     2    2
     2     2     3   ar
     3     3     4   ar
     4     4     8    1
     5     8     9   ar
     6     9    10   ar
     7    10    11   ar
     8    11    12   ar
     9    12    14    1
    10    14    16    1
    11    16    17    1
    12    17    18    1
    13    18    19    1
    14    19    20    1
    15    20    21    1
    16    12    13   ar
    17     4     5   ar
    18     5     6   ar
    19     6     7   ar
    20     7    22    1
    21    22    31    1
    22    31    32    1
    23    22    23    1
    24    23    24   ar
    25    24    25   ar
    26    25    26   ar
    27    26    27    1
    28    26    28   ar
    29    28    29    1
    30    28    30   ar
    31     7     2   ar
    32    30    23   ar
    33    13     8   ar
    34    21    16    1
    35    14    15    1
    36    32    33    1
@<TRIPOS>MOLECULE
*****
 33 36 0 0 0
SMALL
GASTEIGER

@<TRIPOS>ATOM
      1 O           0.3440    3.0233   30.4618 O.2     1  UNL1       -0.2670
      2 C           1.1866    1.7864   30.5625 C.ar    1  UNL1        0.2613
      3 C           2.1135    1.6031   31.7275 C.ar    1  UNL1        0.0623
      4 C           2.9561    0.3662   31.8281 C.ar    1  UNL1        0.0240
      5 C           2.8718   -0.6874   30.7638 C.ar    1  UNL1        0.0204
      6 C           1.9449   -0.5041   29.5988 C.ar    1  UNL1        0.0787
      7 N           1.1023    0.7328   29.4981 N.ar    1  UNL1       -0.2897
      8 C           3.8830    0.1829   32.9932 C.ar    1  UNL1        0.0859
      9 C           4.8630   -0.9526   33.0004 C.ar    1  UNL1        0.0399
     10 C           5.7899   -1.1360   34.1654 C.ar    1  UNL1        0.1034
     11 N           5.7367   -0.1837   35.3233 N.ar    1  UNL1       -0.2123
     12 C           4.7566    0.9518   35.3161 C.ar    1  UNL1        0.2168
     13 N           3.8297    1.1351   34.1510 N.ar    1  UNL1       -0.2138
     14 N           4.7034    1.9039   36.4738 N.pl3   1  UNL1       -0.3045
     15 H           5.5160    2.3839   36.7542 H       1  UNL1        0.1496
     16 C           3.4122    2.1248   37.2045 C.3     1  UNL1        0.0768
     17 C           2.6325    3.3872   36.9847 C.3     1  UNL1        0.0517
     18 C           1.3412    3.6080   37.7154 C.3     1  UNL1        0.1439
     19 O           0.8296    2.5664   38.6658 O.3     1  UNL1       -0.3537
     20 C           1.6093    1.3039   38.8855 C.3     1  UNL1        0.1439
     21 C           2.9006    1.0831   38.1549 C.3     1  UNL1        0.0517
     22 C           0.1754    0.9161   28.3331 C.3     1  UNL1        0.1402
     23 C           0.7108    1.3978   27.0173 C.ar    1  UNL1        0.0030
     24 C          -0.1334    1.2960   25.7815 C.ar    1  UNL1       -0.0014
     25 C           0.4020    1.7777   24.4657 C.ar    1  UNL1        0.0134
     26 C           1.7815    2.3613   24.3857 C.ar    1  UNL1        0.0850
     27 CL          2.3169    2.8430   23.0699 Cl      1  UNL1       -0.0799
     28 C           2.6256    2.4632   25.6214 C.ar    1  UNL1        0.1503
     29 F           4.0051    3.0468   25.5413 F       1  UNL1       -0.2033
     30 C           2.0903    1.9815   26.9372 C.ar    1  UNL1        0.0281
     31 C          -1.2868    0.6177   28.4838 C.3     1  UNL1        0.1642
     32 O          -1.7998    0.0021   29.7518 O.3     1  UNL1       -0.3797
     33 H          -1.4408   -0.8943   29.8443 H       1  UNL1        0.2105
@<TRIPOS>BOND
     1     1     2    2
     2     2     3   ar
     3     3     4   ar
     4     4     8    1
     5     8     9   ar
     6     9    10   ar
     7    10    11   ar
     8    11    12   ar
     9    12    14    1
    10    14    16    1
    11    16    17    1
    12    17    18    1
    13    18    19    1
    14    19    20    1
    15    20    21    1
    16    12    13   ar
    17     4     5   ar
    18     5     6   ar
    19     6     7   ar
    20     7    22    1
    21    22    31    1
    22    31    32    1
    23    22    23    1
    24    23    24   ar
    25    24    25   ar
    26    25    26   ar
    27    26    27    1
    28    26    28   ar
    29    28    29    1
    30    28    30   ar
    31     7     2   ar
    32    30    23   ar
    33    13     8   ar
    34    21    16    1
    35    14    15    1
    36    32    33    1
@<TRIPOS>MOLECULE
*****
 33 36 0 0 0
SMALL
GASTEIGER

@<TRIPOS>ATOM
      1 O           5.3136   -1.2969   25.6687 O.2     1  UNL1       -0.2670
      2 C           6.3561   -2.3663   25.8085 C.ar    1  UNL1        0.2613
      3 C           6.5482   -3.0590   27.1250 C.ar    1  UNL1        0.0623
      4 C           7.5906   -4.1284   27.2648 C.ar    1  UNL1        0.0240
      5 C           8.4410   -4.5053   26.0880 C.ar    1  UNL1        0.0204
      6 C           8.2489   -3.8126   24.7714 C.ar    1  UNL1        0.0787
      7 N           7.2064   -2.7432   24.6317 N.ar    1  UNL1       -0.2897
      8 C           7.7827   -4.8210   28.5814 C.ar    1  UNL1        0.0859
      9 C           8.7790   -5.9357   28.7041 C.ar    1  UNL1        0.0399
     10 C           8.9712   -6.6283   30.0207 C.ar    1  UNL1        0.1034
     11 N           8.1670   -6.2063   31.2146 N.ar    1  UNL1       -0.2123
     12 C           7.1707   -5.0917   31.0918 C.ar    1  UNL1        0.2168
     13 N           6.9786   -4.3991   29.7752 N.ar    1  UNL1       -0.2138
     14 N           6.3665   -4.6697   32.2856 N.pl3   1  UNL1       -0.3045
     15 H           5.9662   -5.3494   32.8747 H       1  UNL1        0.1496
     16 C           6.1723   -3.2122   32.5819 C.3     1  UNL1        0.0768
     17 C           4.7997   -2.6827   32.8745 C.3     1  UNL1        0.0517
     18 C           4.6055   -1.2251   33.1707 C.3     1  UNL1        0.1439
     19 O           5.7839   -0.2970   33.1744 O.3     1  UNL1       -0.3537
     20 C           7.1565   -0.8265   32.8818 C.3     1  UNL1        0.1439
     21 C           7.3507   -2.2840   32.5855 C.3     1  UNL1        0.0517
     22 C           7.0143   -2.0505   23.3151 C.3     1  UNL1        0.1402
     23 C           6.1971   -2.7002   22.2380 C.ar    1  UNL1        0.0030
     24 C           4.9850   -3.5066   22.5996 C.ar    1  UNL1       -0.0014
     25 C           4.1678   -4.1563   21.5226 C.ar    1  UNL1        0.0134
     26 C           4.5626   -3.9997   20.0840 C.ar    1  UNL1        0.0850
     27 CL          3.7454   -4.6494   19.0069 Cl      1  UNL1       -0.0799
     28 C           5.7747   -3.1934   19.7224 C.ar    1  UNL1        0.1503
     29 F           6.1696   -3.0369   18.2838 F       1  UNL1       -0.2033
     30 C           6.5920   -2.5437   20.7994 C.ar    1  UNL1        0.0281
     31 C           7.6394   -0.7082   23.0756 C.3     1  UNL1        0.1642
     32 O           8.9964   -0.6149   22.4432 O.3     1  UNL1       -0.3797
     33 H           9.6582   -0.9980   23.0399 H       1  UNL1        0.2105
@<TRIPOS>BOND
     1     1     2    2
     2     2     3   ar
     3     3     4   ar
     4     4     8    1
     5     8     9   ar
     6     9    10   ar
     7    10    11   ar
     8    11    12   ar
     9    12    14    1
    10    14    16    1
    11    16    17    1
    12    17    18    1
    13    18    19    1
    14    19    20    1
    15    20    21    1
    16    12    13   ar
    17     4     5   ar
    18     5     6   ar
    19     6     7   ar
    20     7    22    1
    21    22    31    1
    22    31    32    1
    23    22    23    1
    24    23    24   ar
    25    24    25   ar
    26    25    26   ar
    27    26    27    1
    28    26    28   ar
    29    28    29    1
    30    28    30   ar
    31     7     2   ar
    32    30    23   ar
    33    13     8   ar
    34    21    16    1
    35    14    15    1
    36    32    33    1
@<TRIPOS>MOLECULE
*****
 33 36 0 0 0
SMALL
GASTEIGER

@<TRIPOS>ATOM
      1 O           4.6529    0.6326   22.6443 O.2     1  UNL1       -0.2670
      2 C           3.2269    1.0559   22.4510 C.ar    1  UNL1        0.2613
      3 C           2.3738    1.3827   23.6406 C.ar    1  UNL1        0.0623
      4 C           0.9477    1.8059   23.4473 C.ar    1  UNL1        0.0240
      5 C           0.3749    1.9023   22.0644 C.ar    1  UNL1        0.0204
      6 C           1.2281    1.5755   20.8748 C.ar    1  UNL1        0.0787
      7 N           2.6541    1.1523   21.0681 N.ar    1  UNL1       -0.2897
      8 C           0.0946    2.1327   24.6370 C.ar    1  UNL1        0.0859
      9 C          -0.7397    3.3793   24.6420 C.ar    1  UNL1        0.0399
     10 C          -1.5928    3.7061   25.8316 C.ar    1  UNL1        0.1034
     11 N          -1.6118    2.7863   27.0164 N.ar    1  UNL1       -0.2123
     12 C          -0.7775    1.5397   27.0115 C.ar    1  UNL1        0.2168
     13 N           0.0757    1.2129   25.8218 N.ar    1  UNL1       -0.2138
     14 N          -0.7964    0.6199   28.1962 N.pl3   1  UNL1       -0.3045
     15 H          -1.5390   -0.0156   28.3142 H       1  UNL1        0.1496
     16 C           0.3161    0.6685   29.2011 C.3     1  UNL1        0.0768
     17 C           1.3982   -0.3699   29.1728 C.3     1  UNL1        0.0517
     18 C           2.5107   -0.3213   30.1779 C.3     1  UNL1        0.1439
     19 O           2.5411    0.7656   31.2111 O.3     1  UNL1       -0.3537
     20 C           1.4590    1.8040   31.2394 C.3     1  UNL1        0.1439
     21 C           0.3465    1.7554   30.2345 C.3     1  UNL1        0.0517
     22 C           3.5073    0.8255   19.8783 C.3     1  UNL1        0.1402
     23 C           3.8253   -0.6039   19.5534 C.ar    1  UNL1        0.0030
     24 C           2.9002   -1.6979   19.9981 C.ar    1  UNL1       -0.0014
     25 C           3.2182   -3.1273   19.6731 C.ar    1  UNL1        0.0134
     26 C           4.4612   -3.4628   18.9035 C.ar    1  UNL1        0.0850
     27 CL          4.7792   -4.8922   18.5786 Cl      1  UNL1       -0.0799
     28 C           5.3862   -2.3690   18.4588 C.ar    1  UNL1        0.1503
     29 F           6.6293   -2.7045   17.6892 F       1  UNL1       -0.2033
     30 C           5.0683   -0.9395   18.7838 C.ar    1  UNL1        0.0281
     31 C           4.0424    1.9282   19.0136 C.3     1  UNL1        0.1642
     32 O           4.4862    3.2196   19.6341 O.3     1  UNL1       -0.3797
     33 H           3.7203    3.6730   20.0198 H       1  UNL1        0.2105
@<TRIPOS>BOND
     1     1     2    2
     2     2     3   ar
     3     3     4   ar
     4     4     8    1
     5     8     9   ar
     6     9    10   ar
     7    10    11   ar
     8    11    12   ar
     9    12    14    1
    10    14    16    1
    11    16    17    1
    12    17    18    1
    13    18    19    1
    14    19    20    1
    15    20    21    1
    16    12    13   ar
    17     4     5   ar
    18     5     6   ar
    19     6     7   ar
    20     7    22    1
    21    22    31    1
    22    31    32    1
    23    22    23    1
    24    23    24   ar
    25    24    25   ar
    26    25    26   ar
    27    26    27    1
    28    26    28   ar
    29    28    29    1
    30    28    30   ar
    31     7     2   ar
    32    30    23   ar
    33    13     8   ar
    34    21    16    1
    35    14    15    1
    36    32    33    1
