@<TRIPOS>MOLECULE
*****
 27 30 0 0 0
SMALL
GASTEIGER

@<TRIPOS>ATOM
      1 C          -8.5240  -16.9855   23.4947 C.3     1  UNL1        0.1140
      2 C          -7.7877  -17.9637   22.6282 C.2     1  UNL1       -0.0192
      3 C          -6.2879  -17.9862   22.6298 C.2     1  UNL1       -0.0145
      4 C          -5.5516  -18.9645   21.7632 C.2     1  UNL1       -0.0161
      5 C          -6.3151  -19.9201   20.8950 C.2     1  UNL1       -0.0038
      6 C          -5.5788  -20.8983   20.0285 C.2     1  UNL1        0.0009
      7 C          -4.0789  -20.9209   20.0301 C.2     1  UNL1        0.0153
      8 C          -3.3154  -19.9652   20.8982 C.2     1  UNL1        0.0665
      9 N          -1.8841  -19.6416   21.2092 N.2     1  UNL1       -0.2482
     10 C          -1.8684  -18.5250   22.2107 C.2     1  UNL1        0.0907
     11 C          -3.2882  -18.0312   22.6329 C.2     1  UNL1       -0.0142
     12 C          -4.0517  -18.9870   21.7647 C.3     1  UNL1        0.0819
     13 C          -4.0245  -17.0530   23.4994 C.3     1  UNL1        0.0447
     14 C          -5.5244  -17.0305   23.4979 C.3     1  UNL1        0.0837
     15 N          -6.2607  -16.0522   24.3645 N.3     1  UNL1       -0.2681
     16 C          -5.4972  -15.0966   25.2326 C.3     1  UNL1        0.0899
     17 C          -7.7605  -16.0297   24.3629 C.3     1  UNL1        0.0859
     18 N         -10.7932  -18.2489   23.4242 N.am    1  UNL1       -0.3032
     19 C         -10.0239  -16.9630   23.4931 C.2     1  UNL1        0.2275
     20 O         -10.7544  -15.6546   23.5605 O.2     1  UNL1       -0.2747
     21 H         -10.3137  -19.1076   23.3800 H       1  UNL1        0.1495
     22 CA        -12.2930  -18.2264   23.4226 C.3     1  UNL1        0.1008
     23 C         -13.0495  -18.5646   24.6730 C.3     1  UNL1        0.1565
     24 O         -14.4892  -18.1664   24.8094 O.3     1  UNL1       -0.3802
     25 H         -14.5561  -17.1991   24.8358 H       1  UNL1        0.2105
     26 C         -12.2831  -17.6041   20.9002 C.3     1  UNL1        0.0018
     27 C         -13.0364  -17.8657   22.1707 C.3     1  UNL1        0.0221
@<TRIPOS>BOND
     1    26    27    1
     2    22    27    1
     3    22    23    1
     4    23    24    1
     5    22    18    1
     6    18    19   am
     7    19    20    2
     8     1    19    1
     9     1     2    1
    10     2     3    2
    11     3     4    1
    12     4     5    2
    13     5     6    1
    14     6     7    2
    15     7     8    1
    16     8     9    2
    17     9    10    1
    18    10    11    2
    19    11    12    1
    20    11    13    1
    21    14    13    1
    22    14    15    1
    23    15    16    1
    24    15    17    1
    25    17     1    1
    26    14     3    1
    27    12     4    1
    28    12     8    1
    29    24    25    1
    30    18    21    1
@<TRIPOS>MOLECULE
*****
 27 30 0 0 0
SMALL
GASTEIGER

@<TRIPOS>ATOM
      1 C          -5.3560  -17.3999   22.8937 C.3     1  UNL1        0.1140
      2 C          -6.4933  -17.9695   22.0988 C.2     1  UNL1       -0.0192
      3 C          -7.9080  -17.6326   22.4662 C.2     1  UNL1       -0.0145
      4 C          -9.0454  -18.2024   21.6712 C.2     1  UNL1       -0.0161
      5 C          -8.7680  -19.1089   20.5089 C.2     1  UNL1       -0.0038
      6 C          -9.9053  -19.6786   19.7140 C.2     1  UNL1        0.0009
      7 C         -11.3200  -19.3417   20.0814 C.2     1  UNL1        0.0153
      8 C         -11.5974  -18.4351   21.2438 C.2     1  UNL1        0.0665
      9 N         -12.7895  -17.8513   21.9424 N.2     1  UNL1       -0.2482
     10 C         -12.2930  -16.9990   23.0725 C.2     1  UNL1        0.0907
     11 C         -10.7375  -16.9588   23.2011 C.2     1  UNL1       -0.0142
     12 C         -10.4601  -17.8654   22.0387 C.3     1  UNL1        0.0819
     13 C          -9.6002  -16.3891   23.9960 C.3     1  UNL1        0.0447
     14 C          -8.1854  -16.7261   23.6286 C.3     1  UNL1        0.0837
     15 N          -7.0481  -16.1563   24.4235 N.3     1  UNL1       -0.2681
     16 C          -7.3255  -15.2497   25.5859 C.3     1  UNL1        0.0899
     17 C          -5.6333  -16.4932   24.0561 C.3     1  UNL1        0.0859
     18 N          -3.4992  -17.6586   21.0949 N.am    1  UNL1       -0.3032
     19 C          -3.9412  -17.7368   22.5262 C.2     1  UNL1        0.2275
     20 O          -2.9686  -18.1519   23.5900 O.2     1  UNL1       -0.2747
     21 H          -4.1375  -17.3862   20.3967 H       1  UNL1        0.1495
     22 CA         -2.0844  -17.9955   20.7275 C.3     1  UNL1        0.1008
     23 C          -1.6778  -19.4278   20.5446 C.3     1  UNL1        0.1565
     24 O          -1.8984  -20.4170   21.6504 O.3     1  UNL1       -0.3802
     25 H          -1.3390  -20.1850   22.4082 H       1  UNL1        0.2105
     26 C           0.3127  -17.2293   20.0820 C.3     1  UNL1        0.0018
     27 C          -1.0763  -16.9003   20.5429 C.3     1  UNL1        0.0221
@<TRIPOS>BOND
     1    26    27    1
     2    22    27    1
     3    22    23    1
     4    23    24    1
     5    22    18    1
     6    18    19   am
     7    19    20    2
     8     1    19    1
     9     1     2    1
    10     2     3    2
    11     3     4    1
    12     4     5    2
    13     5     6    1
    14     6     7    2
    15     7     8    1
    16     8     9    2
    17     9    10    1
    18    10    11    2
    19    11    12    1
    20    11    13    1
    21    14    13    1
    22    14    15    1
    23    15    16    1
    24    15    17    1
    25    17     1    1
    26    14     3    1
    27    12     4    1
    28    12     8    1
    29    24    25    1
    30    18    21    1
@<TRIPOS>MOLECULE
*****
 27 30 0 0 0
SMALL
GASTEIGER

@<TRIPOS>ATOM
      1 C          -6.1688  -19.4173   20.1170 C.3     1  UNL1        0.1140
      2 C          -6.8945  -18.5738   21.1229 C.2     1  UNL1       -0.0192
      3 C          -8.3933  -18.5165   21.1119 C.2     1  UNL1       -0.0145
      4 C          -9.1190  -17.6729   22.1179 C.2     1  UNL1       -0.0161
      5 C          -8.3458  -16.8868   23.1347 C.2     1  UNL1       -0.0038
      6 C          -9.0714  -16.0433   24.1406 C.2     1  UNL1        0.0009
      7 C         -10.5703  -15.9859   24.1297 C.2     1  UNL1        0.0153
      8 C         -11.3435  -16.7721   23.1128 C.2     1  UNL1        0.0665
      9 N         -12.7775  -17.0083   22.7415 N.2     1  UNL1       -0.2482
     10 C         -12.8050  -17.9492   21.5736 C.2     1  UNL1        0.0907
     11 C         -11.3910  -18.4018   21.0900 C.2     1  UNL1       -0.0142
     12 C         -10.6178  -17.6156   22.1069 C.3     1  UNL1        0.0819
     13 C         -10.6654  -19.2453   20.0841 C.3     1  UNL1        0.0447
     14 C          -9.1665  -19.3026   20.0950 C.3     1  UNL1        0.0837
     15 N          -8.4409  -20.1462   19.0891 N.3     1  UNL1       -0.2681
     16 C          -9.2141  -20.9324   18.0722 C.3     1  UNL1        0.0899
     17 C          -6.9420  -20.2036   19.1000 C.3     1  UNL1        0.0859
     18 N          -3.8710  -18.2055   20.1599 N.am    1  UNL1       -0.3032
     19 C          -4.6699  -19.4747   20.1279 C.2     1  UNL1        0.2275
     20 O          -3.9700  -20.8011   20.1070 O.2     1  UNL1       -0.2747
     21 H          -4.3305  -17.3348   20.1737 H       1  UNL1        0.1495
     22 CA         -2.3722  -18.2628   20.1709 C.3     1  UNL1        0.1008
     23 C          -1.6085  -18.1654   18.8835 C.3     1  UNL1        0.1565
     24 O          -0.1555  -17.7932   18.8997 O.3     1  UNL1       -0.3802
     25 H          -0.0589  -16.8811   19.2151 H       1  UNL1        0.2105
     26 C          -2.3092  -18.0533   22.7597 C.3     1  UNL1        0.0018
     27 C          -1.6370  -18.4175   21.4691 C.3     1  UNL1        0.0221
@<TRIPOS>BOND
     1    26    27    1
     2    22    27    1
     3    22    23    1
     4    23    24    1
     5    22    18    1
     6    18    19   am
     7    19    20    2
     8     1    19    1
     9     1     2    1
    10     2     3    2
    11     3     4    1
    12     4     5    2
    13     5     6    1
    14     6     7    2
    15     7     8    1
    16     8     9    2
    17     9    10    1
    18    10    11    2
    19    11    12    1
    20    11    13    1
    21    14    13    1
    22    14    15    1
    23    15    16    1
    24    15    17    1
    25    17     1    1
    26    14     3    1
    27    12     4    1
    28    12     8    1
    29    24    25    1
    30    18    21    1
@<TRIPOS>MOLECULE
*****
 27 30 0 0 0
SMALL
GASTEIGER

@<TRIPOS>ATOM
      1 C          -8.9507  -18.4129   21.9405 C.3     1  UNL1        0.1140
      2 C          -7.5476  -18.1882   22.4208 C.2     1  UNL1       -0.0192
      3 C          -6.3959  -18.8137   21.6913 C.2     1  UNL1       -0.0145
      4 C          -4.9927  -18.5890   22.1716 C.2     1  UNL1       -0.0161
      5 C          -4.7413  -17.7387   23.3815 C.2     1  UNL1       -0.0038
      6 C          -3.3382  -17.5140   23.8618 C.2     1  UNL1        0.0009
      7 C          -2.1865  -18.1395   23.1323 C.2     1  UNL1        0.0153
      8 C          -2.4379  -18.9898   21.9224 C.2     1  UNL1        0.0665
      9 N          -1.6377  -19.7765   20.9270 N.2     1  UNL1       -0.2482
     10 C          -2.5930  -20.3972   19.9511 C.2     1  UNL1        0.0907
     11 C          -4.0925  -20.0648   20.2322 C.2     1  UNL1       -0.0142
     12 C          -3.8410  -19.2145   21.4421 C.3     1  UNL1        0.0819
     13 C          -5.4956  -20.2895   19.7519 C.3     1  UNL1        0.0447
     14 C          -6.6473  -19.6640   20.4814 C.3     1  UNL1        0.0837
     15 N          -8.0505  -19.8887   20.0010 N.3     1  UNL1       -0.2681
     16 C          -8.3019  -20.7390   18.7912 C.3     1  UNL1        0.0899
     17 C          -9.2022  -19.2632   20.7306 C.3     1  UNL1        0.0859
     18 N         -11.4772  -18.3744   22.5453 N.am    1  UNL1       -0.3032
     19 C         -10.1024  -17.7873   22.6701 C.2     1  UNL1        0.2275
     20 O          -9.8795  -16.5748   23.5244 O.2     1  UNL1       -0.2747
     21 H         -11.6235  -19.1703   21.9846 H       1  UNL1        0.1495
     22 CA        -12.6289  -17.7489   23.2749 C.3     1  UNL1        0.1008
     23 C         -13.1870  -16.4363   22.8104 C.3     1  UNL1        0.1565
     24 O         -12.2959  -15.2332   22.7178 O.3     1  UNL1       -0.3802
     25 H         -12.0021  -14.9792   23.6066 H       1  UNL1        0.2105
     26 C         -14.6996  -18.3616   24.7194 C.3     1  UNL1        0.0018
     27 C         -13.2225  -18.4359   24.4688 C.3     1  UNL1        0.0221
@<TRIPOS>BOND
     1    26    27    1
     2    22    27    1
     3    22    23    1
     4    23    24    1
     5    22    18    1
     6    18    19   am
     7    19    20    2
     8     1    19    1
     9     1     2    1
    10     2     3    2
    11     3     4    1
    12     4     5    2
    13     5     6    1
    14     6     7    2
    15     7     8    1
    16     8     9    2
    17     9    10    1
    18    10    11    2
    19    11    12    1
    20    11    13    1
    21    14    13    1
    22    14    15    1
    23    15    16    1
    24    15    17    1
    25    17     1    1
    26    14     3    1
    27    12     4    1
    28    12     8    1
    29    24    25    1
    30    18    21    1
@<TRIPOS>MOLECULE
*****
 27 30 0 0 0
SMALL
GASTEIGER

@<TRIPOS>ATOM
      1 C           5.5227   -3.5758   22.6896 C.3     1  UNL1        0.1140
      2 C           4.5584   -2.4991   23.0908 C.2     1  UNL1       -0.0192
      3 C           3.7081   -1.8289   22.0526 C.2     1  UNL1       -0.0145
      4 C           2.7438   -0.7522   22.4539 C.2     1  UNL1       -0.0161
      5 C           2.6299   -0.3458   23.8932 C.2     1  UNL1       -0.0038
      6 C           1.6656    0.7309   24.2944 C.2     1  UNL1        0.0009
      7 C           0.8153    1.4011   23.2562 C.2     1  UNL1        0.0153
      8 C           0.9293    0.9946   21.8168 C.2     1  UNL1        0.0665
      9 N           0.3129    1.3674   20.5011 N.2     1  UNL1       -0.2482
     10 C           0.9354    0.5111   19.4384 C.2     1  UNL1        0.0907
     11 C           2.0075   -0.4885   19.9763 C.2     1  UNL1       -0.0142
     12 C           1.8935   -0.0820   21.4157 C.3     1  UNL1        0.0819
     13 C           2.9718   -1.5652   19.5751 C.3     1  UNL1        0.0447
     14 C           3.8221   -2.2354   20.6133 C.3     1  UNL1        0.0837
     15 N           4.7864   -3.3121   20.2121 N.3     1  UNL1       -0.2681
     16 C           4.9003   -3.7186   18.7727 C.3     1  UNL1        0.0899
     17 C           5.6366   -3.9823   21.2502 C.3     1  UNL1        0.0859
     18 N           6.1881   -3.9119   25.1785 N.am    1  UNL1       -0.3032
     19 C           6.3730   -4.2460   23.7278 C.2     1  UNL1        0.2275
     20 O           7.4080   -5.2502   23.3154 O.2     1  UNL1       -0.2747
     21 H           5.5087   -3.2528   25.4492 H       1  UNL1        0.1495
     22 CA          7.0384   -4.5821   26.2167 C.3     1  UNL1        0.1008
     23 C           6.5857   -5.8691   26.8403 C.3     1  UNL1        0.1565
     24 O           5.4596   -5.8669   27.8312 O.3     1  UNL1       -0.3802
     25 H           5.7318   -5.3869   28.6290 H       1  UNL1        0.2105
     26 C           9.1461   -4.5839   27.7358 C.3     1  UNL1        0.0018
     27 C           8.3414   -3.9654   26.6312 C.3     1  UNL1        0.0221
@<TRIPOS>BOND
     1    26    27    1
     2    22    27    1
     3    22    23    1
     4    23    24    1
     5    22    18    1
     6    18    19   am
     7    19    20    2
     8     1    19    1
     9     1     2    1
    10     2     3    2
    11     3     4    1
    12     4     5    2
    13     5     6    1
    14     6     7    2
    15     7     8    1
    16     8     9    2
    17     9    10    1
    18    10    11    2
    19    11    12    1
    20    11    13    1
    21    14    13    1
    22    14    15    1
    23    15    16    1
    24    15    17    1
    25    17     1    1
    26    14     3    1
    27    12     4    1
    28    12     8    1
    29    24    25    1
    30    18    21    1
@<TRIPOS>MOLECULE
*****
 27 30 0 0 0
SMALL
GASTEIGER

@<TRIPOS>ATOM
      1 C          -8.9929  -18.4650   21.9323 C.3     1  UNL1        0.1140
      2 C          -7.5978  -18.2210   22.4262 C.2     1  UNL1       -0.0192
      3 C          -6.4311  -18.8375   21.7131 C.2     1  UNL1       -0.0145
      4 C          -5.0359  -18.5935   22.2071 C.2     1  UNL1       -0.0161
      5 C          -4.8075  -17.7329   23.4142 C.2     1  UNL1       -0.0038
      6 C          -3.4124  -17.4888   23.9081 C.2     1  UNL1        0.0009
      7 C          -2.2457  -18.1054   23.1949 C.2     1  UNL1        0.0153
      8 C          -2.4741  -18.9660   21.9878 C.2     1  UNL1        0.0665
      9 N          -1.6541  -19.7495   21.0061 N.2     1  UNL1       -0.2482
     10 C          -2.5915  -20.3873   20.0240 C.2     1  UNL1        0.0907
     11 C          -4.0977  -20.0707   20.2867 C.2     1  UNL1       -0.0142
     12 C          -3.8692  -19.2101   21.4939 C.3     1  UNL1        0.0819
     13 C          -5.4928  -20.3147   19.7928 C.3     1  UNL1        0.0447
     14 C          -6.6595  -19.6982   20.5060 C.3     1  UNL1        0.0837
     15 N          -8.0547  -19.9422   20.0120 N.3     1  UNL1       -0.2681
     16 C          -8.2831  -20.8028   18.8049 C.3     1  UNL1        0.0899
     17 C          -9.2214  -19.3256   20.7251 C.3     1  UNL1        0.0859
     18 N         -11.4685  -18.5782   22.7126 N.am    1  UNL1       -0.3032
     19 C         -10.1597  -17.8484   22.6454 C.2     1  UNL1        0.2275
     20 O         -10.0176  -16.5021   23.2914 O.2     1  UNL1       -0.2747
     21 H         -11.5618  -19.4618   22.2886 H       1  UNL1        0.1495
     22 CA        -12.6352  -17.9616   23.4257 C.3     1  UNL1        0.1008
     23 C         -13.1339  -18.5622   24.7067 C.3     1  UNL1        0.1565
     24 O         -14.5902  -18.4798   25.0566 O.3     1  UNL1       -0.3802
     25 H         -14.8350  -17.5531   25.2057 H       1  UNL1        0.2105
     26 C         -12.9551  -16.2731   21.4773 C.3     1  UNL1        0.0018
     27 C         -13.3033  -16.7445   22.8580 C.3     1  UNL1        0.0221
@<TRIPOS>BOND
     1    26    27    1
     2    22    27    1
     3    22    23    1
     4    23    24    1
     5    22    18    1
     6    18    19   am
     7    19    20    2
     8     1    19    1
     9     1     2    1
    10     2     3    2
    11     3     4    1
    12     4     5    2
    13     5     6    1
    14     6     7    2
    15     7     8    1
    16     8     9    2
    17     9    10    1
    18    10    11    2
    19    11    12    1
    20    11    13    1
    21    14    13    1
    22    14    15    1
    23    15    16    1
    24    15    17    1
    25    17     1    1
    26    14     3    1
    27    12     4    1
    28    12     8    1
    29    24    25    1
    30    18    21    1
@<TRIPOS>MOLECULE
*****
 27 30 0 0 0
SMALL
GASTEIGER

@<TRIPOS>ATOM
      1 C           1.4544    0.6912   23.6947 C.3     1  UNL1        0.1140
      2 C           2.5575   -0.3194   23.8027 C.2     1  UNL1       -0.0192
      3 C           3.0336   -1.0437   22.5784 C.2     1  UNL1       -0.0145
      4 C           4.1368   -2.0543   22.6864 C.2     1  UNL1       -0.0161
      5 C           4.7639   -2.3407   24.0186 C.2     1  UNL1       -0.0038
      6 C           5.8670   -3.3513   24.1265 C.2     1  UNL1        0.0009
      7 C           6.3431   -4.0756   22.9023 C.2     1  UNL1        0.0153
      8 C           5.7160   -3.7892   21.5701 C.2     1  UNL1        0.0665
      9 N           5.8601   -4.2467   20.1488 N.2     1  UNL1       -0.2482
     10 C           4.8612   -3.4978   19.3173 C.2     1  UNL1        0.0907
     11 C           3.9858   -2.4922   20.1299 C.2     1  UNL1       -0.0142
     12 C           4.6129   -2.7786   21.4621 C.3     1  UNL1        0.0819
     13 C           2.8826   -1.4816   20.0220 C.3     1  UNL1        0.0447
     14 C           2.4066   -0.7573   21.2462 C.3     1  UNL1        0.0837
     15 N           1.3034    0.2533   21.1382 N.3     1  UNL1       -0.2681
     16 C           0.6763    0.5397   19.8061 C.3     1  UNL1        0.0899
     17 C           0.8273    0.9776   22.3625 C.3     1  UNL1        0.0859
     18 N          -0.1681    0.8676   25.7162 N.am    1  UNL1       -0.3032
     19 C           0.9783    1.4155   24.9190 C.2     1  UNL1        0.2275
     20 O           1.6486    2.6876   25.3460 O.2     1  UNL1       -0.2747
     21 H          -0.6081    0.0327   25.4360 H       1  UNL1        0.1495
     22 CA         -0.6442    1.5919   26.9405 C.3     1  UNL1        0.1008
     23 C          -1.3692    2.8980   26.8047 C.3     1  UNL1        0.1565
     24 O          -0.5946    4.1774   26.6903 O.3     1  UNL1       -0.3802
     25 H          -0.1177    4.3419   27.5188 H       1  UNL1        0.2105
     26 C          -1.4584    0.1928   28.9726 C.3     1  UNL1        0.0018
     27 C          -0.3953    1.0101   28.3004 C.3     1  UNL1        0.0221
@<TRIPOS>BOND
     1    26    27    1
     2    22    27    1
     3    22    23    1
     4    23    24    1
     5    22    18    1
     6    18    19   am
     7    19    20    2
     8     1    19    1
     9     1     2    1
    10     2     3    2
    11     3     4    1
    12     4     5    2
    13     5     6    1
    14     6     7    2
    15     7     8    1
    16     8     9    2
    17     9    10    1
    18    10    11    2
    19    11    12    1
    20    11    13    1
    21    14    13    1
    22    14    15    1
    23    15    16    1
    24    15    17    1
    25    17     1    1
    26    14     3    1
    27    12     4    1
    28    12     8    1
    29    24    25    1
    30    18    21    1
@<TRIPOS>MOLECULE
*****
 27 30 0 0 0
SMALL
GASTEIGER

@<TRIPOS>ATOM
      1 C           4.0499   -1.0703   26.1113 C.3     1  UNL1        0.1140
      2 C           3.6084   -1.0298   24.6783 C.2     1  UNL1       -0.0192
      3 C           4.3517   -1.8193   23.6419 C.2     1  UNL1       -0.0145
      4 C           3.9102   -1.7788   22.2089 C.2     1  UNL1       -0.0161
      5 C           2.7254   -0.9487   21.8123 C.2     1  UNL1       -0.0038
      6 C           2.2839   -0.9082   20.3794 C.2     1  UNL1        0.0009
      7 C           3.0272   -1.6978   19.3430 C.2     1  UNL1        0.0153
      8 C           4.2120   -2.5278   19.7395 C.2     1  UNL1        0.0665
      9 N           5.2091   -3.4340   19.0802 N.2     1  UNL1       -0.2482
     10 C           6.1480   -3.9367   20.1365 C.2     1  UNL1        0.0907
     11 C           5.8383   -3.3984   21.5691 C.2     1  UNL1       -0.0142
     12 C           4.6535   -2.5683   21.1725 C.3     1  UNL1        0.0819
     13 C           6.2798   -3.4389   23.0021 C.3     1  UNL1        0.0447
     14 C           5.5365   -2.6494   24.0385 C.3     1  UNL1        0.0837
     15 N           5.9780   -2.6899   25.4715 N.3     1  UNL1       -0.2681
     16 C           7.1628   -3.5200   25.8680 C.3     1  UNL1        0.0899
     17 C           5.2347   -1.9004   26.5079 C.3     1  UNL1        0.0859
     18 N           2.1870   -0.9184   27.9160 N.am    1  UNL1       -0.3032
     19 C           3.3066   -0.2808   27.1477 C.2     1  UNL1        0.2275
     20 O           3.6828    1.1463   27.4159 O.2     1  UNL1       -0.2747
     21 H           1.9401   -1.8550   27.7399 H       1  UNL1        0.1495
     22 CA          1.4437   -0.1288   28.9524 C.3     1  UNL1        0.1008
     23 C           2.0408    0.0709   30.3139 C.3     1  UNL1        0.1565
     24 O           2.3930   -1.1167   31.1599 O.3     1  UNL1       -0.3802
     25 H           1.5830   -1.5903   31.4057 H       1  UNL1        0.2105
     26 C          -1.1219   -0.4039   28.6494 C.3     1  UNL1        0.0018
     27 C           0.1034    0.4610   28.6273 C.3     1  UNL1        0.0221
@<TRIPOS>BOND
     1    26    27    1
     2    22    27    1
     3    22    23    1
     4    23    24    1
     5    22    18    1
     6    18    19   am
     7    19    20    2
     8     1    19    1
     9     1     2    1
    10     2     3    2
    11     3     4    1
    12     4     5    2
    13     5     6    1
    14     6     7    2
    15     7     8    1
    16     8     9    2
    17     9    10    1
    18    10    11    2
    19    11    12    1
    20    11    13    1
    21    14    13    1
    22    14    15    1
    23    15    16    1
    24    15    17    1
    25    17     1    1
    26    14     3    1
    27    12     4    1
    28    12     8    1
    29    24    25    1
    30    18    21    1
@<TRIPOS>MOLECULE
*****
 27 30 0 0 0
SMALL
GASTEIGER

@<TRIPOS>ATOM
      1 C           6.1989   -3.4656   25.3174 C.3     1  UNL1        0.1140
      2 C           5.7646   -3.5967   23.8877 C.2     1  UNL1       -0.0192
      3 C           4.8047   -2.6042   23.3015 C.2     1  UNL1       -0.0145
      4 C           4.3703   -2.7353   21.8717 C.2     1  UNL1       -0.0161
      5 C           4.8958   -3.8588   21.0282 C.2     1  UNL1       -0.0038
      6 C           4.4614   -3.9899   19.5985 C.2     1  UNL1        0.0009
      7 C           3.5015   -2.9974   19.0123 C.2     1  UNL1        0.0153
      8 C           2.9760   -1.8739   19.8558 C.2     1  UNL1        0.0665
      9 N           2.0469   -0.7062   19.7038 N.2     1  UNL1       -0.2482
     10 C           1.9942    0.0182   21.0163 C.2     1  UNL1        0.0907
     11 C           2.8849   -0.6193   22.1291 C.2     1  UNL1       -0.0142
     12 C           3.4104   -1.7429   21.2855 C.3     1  UNL1        0.0819
     13 C           3.3193   -0.4883   23.5588 C.3     1  UNL1        0.0447
     14 C           4.2792   -1.4807   24.1450 C.3     1  UNL1        0.0837
     15 N           4.7135   -1.3496   25.5747 N.3     1  UNL1       -0.2681
     16 C           4.1880   -0.2261   26.4182 C.3     1  UNL1        0.0899
     17 C           5.6734   -2.3421   26.1610 C.3     1  UNL1        0.0859
     18 N           6.6635   -5.7947   26.3708 N.am    1  UNL1       -0.3032
     19 C           7.1588   -4.4581   25.9036 C.2     1  UNL1        0.2275
     20 O           8.6139   -4.1140   26.0226 O.2     1  UNL1       -0.2747
     21 H           5.7085   -6.0206   26.2927 H       1  UNL1        0.1495
     22 CA          7.6234   -6.7872   26.9570 C.3     1  UNL1        0.1008
     23 C           7.9983   -6.7017   28.4069 C.3     1  UNL1        0.1565
     24 O           7.0010   -6.2055   29.4115 O.3     1  UNL1       -0.3802
     25 H           6.8058   -5.2711   29.2389 H       1  UNL1        0.2105
     26 C           8.3851   -7.6339   24.6219 C.3     1  UNL1        0.0018
     27 C           8.2084   -7.8651   26.0934 C.3     1  UNL1        0.0221
@<TRIPOS>BOND
     1    26    27    1
     2    22    27    1
     3    22    23    1
     4    23    24    1
     5    22    18    1
     6    18    19   am
     7    19    20    2
     8     1    19    1
     9     1     2    1
    10     2     3    2
    11     3     4    1
    12     4     5    2
    13     5     6    1
    14     6     7    2
    15     7     8    1
    16     8     9    2
    17     9    10    1
    18    10    11    2
    19    11    12    1
    20    11    13    1
    21    14    13    1
    22    14    15    1
    23    15    16    1
    24    15    17    1
    25    17     1    1
    26    14     3    1
    27    12     4    1
    28    12     8    1
    29    24    25    1
    30    18    21    1
