@<TRIPOS>MOLECULE
*****
 34 36 0 0 0
SMALL
GASTEIGER

@<TRIPOS>ATOM
      1 C         -11.8995   -6.0844   18.2920 C.ar    1  UNL1        0.0528
      2 C         -12.3243   -4.7023   17.8929 C.ar    1  UNL1        0.0167
      3 C         -11.3997   -3.5414   18.1104 C.ar    1  UNL1        0.0506
      4 C         -10.0503   -3.7626   18.7270 C.ar    1  UNL1        0.0170
      5 C          -9.6255   -5.1447   19.1261 C.ar    1  UNL1        0.0307
      6 C         -10.5501   -6.3056   18.9086 C.ar    1  UNL1        0.1402
      7 F         -10.1253   -7.6878   19.3078 F       1  UNL1       -0.2044
      8 C         -11.6707   -7.6659   17.2126 C.3     1  UNL1        0.0607
      9 C         -12.8241   -7.2454   18.0746 C.3     1  UNL1        0.2223
     10 C         -13.6563   -6.4217   19.0120 C.3     1  UNL1        0.1959
     11 O         -15.0126   -6.9050   19.4327 O.3     1  UNL1       -0.3357
     12 C         -15.5366   -8.2121   18.9158 C.3     1  UNL1        0.2740
     13 C         -16.4611   -9.3731   18.6983 C.3     1  UNL1        0.0512
     14 C         -14.7044   -9.0358   17.9784 C.2     1  UNL1        0.3217
     15 N         -15.2284  -10.3428   17.4615 N.pl3   1  UNL1       -0.2480
     16 N         -13.3481   -8.5525   17.5577 N.2     1  UNL1       -0.0692
     17 H         -16.1185  -10.6601   17.7376 H       1  UNL1        0.2882
     18 H         -14.6821  -10.8834   16.8462 H       1  UNL1        0.2882
     19 C         -16.6900   -7.7916   19.7778 C.3     1  UNL1        0.4305
     20 F         -17.8433   -7.3711   20.6398 F       1  UNL1       -0.1670
     21 F         -16.4566   -8.9762   20.6679 F       1  UNL1       -0.1670
     22 F         -16.9232   -6.6070   18.8877 F       1  UNL1       -0.1670
     23 N         -11.8245   -2.1592   17.7113 N.am    1  UNL1       -0.2779
     24 C         -12.8655   -1.4342   18.5115 C.2     1  UNL1        0.2855
     25 O         -13.4818   -2.0913   19.7109 O.2     1  UNL1       -0.2664
     26 H         -11.4200   -1.7280   16.9241 H       1  UNL1        0.1553
     27 C         -13.2903   -0.0521   18.1125 C.ar    1  UNL1        0.2173
     28 N         -14.5595    0.5300   18.6604 N.ar    1  UNL1       -0.2205
     29 C         -14.9843    1.9122   18.2613 C.ar    1  UNL1        0.1125
     30 C         -14.1399    2.7122   17.3143 C.ar    1  UNL1        0.1067
     31 C         -12.8707    2.1301   16.7663 C.ar    1  UNL1        0.1125
     32 N         -12.4459    0.7480   17.1654 N.ar    1  UNL1       -0.2205
     33 C         -14.5647    4.0943   16.9152 C.1     1  UNL1        0.1036
     34 N         -14.9895    5.4765   16.5162 N.1     1  UNL1       -0.1907
@<TRIPOS>BOND
     1     9     8    1
     2     9     1    1
     3     1     2   ar
     4     2     3   ar
     5     3    23    1
     6    23    24   am
     7    24    25    2
     8    24    27    1
     9    27    28   ar
    10    28    29   ar
    11    29    30   ar
    12    30    33    1
    13    33    34    3
    14    30    31   ar
    15    31    32   ar
    16     3     4   ar
    17     4     5   ar
    18     5     6   ar
    19     6     7    1
    20     9    10    1
    21    10    11    1
    22    11    12    1
    23    12    13    1
    24    12    19    1
    25    19    20    1
    26    19    21    1
    27    19    22    1
    28    12    14    1
    29    14    15    1
    30    14    16    2
    31    16     9    1
    32     6     1   ar
    33    32    27   ar
    34    23    26    1
    35    15    17    1
    36    15    18    1
@<TRIPOS>MOLECULE
*****
 34 36 0 0 0
SMALL
GASTEIGER

@<TRIPOS>ATOM
      1 C           2.0443    0.6330   20.4198 C.ar    1  UNL1        0.0528
      2 C           0.6324    0.9214   20.8363 C.ar    1  UNL1        0.0167
      3 C          -0.1453    2.0053   20.1506 C.ar    1  UNL1        0.0506
      4 C           0.4889    2.8008   19.0483 C.ar    1  UNL1        0.0170
      5 C           1.9007    2.5124   18.6318 C.ar    1  UNL1        0.0307
      6 C           2.6784    1.4285   19.3175 C.ar    1  UNL1        0.1402
      7 F           4.0903    1.1401   18.9010 F       1  UNL1       -0.2044
      8 C           2.6152    0.4890   22.2561 C.3     1  UNL1        0.0607
      9 C           2.8220   -0.4509   21.1056 C.3     1  UNL1        0.2223
     10 C           2.7588   -1.0144   19.7169 C.3     1  UNL1        0.1959
     11 O           3.4014   -2.3354   19.4135 O.3     1  UNL1       -0.3357
     12 C           4.1073   -3.0929   20.4989 C.3     1  UNL1        0.2740
     13 C           4.8850   -4.1767   21.1847 C.3     1  UNL1        0.0512
     14 C           4.1706   -2.5294   21.8875 C.2     1  UNL1        0.3217
     15 N           4.8765   -3.2869   22.9729 N.pl3   1  UNL1       -0.2480
     16 N           3.5280   -1.2084   22.1909 N.2     1  UNL1       -0.0692
     17 H           5.2983   -4.1539   22.7738 H       1  UNL1        0.2882
     18 H           4.9180   -2.9170   23.8843 H       1  UNL1        0.2882
     19 C           4.3142   -4.0328   19.3483 C.3     1  UNL1        0.4305
     20 F           4.5210   -4.9728   18.1978 F       1  UNL1       -0.1670
     21 F           2.8337   -4.2604   19.2681 F       1  UNL1       -0.1670
     22 F           5.7946   -3.8053   19.4287 F       1  UNL1       -0.1670
     23 N          -1.5572    2.2937   20.5671 N.am    1  UNL1       -0.2779
     24 C          -1.8274    3.2558   21.6858 C.2     1  UNL1        0.2855
     25 O          -0.6857    3.9295   22.3879 O.2     1  UNL1       -0.2664
     26 H          -2.3064    1.8516   20.1063 H       1  UNL1        0.1553
     27 C          -3.2392    3.5443   22.1023 C.ar    1  UNL1        0.2173
     28 N          -4.2986    3.7604   21.0627 N.ar    1  UNL1       -0.2205
     29 C          -5.7105    4.0489   21.4793 C.ar    1  UNL1        0.1125
     30 C          -6.0629    4.1212   22.9355 C.ar    1  UNL1        0.1067
     31 C          -5.0034    3.9050   23.9751 C.ar    1  UNL1        0.1125
     32 N          -3.5916    3.6166   23.5586 N.ar    1  UNL1       -0.2205
     33 C          -7.4747    4.4096   23.3520 C.1     1  UNL1        0.1036
     34 N          -8.8865    4.6982   23.7686 N.1     1  UNL1       -0.1907
@<TRIPOS>BOND
     1     9     8    1
     2     9     1    1
     3     1     2   ar
     4     2     3   ar
     5     3    23    1
     6    23    24   am
     7    24    25    2
     8    24    27    1
     9    27    28   ar
    10    28    29   ar
    11    29    30   ar
    12    30    33    1
    13    33    34    3
    14    30    31   ar
    15    31    32   ar
    16     3     4   ar
    17     4     5   ar
    18     5     6   ar
    19     6     7    1
    20     9    10    1
    21    10    11    1
    22    11    12    1
    23    12    13    1
    24    12    19    1
    25    19    20    1
    26    19    21    1
    27    19    22    1
    28    12    14    1
    29    14    15    1
    30    14    16    2
    31    16     9    1
    32     6     1   ar
    33    32    27   ar
    34    23    26    1
    35    15    17    1
    36    15    18    1
@<TRIPOS>MOLECULE
*****
 34 36 0 0 0
SMALL
GASTEIGER

@<TRIPOS>ATOM
      1 C           7.1113   -4.1350   23.2430 C.ar    1  UNL1        0.0528
      2 C           6.5418   -3.7105   24.5642 C.ar    1  UNL1        0.0167
      3 C           6.8268   -4.5158   25.7972 C.ar    1  UNL1        0.0506
      4 C           7.6812   -5.7455   25.7090 C.ar    1  UNL1        0.0170
      5 C           8.2507   -6.1699   24.3879 C.ar    1  UNL1        0.0307
      6 C           7.9658   -5.3647   23.1549 C.ar    1  UNL1        0.1402
      7 F           8.5353   -5.7891   21.8337 F       1  UNL1       -0.2044
      8 C           8.0394   -2.6081   22.5178 C.3     1  UNL1        0.0607
      9 C           6.8263   -3.3298   22.0099 C.3     1  UNL1        0.2223
     10 C           5.7123   -4.3310   21.9304 C.3     1  UNL1        0.1959
     11 O           4.7346   -4.2764   20.7941 O.3     1  UNL1       -0.3357
     12 C           4.8710   -3.2206   19.7374 C.3     1  UNL1        0.2740
     13 C           4.5861   -2.4153   18.5044 C.3     1  UNL1        0.0512
     14 C           5.9850   -2.2193   19.8170 C.2     1  UNL1        0.3217
     15 N           6.1213   -1.1634   18.7603 N.pl3   1  UNL1       -0.2480
     16 N           6.9627   -2.2739   20.9532 N.2     1  UNL1       -0.0692
     17 H           5.4796   -1.1276   18.0145 H       1  UNL1        0.2882
     18 H           6.8525   -0.5063   18.8125 H       1  UNL1        0.2882
     19 C           3.6579   -3.9422   19.2296 C.3     1  UNL1        0.4305
     20 F           2.4449   -4.6638   18.7218 F       1  UNL1       -0.1670
     21 F           4.5300   -5.0545   18.7271 F       1  UNL1       -0.1670
     22 F           2.7860   -2.8299   19.7321 F       1  UNL1       -0.1670
     23 N           6.2573   -4.0913   27.1184 N.am    1  UNL1       -0.2779
     24 C           7.1332   -3.4127   28.1295 C.2     1  UNL1        0.2855
     25 O           8.5787   -3.1585   27.8192 O.2     1  UNL1       -0.2664
     26 H           5.3086   -4.2582   27.3220 H       1  UNL1        0.1553
     27 C           6.5638   -2.9883   29.4506 C.ar    1  UNL1        0.2173
     28 N           6.7717   -3.8423   30.6661 N.ar    1  UNL1       -0.2205
     29 C           6.2022   -3.4178   31.9873 C.ar    1  UNL1        0.1125
     30 C           5.4249   -2.1393   32.0930 C.ar    1  UNL1        0.1067
     31 C           5.2170   -1.2853   30.8776 C.ar    1  UNL1        0.1125
     32 N           5.7865   -1.7097   29.5564 N.ar    1  UNL1       -0.2205
     33 C           4.8555   -1.7149   33.4142 C.1     1  UNL1        0.1036
     34 N           4.2860   -1.2904   34.7355 N.1     1  UNL1       -0.1907
@<TRIPOS>BOND
     1     9     8    1
     2     9     1    1
     3     1     2   ar
     4     2     3   ar
     5     3    23    1
     6    23    24   am
     7    24    25    2
     8    24    27    1
     9    27    28   ar
    10    28    29   ar
    11    29    30   ar
    12    30    33    1
    13    33    34    3
    14    30    31   ar
    15    31    32   ar
    16     3     4   ar
    17     4     5   ar
    18     5     6   ar
    19     6     7    1
    20     9    10    1
    21    10    11    1
    22    11    12    1
    23    12    13    1
    24    12    19    1
    25    19    20    1
    26    19    21    1
    27    19    22    1
    28    12    14    1
    29    14    15    1
    30    14    16    2
    31    16     9    1
    32     6     1   ar
    33    32    27   ar
    34    23    26    1
    35    15    17    1
    36    15    18    1
@<TRIPOS>MOLECULE
*****
 34 36 0 0 0
SMALL
GASTEIGER

@<TRIPOS>ATOM
      1 C           3.3160    0.7641   18.4526 C.ar    1  UNL1        0.0528
      2 C           1.8909    1.2206   18.5566 C.ar    1  UNL1        0.0167
      3 C           1.5660    2.6838   18.4985 C.ar    1  UNL1        0.0506
      4 C           2.6661    3.6905   18.3363 C.ar    1  UNL1        0.0170
      5 C           4.0911    3.2341   18.2323 C.ar    1  UNL1        0.0307
      6 C           4.4160    1.7709   18.2904 C.ar    1  UNL1        0.1402
      7 F           5.8411    1.3143   18.1864 F       1  UNL1       -0.2044
      8 C           3.5028   -0.5217   17.0276 C.3     1  UNL1        0.0607
      9 C           3.6410   -0.6991   18.5107 C.3     1  UNL1        0.2223
     10 C           3.6662   -0.3684   19.9735 C.3     1  UNL1        0.1959
     11 O           3.9685   -1.4393   20.9794 O.3     1  UNL1       -0.3357
     12 C           4.2455   -2.8409   20.5225 C.3     1  UNL1        0.2740
     13 C           4.5705   -4.3041   20.5805 C.3     1  UNL1        0.0512
     14 C           4.2203   -3.1716   19.0596 C.2     1  UNL1        0.3217
     15 N           4.4973   -4.5732   18.6027 N.pl3   1  UNL1       -0.2480
     16 N           3.9180   -2.1007   18.0537 N.2     1  UNL1       -0.0692
     17 H           4.6957   -5.2761   19.2629 H       1  UNL1        0.2882
     18 H           4.4807   -4.7903   17.6425 H       1  UNL1        0.2882
     19 C           4.3837   -3.0183   22.0055 C.3     1  UNL1        0.4305
     20 F           4.5218   -3.1958   23.4886 F       1  UNL1       -0.1670
     21 F           3.2443   -2.0678   22.2254 F       1  UNL1       -0.1670
     22 F           5.5230   -3.9688   21.7856 F       1  UNL1       -0.1670
     23 N           0.1409    3.1403   18.6025 N.am    1  UNL1       -0.2779
     24 C          -0.5181    3.2413   19.9462 C.2     1  UNL1        0.2855
     25 O           0.2480    2.8858   21.1859 O.2     1  UNL1       -0.2664
     26 H          -0.3619    3.3737   17.7889 H       1  UNL1        0.1553
     27 C          -1.9431    3.6978   20.0503 C.ar    1  UNL1        0.2173
     28 N          -2.9584    2.8356   20.7401 N.ar    1  UNL1       -0.2205
     29 C          -4.3835    3.2922   20.8441 C.ar    1  UNL1        0.1125
     30 C          -4.7932    4.6109   20.2584 C.ar    1  UNL1        0.1067
     31 C          -3.7779    5.4731   19.5687 C.ar    1  UNL1        0.1125
     32 N          -2.3529    5.0166   19.4646 N.ar    1  UNL1       -0.2205
     33 C          -6.2182    5.0674   20.3625 C.1     1  UNL1        0.1036
     34 N          -7.6433    5.5239   20.4667 N.1     1  UNL1       -0.1907
@<TRIPOS>BOND
     1     9     8    1
     2     9     1    1
     3     1     2   ar
     4     2     3   ar
     5     3    23    1
     6    23    24   am
     7    24    25    2
     8    24    27    1
     9    27    28   ar
    10    28    29   ar
    11    29    30   ar
    12    30    33    1
    13    33    34    3
    14    30    31   ar
    15    31    32   ar
    16     3     4   ar
    17     4     5   ar
    18     5     6   ar
    19     6     7    1
    20     9    10    1
    21    10    11    1
    22    11    12    1
    23    12    13    1
    24    12    19    1
    25    19    20    1
    26    19    21    1
    27    19    22    1
    28    12    14    1
    29    14    15    1
    30    14    16    2
    31    16     9    1
    32     6     1   ar
    33    32    27   ar
    34    23    26    1
    35    15    17    1
    36    15    18    1
@<TRIPOS>MOLECULE
*****
 34 36 0 0 0
SMALL
GASTEIGER

@<TRIPOS>ATOM
      1 C         -14.8993   -4.7988   18.5518 C.ar    1  UNL1        0.0528
      2 C         -15.1024   -3.5706   19.3885 C.ar    1  UNL1        0.0167
      3 C         -16.3527   -2.7564   19.2343 C.ar    1  UNL1        0.0506
      4 C         -17.3999   -3.1704   18.2434 C.ar    1  UNL1        0.0170
      5 C         -17.1968   -4.3987   17.4067 C.ar    1  UNL1        0.0307
      6 C         -15.9465   -5.2129   17.5609 C.ar    1  UNL1        0.1402
      7 F         -15.7433   -6.4412   16.7242 F       1  UNL1       -0.2044
      8 C         -14.6292   -6.5055   19.4079 C.3     1  UNL1        0.0607
      9 C         -13.6490   -5.6131   18.7060 C.3     1  UNL1        0.2223
     10 C         -13.1029   -4.4379   17.9506 C.3     1  UNL1        0.1959
     11 O         -11.6471   -4.3868   17.5931 O.3     1  UNL1       -0.3357
     12 C         -10.7372   -5.5111   17.9911 C.3     1  UNL1        0.2740
     13 C          -9.4870   -6.3253   18.1453 C.3     1  UNL1        0.0512
     14 C         -11.2832   -6.6862   18.7465 C.2     1  UNL1        0.3217
     15 N         -10.3734   -7.8105   19.1445 N.pl3   1  UNL1       -0.2480
     16 N         -12.7391   -6.7373   19.1040 N.2     1  UNL1       -0.0692
     17 H          -9.4178   -7.7770   18.9099 H       1  UNL1        0.2882
     18 H         -10.7317   -8.5818   19.6403 H       1  UNL1        0.2882
     19 C          -9.7569   -4.6186   17.2892 C.3     1  UNL1        0.4305
     20 F          -8.7766   -3.7261   16.5873 F       1  UNL1       -0.1670
     21 F          -9.4306   -3.9518   18.5927 F       1  UNL1       -0.1670
     22 F         -10.0832   -5.2854   15.9858 F       1  UNL1       -0.1670
     23 N         -16.5558   -1.5281   20.0710 N.am    1  UNL1       -0.2779
     24 C         -16.2983   -0.1711   19.4860 C.2     1  UNL1        0.2855
     25 O         -15.8377   -0.0424   18.0642 O.2     1  UNL1       -0.2664
     26 H         -16.8582   -1.6125   21.0042 H       1  UNL1        0.1553
     27 C         -16.5015    1.0572   20.3227 C.ar    1  UNL1        0.2173
     28 N         -17.3021    0.9784   21.5887 N.ar    1  UNL1       -0.2205
     29 C         -17.5052    2.2068   22.4253 C.ar    1  UNL1        0.1125
     30 C         -16.9077    3.5139   21.9960 C.ar    1  UNL1        0.1067
     31 C         -16.1070    3.5927   20.7300 C.ar    1  UNL1        0.1125
     32 N         -15.9039    2.3644   19.8933 N.ar    1  UNL1       -0.2205
     33 C         -17.1108    4.7421   22.8326 C.1     1  UNL1        0.1036
     34 N         -17.3139    5.9705   23.6693 N.1     1  UNL1       -0.1907
@<TRIPOS>BOND
     1     9     8    1
     2     9     1    1
     3     1     2   ar
     4     2     3   ar
     5     3    23    1
     6    23    24   am
     7    24    25    2
     8    24    27    1
     9    27    28   ar
    10    28    29   ar
    11    29    30   ar
    12    30    33    1
    13    33    34    3
    14    30    31   ar
    15    31    32   ar
    16     3     4   ar
    17     4     5   ar
    18     5     6   ar
    19     6     7    1
    20     9    10    1
    21    10    11    1
    22    11    12    1
    23    12    13    1
    24    12    19    1
    25    19    20    1
    26    19    21    1
    27    19    22    1
    28    12    14    1
    29    14    15    1
    30    14    16    2
    31    16     9    1
    32     6     1   ar
    33    32    27   ar
    34    23    26    1
    35    15    17    1
    36    15    18    1
@<TRIPOS>MOLECULE
*****
 34 36 0 0 0
SMALL
GASTEIGER

@<TRIPOS>ATOM
      1 C           6.8829   -3.6337   23.5789 C.ar    1  UNL1        0.0528
      2 C           6.2234   -2.7667   24.6101 C.ar    1  UNL1        0.0167
      3 C           6.2184   -3.1860   26.0502 C.ar    1  UNL1        0.0506
      4 C           6.8728   -4.4723   26.4592 C.ar    1  UNL1        0.0170
      5 C           7.5323   -5.3392   25.4280 C.ar    1  UNL1        0.0307
      6 C           7.5374   -4.9199   23.9878 C.ar    1  UNL1        0.1402
      7 F           8.1970   -5.7869   22.9566 F       1  UNL1       -0.2044
      8 C           8.1769   -2.5969   22.5942 C.3     1  UNL1        0.0607
      9 C           6.8880   -3.2144   22.1386 C.3     1  UNL1        0.2223
     10 C           5.5974   -3.9774   22.1832 C.3     1  UNL1        0.1959
     11 O           4.7595   -4.1067   20.9458 O.3     1  UNL1       -0.3357
     12 C           5.2122   -3.4730   19.6638 C.3     1  UNL1        0.2740
     13 C           5.2174   -3.0537   18.2237 C.3     1  UNL1        0.0512
     14 C           6.5028   -2.7100   19.6192 C.2     1  UNL1        0.3217
     15 N           6.9556   -2.0762   18.3373 N.pl3   1  UNL1       -0.2480
     16 N           7.3408   -2.5806   20.8566 N.2     1  UNL1       -0.0692
     17 H           6.4056   -2.1611   17.5251 H       1  UNL1        0.2882
     18 H           7.8027   -1.5754   18.3080 H       1  UNL1        0.2882
     19 C           3.9233   -4.0904   19.2082 C.3     1  UNL1        0.4305
     20 F           2.6344   -4.7079   18.7526 F       1  UNL1       -0.1670
     21 F           4.6838   -5.2368   18.6103 F       1  UNL1       -0.1670
     22 F           3.1629   -2.9441   19.8061 F       1  UNL1       -0.1670
     23 N           5.5588   -2.3191   27.0815 N.am    1  UNL1       -0.2779
     24 C           4.3585   -1.4978   26.7143 C.2     1  UNL1        0.2855
     25 O           3.8178   -1.5435   25.3159 O.2     1  UNL1       -0.2664
     26 H           5.9137   -2.2891   27.9993 H       1  UNL1        0.1553
     27 C           3.6990   -0.6309   27.7455 C.ar    1  UNL1        0.2173
     28 N           4.3360    0.6638   28.1555 N.ar    1  UNL1       -0.2205
     29 C           3.6764    1.5307   29.1868 C.ar    1  UNL1        0.1125
     30 C           2.3798    1.1030   29.8080 C.ar    1  UNL1        0.1067
     31 C           1.7428   -0.1917   29.3980 C.ar    1  UNL1        0.1125
     32 N           2.4024   -1.0586   28.3668 N.ar    1  UNL1       -0.2205
     33 C           1.7203    1.9699   30.8392 C.1     1  UNL1        0.1036
     34 N           1.0607    2.8368   31.8704 N.1     1  UNL1       -0.1907
@<TRIPOS>BOND
     1     9     8    1
     2     9     1    1
     3     1     2   ar
     4     2     3   ar
     5     3    23    1
     6    23    24   am
     7    24    25    2
     8    24    27    1
     9    27    28   ar
    10    28    29   ar
    11    29    30   ar
    12    30    33    1
    13    33    34    3
    14    30    31   ar
    15    31    32   ar
    16     3     4   ar
    17     4     5   ar
    18     5     6   ar
    19     6     7    1
    20     9    10    1
    21    10    11    1
    22    11    12    1
    23    12    13    1
    24    12    19    1
    25    19    20    1
    26    19    21    1
    27    19    22    1
    28    12    14    1
    29    14    15    1
    30    14    16    2
    31    16     9    1
    32     6     1   ar
    33    32    27   ar
    34    23    26    1
    35    15    17    1
    36    15    18    1
@<TRIPOS>MOLECULE
*****
 34 36 0 0 0
SMALL
GASTEIGER

@<TRIPOS>ATOM
      1 C         -14.3346   -2.4971   18.1957 C.ar    1  UNL1        0.0528
      2 C         -14.6273   -1.5043   19.2814 C.ar    1  UNL1        0.0167
      3 C         -16.0331   -1.3214   19.7713 C.ar    1  UNL1        0.0506
      4 C         -17.1463   -2.1314   19.1756 C.ar    1  UNL1        0.0170
      5 C         -16.8536   -3.1242   18.0900 C.ar    1  UNL1        0.0307
      6 C         -15.4477   -3.3070   17.6000 C.ar    1  UNL1        0.1402
      7 F         -15.1550   -4.2999   16.5144 F       1  UNL1       -0.2044
      8 C         -13.2814   -1.3973   17.0125 C.3     1  UNL1        0.0607
      9 C         -12.9287   -2.6799   17.7057 C.3     1  UNL1        0.2223
     10 C         -13.0642   -3.8990   18.5691 C.3     1  UNL1        0.1959
     11 O         -11.9164   -4.8555   18.7018 O.3     1  UNL1       -0.3357
     12 C         -10.6330   -4.5929   17.9710 C.3     1  UNL1        0.2740
     13 C          -9.2271   -4.7757   17.4810 C.3     1  UNL1        0.0512
     14 C         -10.4974   -3.3738   17.1076 C.2     1  UNL1        0.3217
     15 N          -9.2140   -3.1112   16.3768 N.pl3   1  UNL1       -0.2480
     16 N         -11.6453   -2.4173   16.9750 N.2     1  UNL1       -0.0692
     17 H          -8.4607   -3.7390   16.4639 H       1  UNL1        0.2882
     18 H          -9.1251   -2.3111   15.8102 H       1  UNL1        0.2882
     19 C         -10.2803   -5.8755   18.6643 C.3     1  UNL1        0.4305
     20 F          -9.9275   -7.1581   19.3575 F       1  UNL1       -0.1670
     21 F          -9.4252   -5.1158   19.6347 F       1  UNL1       -0.1670
     22 F         -11.1353   -6.6351   17.6938 F       1  UNL1       -0.1670
     23 N         -16.3259   -0.3286   20.8570 N.am    1  UNL1       -0.2779
     24 C         -16.7964    1.0514   20.5044 C.2     1  UNL1        0.2855
     25 O         -16.9742    1.4385   19.0661 O.2     1  UNL1       -0.2664
     26 H         -16.2093   -0.5827   21.8009 H       1  UNL1        0.1553
     27 C         -17.0892    2.0442   21.5900 C.ar    1  UNL1        0.2173
     28 N         -18.0829    1.7110   22.6630 N.ar    1  UNL1       -0.2205
     29 C         -18.3757    2.7039   23.7486 C.ar    1  UNL1        0.1125
     30 C         -17.6747    4.0299   23.7612 C.ar    1  UNL1        0.1067
     31 C         -16.6810    4.3631   22.6881 C.ar    1  UNL1        0.1125
     32 N         -16.3882    3.3703   21.6025 N.ar    1  UNL1       -0.2205
     33 C         -17.9675    5.0227   24.8468 C.1     1  UNL1        0.1036
     34 N         -18.2602    6.0156   25.9324 N.1     1  UNL1       -0.1907
@<TRIPOS>BOND
     1     9     8    1
     2     9     1    1
     3     1     2   ar
     4     2     3   ar
     5     3    23    1
     6    23    24   am
     7    24    25    2
     8    24    27    1
     9    27    28   ar
    10    28    29   ar
    11    29    30   ar
    12    30    33    1
    13    33    34    3
    14    30    31   ar
    15    31    32   ar
    16     3     4   ar
    17     4     5   ar
    18     5     6   ar
    19     6     7    1
    20     9    10    1
    21    10    11    1
    22    11    12    1
    23    12    13    1
    24    12    19    1
    25    19    20    1
    26    19    21    1
    27    19    22    1
    28    12    14    1
    29    14    15    1
    30    14    16    2
    31    16     9    1
    32     6     1   ar
    33    32    27   ar
    34    23    26    1
    35    15    17    1
    36    15    18    1
@<TRIPOS>MOLECULE
*****
 34 36 0 0 0
SMALL
GASTEIGER

@<TRIPOS>ATOM
      1 C           2.7886    0.8276   21.1697 C.ar    1  UNL1        0.0528
      2 C           1.3816    1.1455   20.7583 C.ar    1  UNL1        0.0167
      3 C           0.4778    1.8933   21.6931 C.ar    1  UNL1        0.0506
      4 C           0.9809    2.3231   23.0393 C.ar    1  UNL1        0.0170
      5 C           2.3879    2.0051   23.4506 C.ar    1  UNL1        0.0307
      6 C           3.2917    1.2574   22.5158 C.ar    1  UNL1        0.1402
      7 F           4.6988    0.9394   22.9271 F       1  UNL1       -0.2044
      8 C           4.0913    1.4891   19.9111 C.3     1  UNL1        0.0607
      9 C           3.6925    0.0798   20.2348 C.3     1  UNL1        0.2223
     10 C           2.9798   -1.0698   20.8832 C.3     1  UNL1        0.1959
     11 O           3.3094   -2.4777   20.4843 O.3     1  UNL1       -0.3357
     12 C           4.3519   -2.7360   19.4371 C.3     1  UNL1        0.2740
     13 C           5.2558   -3.4837   18.5023 C.3     1  UNL1        0.0512
     14 C           5.0646   -1.5864   18.7888 C.2     1  UNL1        0.3217
     15 N           6.1070   -1.8447   17.7415 N.pl3   1  UNL1       -0.2480
     16 N           4.7350   -0.1785   19.1876 N.2     1  UNL1       -0.0692
     17 H           6.3234   -2.7688   17.4797 H       1  UNL1        0.2882
     18 H           6.5748   -1.0902   17.3160 H       1  UNL1        0.2882
     19 C           3.9530   -4.1453   19.7608 C.3     1  UNL1        0.4305
     20 F           3.5542   -5.5547   20.0845 F       1  UNL1       -0.1670
     21 F           5.1033   -4.2510   20.7179 F       1  UNL1       -0.1670
     22 F           2.8029   -4.0396   18.8038 F       1  UNL1       -0.1670
     23 N          -0.9293    2.2113   21.2818 N.am    1  UNL1       -0.2779
     24 C          -1.2037    3.3919   20.3980 C.2     1  UNL1        0.2855
     25 O          -0.0710    4.2544   19.9256 O.2     1  UNL1       -0.2664
     26 H          -1.6727    1.6452   21.5918 H       1  UNL1        0.1553
     27 C          -2.6106    3.7099   19.9867 C.ar    1  UNL1        0.2173
     28 N          -2.8669    4.7279   18.9152 N.ar    1  UNL1       -0.2205
     29 C          -4.2740    5.0459   18.5039 C.ar    1  UNL1        0.1125
     30 C          -5.4247    4.3459   19.1640 C.ar    1  UNL1        0.1067
     31 C          -5.1684    3.3279   20.2355 C.ar    1  UNL1        0.1125
     32 N          -3.7615    3.0099   20.6468 N.ar    1  UNL1       -0.2205
     33 C          -6.8317    4.6639   18.7527 C.1     1  UNL1        0.1036
     34 N          -8.2387    4.9819   18.3414 N.1     1  UNL1       -0.1907
@<TRIPOS>BOND
     1     9     8    1
     2     9     1    1
     3     1     2   ar
     4     2     3   ar
     5     3    23    1
     6    23    24   am
     7    24    25    2
     8    24    27    1
     9    27    28   ar
    10    28    29   ar
    11    29    30   ar
    12    30    33    1
    13    33    34    3
    14    30    31   ar
    15    31    32   ar
    16     3     4   ar
    17     4     5   ar
    18     5     6   ar
    19     6     7    1
    20     9    10    1
    21    10    11    1
    22    11    12    1
    23    12    13    1
    24    12    19    1
    25    19    20    1
    26    19    21    1
    27    19    22    1
    28    12    14    1
    29    14    15    1
    30    14    16    2
    31    16     9    1
    32     6     1   ar
    33    32    27   ar
    34    23    26    1
    35    15    17    1
    36    15    18    1
@<TRIPOS>MOLECULE
*****
 34 36 0 0 0
SMALL
GASTEIGER

@<TRIPOS>ATOM
      1 C           7.9484   -4.5292   27.9400 C.ar    1  UNL1        0.0528
      2 C           7.3447   -3.9674   26.6871 C.ar    1  UNL1        0.0167
      3 C           7.0346   -4.8733   25.5324 C.ar    1  UNL1        0.0506
      4 C           7.3281   -6.3410   25.6308 C.ar    1  UNL1        0.0170
      5 C           7.9318   -6.9028   26.8837 C.ar    1  UNL1        0.0307
      6 C           8.2419   -5.9970   28.0383 C.ar    1  UNL1        0.1402
      7 F           8.8456   -6.5588   29.2913 F       1  UNL1       -0.2044
      8 C           9.4946   -3.4246   28.2683 C.3     1  UNL1        0.0607
      9 C           8.2586   -3.6234   29.0947 C.3     1  UNL1        0.2223
     10 C           6.9149   -4.1368   29.5200 C.3     1  UNL1        0.1959
     11 O           6.3107   -3.6753   30.8130 O.3     1  UNL1       -0.3357
     12 C           7.0501   -2.7004   31.6807 C.3     1  UNL1        0.2740
     13 C           7.3603   -1.7945   32.8353 C.3     1  UNL1        0.0512
     14 C           8.3938   -2.1870   31.2553 C.2     1  UNL1        0.3217
     15 N           9.1332   -1.2120   32.1230 N.pl3   1  UNL1       -0.2480
     16 N           8.9980   -2.6484   29.9623 N.2     1  UNL1       -0.0692
     17 H           8.7367   -0.9091   32.9717 H       1  UNL1        0.2882
     18 H          10.0151   -0.8751   31.8438 H       1  UNL1        0.2882
     19 C           5.8142   -2.8992   32.5071 C.3     1  UNL1        0.4305
     20 F           4.5782   -3.0980   33.3335 F       1  UNL1       -0.1670
     21 F           6.2246   -4.3159   32.7802 F       1  UNL1       -0.1670
     22 F           5.4038   -1.4825   32.2340 F       1  UNL1       -0.1670
     23 N           6.4309   -4.3114   24.2794 N.am    1  UNL1       -0.2779
     24 C           7.3054   -3.9925   23.1032 C.2     1  UNL1        0.2855
     25 O           8.7837   -4.2354   23.1801 O.2     1  UNL1       -0.2664
     26 H           5.4607   -4.1520   24.2290 H       1  UNL1        0.1553
     27 C           6.7018   -3.4307   21.8503 C.ar    1  UNL1        0.2173
     28 N           6.7393   -1.9527   21.5970 N.ar    1  UNL1       -0.2205
     29 C           6.1357   -1.3909   20.3440 C.ar    1  UNL1        0.1125
     30 C           5.4945   -2.3071   19.3443 C.ar    1  UNL1        0.1067
     31 C           5.4569   -3.7851   19.5975 C.ar    1  UNL1        0.1125
     32 N           6.0606   -4.3469   20.8505 N.ar    1  UNL1       -0.2205
     33 C           4.8909   -1.7453   18.0913 C.1     1  UNL1        0.1036
     34 N           4.2872   -1.1835   16.8383 N.1     1  UNL1       -0.1907
@<TRIPOS>BOND
     1     9     8    1
     2     9     1    1
     3     1     2   ar
     4     2     3   ar
     5     3    23    1
     6    23    24   am
     7    24    25    2
     8    24    27    1
     9    27    28   ar
    10    28    29   ar
    11    29    30   ar
    12    30    33    1
    13    33    34    3
    14    30    31   ar
    15    31    32   ar
    16     3     4   ar
    17     4     5   ar
    18     5     6   ar
    19     6     7    1
    20     9    10    1
    21    10    11    1
    22    11    12    1
    23    12    13    1
    24    12    19    1
    25    19    20    1
    26    19    21    1
    27    19    22    1
    28    12    14    1
    29    14    15    1
    30    14    16    2
    31    16     9    1
    32     6     1   ar
    33    32    27   ar
    34    23    26    1
    35    15    17    1
    36    15    18    1
