@<TRIPOS>MOLECULE
*****
 30 32 0 0 0
SMALL
GASTEIGER

@<TRIPOS>ATOM
      1 O          -8.4298  -19.8811   22.3531 O.2     1  UNL1       -0.2732
      2 C          -7.9895  -18.8375   21.3696 C.2     1  UNL1        0.2430
      3 N          -8.2134  -17.3845   21.6672 N.am    1  UNL1       -0.2972
      4 H          -7.9244  -16.6996   21.0218 H       1  UNL1        0.1500
      5 C          -7.3254  -19.2470   20.0885 C.3     1  UNL1        0.1759
      6 N          -5.9210  -18.8071   19.7978 N.am    1  UNL1       -0.2931
      7 C          -4.8185  -19.1326   20.7613 C.2     1  UNL1        0.2462
      8 O          -5.1202  -19.8981   22.0155 O.2     1  UNL1       -0.2701
      9 H          -5.7230  -18.3047   18.9746 H       1  UNL1        0.1502
     10 C          -3.4141  -18.6928   20.4706 C.ar    1  UNL1        0.0535
     11 C          -2.3790  -18.7227   21.5557 C.ar    1  UNL1        0.0068
     12 C          -0.9748  -18.2828   21.2649 C.ar    1  UNL1        0.0298
     13 C          -0.6057  -17.8130   19.8891 C.ar    1  UNL1        0.1401
     14 F           0.7986  -17.3731   19.5983 F       1  UNL1       -0.2042
     15 C          -1.6408  -17.7831   18.8039 C.ar    1  UNL1        0.0298
     16 C          -3.0451  -18.2229   19.0947 C.ar    1  UNL1        0.0068
     17 C          -8.8776  -16.9750   22.9484 C.3     1  UNL1        0.1170
     18 C          -8.0637  -16.3764   24.0571 C.ar    1  UNL1        0.0005
     19 C          -6.5914  -16.1569   23.8724 C.ar    1  UNL1       -0.0023
     20 C          -5.7775  -15.5583   24.9812 C.ar    1  UNL1        0.0006
     21 C          -6.4360  -15.1791   26.2745 C.ar    1  UNL1        0.0114
     22 C          -7.9083  -15.3986   26.4591 C.ar    1  UNL1        0.0574
     23 CL         -8.5667  -15.0195   27.7524 Cl      1  UNL1       -0.0823
     24 C          -8.7222  -15.9972   25.3504 C.ar    1  UNL1        0.0090
     25 C         -10.3556  -17.1641   23.1207 C.ar    1  UNL1       -0.0003
     26 C         -10.8740  -18.2842   23.9731 C.ar    1  UNL1       -0.0024
     27 C         -12.3520  -18.4734   24.1455 C.ar    1  UNL1       -0.0003
     28 C         -13.3116  -17.5424   23.4654 C.ar    1  UNL1       -0.0000
     29 C         -12.7932  -16.4222   22.6131 C.ar    1  UNL1       -0.0003
     30 C         -11.3152  -16.2331   22.4407 C.ar    1  UNL1       -0.0024
@<TRIPOS>BOND
     1     1     2    2
     2     2     5    1
     3     5     6    1
     4     6     7   am
     5     7     8    2
     6     7    10    1
     7    10    11   ar
     8    11    12   ar
     9    12    13   ar
    10    13    14    1
    11    13    15   ar
    12    15    16   ar
    13     2     3   am
    14     3    17    1
    15    17    25    1
    16    25    26   ar
    17    26    27   ar
    18    27    28   ar
    19    28    29   ar
    20    29    30   ar
    21    17    18    1
    22    18    19   ar
    23    19    20   ar
    24    20    21   ar
    25    21    22   ar
    26    22    23    1
    27    22    24   ar
    28    16    10   ar
    29    30    25   ar
    30    24    18   ar
    31     6     9    1
    32     3     4    1
@<TRIPOS>MOLECULE
*****
 30 32 0 0 0
SMALL
GASTEIGER

@<TRIPOS>ATOM
      1 O          -8.8250  -20.3136   23.5558 O.2     1  UNL1       -0.2732
      2 C          -7.7834  -19.6969   22.6699 C.2     1  UNL1        0.2430
      3 N          -7.6835  -18.2046   22.5562 N.am    1  UNL1       -0.2972
      4 H          -6.9999  -17.7999   21.9748 H       1  UNL1        0.1500
      5 C          -6.8416  -20.5726   21.8978 C.3     1  UNL1        0.1759
      6 N          -5.4172  -20.1476   21.6962 N.am    1  UNL1       -0.2931
      7 C          -5.0802  -19.1254   20.6515 C.2     1  UNL1        0.2462
      8 O          -6.1675  -18.5281   19.8083 O.2     1  UNL1       -0.2701
      9 H          -4.7035  -20.5396   22.2497 H       1  UNL1        0.1502
     10 C          -3.6557  -18.7005   20.4500 C.ar    1  UNL1        0.0535
     11 C          -2.7322  -18.5906   21.6267 C.ar    1  UNL1        0.0068
     12 C          -1.3078  -18.1657   21.4251 C.ar    1  UNL1        0.0298
     13 C          -0.8071  -17.8506   20.0467 C.ar    1  UNL1        0.1401
     14 F           0.6173  -17.4256   19.8452 F       1  UNL1       -0.2042
     15 C          -1.7307  -17.9604   18.8699 C.ar    1  UNL1        0.0298
     16 C          -3.1550  -18.3854   19.0716 C.ar    1  UNL1        0.0068
     17 C          -8.6254  -17.3289   23.3283 C.3     1  UNL1        0.1170
     18 C         -10.0163  -17.0915   22.8194 C.ar    1  UNL1        0.0005
     19 C         -10.2319  -16.2790   21.5770 C.ar    1  UNL1       -0.0023
     20 C         -11.6228  -16.0416   21.0681 C.ar    1  UNL1        0.0006
     21 C         -12.7981  -16.6167   21.8017 C.ar    1  UNL1        0.0114
     22 C         -12.5825  -17.4291   23.0440 C.ar    1  UNL1        0.0574
     23 CL        -13.7578  -18.0041   23.7774 Cl      1  UNL1       -0.0823
     24 C         -11.1916  -17.6665   23.5529 C.ar    1  UNL1        0.0090
     25 C          -8.1763  -16.6906   24.6093 C.ar    1  UNL1       -0.0003
     26 C          -7.0411  -15.7102   24.6009 C.ar    1  UNL1       -0.0024
     27 C          -6.5920  -15.0718   25.8819 C.ar    1  UNL1       -0.0003
     28 C          -7.2780  -15.4140   27.1712 C.ar    1  UNL1       -0.0000
     29 C          -8.4132  -16.3946   27.1795 C.ar    1  UNL1       -0.0003
     30 C          -8.8623  -17.0328   25.8986 C.ar    1  UNL1       -0.0024
@<TRIPOS>BOND
     1     1     2    2
     2     2     5    1
     3     5     6    1
     4     6     7   am
     5     7     8    2
     6     7    10    1
     7    10    11   ar
     8    11    12   ar
     9    12    13   ar
    10    13    14    1
    11    13    15   ar
    12    15    16   ar
    13     2     3   am
    14     3    17    1
    15    17    25    1
    16    25    26   ar
    17    26    27   ar
    18    27    28   ar
    19    28    29   ar
    20    29    30   ar
    21    17    18    1
    22    18    19   ar
    23    19    20   ar
    24    20    21   ar
    25    21    22   ar
    26    22    23    1
    27    22    24   ar
    28    16    10   ar
    29    30    25   ar
    30    24    18   ar
    31     6     9    1
    32     3     4    1
@<TRIPOS>MOLECULE
*****
 30 32 0 0 0
SMALL
GASTEIGER

@<TRIPOS>ATOM
      1 O          -8.8436  -20.5361   23.6639 O.2     1  UNL1       -0.2732
      2 C          -7.9663  -19.8027   22.6931 C.2     1  UNL1        0.2430
      3 N          -7.9735  -18.3031   22.6607 N.am    1  UNL1       -0.2972
      4 H          -7.3977  -17.8217   22.0236 H       1  UNL1        0.1500
      5 C          -7.0818  -20.5688   21.7547 C.3     1  UNL1        0.1759
      6 N          -5.6369  -20.1925   21.6105 N.am    1  UNL1       -0.2931
      7 C          -5.2339  -19.1217   20.6405 C.2     1  UNL1        0.2462
      8 O          -6.2758  -18.4271   19.8147 O.2     1  UNL1       -0.2701
      9 H          -4.9530  -20.6484   22.1525 H       1  UNL1        0.1502
     10 C          -3.7890  -18.7454   20.4964 C.ar    1  UNL1        0.0535
     11 C          -3.2497  -18.3400   19.1567 C.ar    1  UNL1        0.0068
     12 C          -1.8048  -17.9637   19.0126 C.ar    1  UNL1        0.0298
     13 C          -0.8994  -17.9928   20.2081 C.ar    1  UNL1        0.1401
     14 F           0.5456  -17.6166   20.0639 F       1  UNL1       -0.2042
     15 C          -1.4387  -18.3982   21.5477 C.ar    1  UNL1        0.0298
     16 C          -2.8835  -18.7745   21.6919 C.ar    1  UNL1        0.0068
     17 C          -8.8580  -17.5368   23.5991 C.3     1  UNL1        0.1170
     18 C          -8.2717  -16.8775   24.8122 C.ar    1  UNL1        0.0005
     19 C          -8.9658  -16.9916   26.1371 C.ar    1  UNL1       -0.0023
     20 C          -8.3795  -16.3323   27.3502 C.ar    1  UNL1        0.0006
     21 C          -7.0991  -15.5588   27.2383 C.ar    1  UNL1        0.0114
     22 C          -6.4052  -15.4446   25.9135 C.ar    1  UNL1        0.0574
     23 CL         -5.1249  -14.6711   25.8017 Cl      1  UNL1       -0.0823
     24 C          -6.9914  -16.1040   24.7004 C.ar    1  UNL1        0.0090
     25 C         -10.3287  -17.4299   23.3245 C.ar    1  UNL1       -0.0003
     26 C         -10.8301  -16.4691   22.2875 C.ar    1  UNL1       -0.0024
     27 C         -12.3009  -16.3622   22.0128 C.ar    1  UNL1       -0.0003
     28 C         -13.2703  -17.2162   22.7751 C.ar    1  UNL1       -0.0000
     29 C         -12.7688  -18.1771   23.8121 C.ar    1  UNL1       -0.0003
     30 C         -11.2981  -18.2839   24.0868 C.ar    1  UNL1       -0.0024
@<TRIPOS>BOND
     1     1     2    2
     2     2     5    1
     3     5     6    1
     4     6     7   am
     5     7     8    2
     6     7    10    1
     7    10    11   ar
     8    11    12   ar
     9    12    13   ar
    10    13    14    1
    11    13    15   ar
    12    15    16   ar
    13     2     3   am
    14     3    17    1
    15    17    25    1
    16    25    26   ar
    17    26    27   ar
    18    27    28   ar
    19    28    29   ar
    20    29    30   ar
    21    17    18    1
    22    18    19   ar
    23    19    20   ar
    24    20    21   ar
    25    21    22   ar
    26    22    23    1
    27    22    24   ar
    28    16    10   ar
    29    30    25   ar
    30    24    18   ar
    31     6     9    1
    32     3     4    1
@<TRIPOS>MOLECULE
*****
 30 32 0 0 0
SMALL
GASTEIGER

@<TRIPOS>ATOM
      1 O          -8.3173  -19.9195   21.9738 O.2     1  UNL1       -0.2732
      2 C          -7.6350  -18.8405   21.1862 C.2     1  UNL1        0.2430
      3 N          -7.6613  -17.4232   21.6766 N.am    1  UNL1       -0.2972
      4 H          -7.2136  -16.7151   21.1596 H       1  UNL1        0.1500
      5 C          -6.9265  -19.1788   19.9081 C.3     1  UNL1        0.1759
      6 N          -5.5169  -18.7159   19.6868 N.am    1  UNL1       -0.2931
      7 C          -4.4817  -18.9289   20.7512 C.2     1  UNL1        0.2462
      8 O          -4.8560  -19.6046   22.0369 O.2     1  UNL1       -0.2701
      9 H          -5.2713  -18.2724   18.8429 H       1  UNL1        0.1502
     10 C          -3.0722  -18.4660   20.5298 C.ar    1  UNL1        0.0535
     11 C          -2.5484  -18.2977   19.1344 C.ar    1  UNL1        0.0068
     12 C          -1.1389  -17.8349   18.9131 C.ar    1  UNL1        0.0298
     13 C          -0.2532  -17.5403   20.0872 C.ar    1  UNL1        0.1401
     14 F           1.1564  -17.0774   19.8659 F       1  UNL1       -0.2042
     15 C          -0.7769  -17.7085   21.4827 C.ar    1  UNL1        0.0298
     16 C          -2.1864  -18.1714   21.7040 C.ar    1  UNL1        0.0068
     17 C          -8.3699  -17.0849   22.9547 C.3     1  UNL1        0.1170
     18 C          -9.8312  -17.3882   23.1052 C.ar    1  UNL1        0.0005
     19 C         -10.3039  -18.2626   24.2286 C.ar    1  UNL1       -0.0023
     20 C         -11.7652  -18.5660   24.3790 C.ar    1  UNL1        0.0006
     21 C         -12.7537  -17.9950   23.4060 C.ar    1  UNL1        0.0114
     22 C         -12.2810  -17.1206   22.2826 C.ar    1  UNL1        0.0574
     23 CL        -13.2696  -16.5497   21.3096 Cl      1  UNL1       -0.0823
     24 C         -10.8197  -16.8173   22.1322 C.ar    1  UNL1        0.0090
     25 C          -7.6172  -16.4432   24.0824 C.ar    1  UNL1       -0.0003
     26 C          -8.3198  -16.1278   25.3695 C.ar    1  UNL1       -0.0024
     27 C          -7.5671  -15.4861   26.4972 C.ar    1  UNL1       -0.0003
     28 C          -6.1117  -15.1598   26.3377 C.ar    1  UNL1       -0.0000
     29 C          -5.4091  -15.4752   25.0505 C.ar    1  UNL1       -0.0003
     30 C          -6.1618  -16.1169   23.9228 C.ar    1  UNL1       -0.0024
@<TRIPOS>BOND
     1     1     2    2
     2     2     5    1
     3     5     6    1
     4     6     7   am
     5     7     8    2
     6     7    10    1
     7    10    11   ar
     8    11    12   ar
     9    12    13   ar
    10    13    14    1
    11    13    15   ar
    12    15    16   ar
    13     2     3   am
    14     3    17    1
    15    17    25    1
    16    25    26   ar
    17    26    27   ar
    18    27    28   ar
    19    28    29   ar
    20    29    30   ar
    21    17    18    1
    22    18    19   ar
    23    19    20   ar
    24    20    21   ar
    25    21    22   ar
    26    22    23    1
    27    22    24   ar
    28    16    10   ar
    29    30    25   ar
    30    24    18   ar
    31     6     9    1
    32     3     4    1
