@<TRIPOS>MOLECULE
*****
 28 30 0 0 0
SMALL
GASTEIGER

@<TRIPOS>ATOM
      1 C         -12.1917   -6.7734   18.2021 C.3     1  UNL1        0.0614
      2 C         -10.7093   -6.9421   18.3569 C.3     1  UNL1        0.0082
      3 C          -9.8608   -5.7761   18.7698 C.3     1  UNL1        0.0051
      4 C         -10.4947   -4.4414   19.0279 C.3     1  UNL1        0.0261
      5 C         -11.9771   -4.2727   18.8731 C.ar    1  UNL1       -0.0247
      6 C         -12.6110   -2.9379   19.1312 C.ar    1  UNL1        0.0142
      7 C         -14.0934   -2.7692   18.9764 C.ar    1  UNL1        0.1100
      8 C         -14.9419   -3.9352   18.5635 C.ar    1  UNL1        0.0184
      9 C         -14.3080   -5.2699   18.3054 C.ar    1  UNL1       -0.0031
     10 C         -12.8256   -5.4387   18.4602 C.ar    1  UNL1       -0.0230
     11 S         -14.7274   -1.4344   19.2345 S.O2    1  UNL1        0.0274
     12 O         -15.9232   -2.1174   19.8290 O.2     1  UNL1       -0.1642
     13 O         -13.5315   -0.7514   18.6401 O.2     1  UNL1       -0.1642
     14 C         -15.3613   -0.0998   19.4926 C.ar    1  UNL1        0.1103
     15 C         -14.7983    1.1343   18.8525 C.ar    1  UNL1        0.0187
     16 C         -15.4322    2.4691   19.1106 C.ar    1  UNL1        0.0013
     17 C         -16.6293    2.5697   20.0089 C.ar    1  UNL1        0.0001
     18 C         -17.1924    1.3355   20.6491 C.ar    1  UNL1        0.0013
     19 C         -16.5584    0.0008   20.3910 C.ar    1  UNL1        0.0187
     20 C         -13.0402   -7.9394   17.7891 C.3     1  UNL1        0.1781
     21 N         -13.7494   -8.7561   18.8283 N.pl3   1  UNL1       -0.2622
     22 H         -13.2322   -9.2337   19.5165 H       1  UNL1        0.2588
     23 N         -15.9828   -9.2331   20.0669 N.pl3   1  UNL1       -0.1298
     24 C         -15.2467   -8.8452   18.8189 C.cat   1  UNL1        0.3769
     25 N         -16.0080   -8.5465   17.5613 N.pl3   1  UNL1       -0.2892
     26 H         -16.9656   -9.2916   20.0607 H       1  UNL1        0.3062
     27 H         -16.9907   -8.6050   17.5551 H       1  UNL1        0.2546
     28 H         -15.5248   -8.2920   16.7422 H       1  UNL1        0.2546
@<TRIPOS>BOND
     1    23    24    2
     2    24    25    1
     3    24    21    1
     4    21    20    1
     5    20     1    1
     6     1     2    1
     7     2     3    1
     8     3     4    1
     9     4     5    1
    10     5     6   ar
    11     6     7   ar
    12     7    11    1
    13    11    12    2
    14    11    13    2
    15    11    14    1
    16    14    15   ar
    17    15    16   ar
    18    16    17   ar
    19    17    18   ar
    20    18    19   ar
    21     7     8   ar
    22     8     9   ar
    23     9    10   ar
    24    10     1    1
    25    10     5   ar
    26    19    14   ar
    27    23    26    1
    28    25    27    1
    29    25    28    1
    30    21    22    1
@<TRIPOS>MOLECULE
*****
 28 30 0 0 0
SMALL
GASTEIGER

@<TRIPOS>ATOM
      1 C         -10.1993   -5.1042   18.1298 C.3     1  UNL1        0.0614
      2 C          -9.1340   -4.8743   17.0992 C.3     1  UNL1        0.0082
      3 C          -9.1182   -3.6000   16.3081 C.3     1  UNL1        0.0051
      4 C         -10.1679   -2.5556   16.5475 C.3     1  UNL1        0.0261
      5 C         -11.2332   -2.7854   17.5781 C.ar    1  UNL1       -0.0247
      6 C         -12.2829   -1.7410   17.8176 C.ar    1  UNL1        0.0142
      7 C         -13.3483   -1.9708   18.8482 C.ar    1  UNL1        0.1100
      8 C         -13.3640   -3.2451   19.6393 C.ar    1  UNL1        0.0184
      9 C         -12.3144   -4.2896   19.3999 C.ar    1  UNL1       -0.0031
     10 C         -11.2489   -4.0597   18.3693 C.ar    1  UNL1       -0.0230
     11 S         -14.3980   -0.9264   19.0877 S.O2    1  UNL1        0.0274
     12 O         -15.1103   -1.8570   20.0238 O.2     1  UNL1       -0.1642
     13 O         -13.6857    0.0043   18.1515 O.2     1  UNL1       -0.1642
     14 C         -15.4477    0.1180   19.3272 C.ar    1  UNL1        0.1103
     15 C         -16.4872   -0.0929   20.3877 C.ar    1  UNL1        0.0187
     16 C         -17.5369    0.9515   20.6273 C.ar    1  UNL1        0.0013
     17 C         -17.5471    2.2068   19.8062 C.ar    1  UNL1        0.0001
     18 C         -16.5075    2.4177   18.7456 C.ar    1  UNL1        0.0013
     19 C         -15.4578    1.3733   18.5061 C.ar    1  UNL1        0.0187
     20 C         -10.2150   -6.3785   18.9210 C.3     1  UNL1        0.1781
     21 N         -10.7552   -7.6359   18.3069 N.pl3   1  UNL1       -0.2622
     22 H         -10.1751   -8.4256   18.2112 H       1  UNL1        0.2588
     23 N         -12.5025   -7.4566   16.3926 N.pl3   1  UNL1       -0.1298
     24 C         -12.1792   -7.6902   17.8385 C.cat   1  UNL1        0.3769
     25 N         -13.2798   -7.9781   18.8162 N.pl3   1  UNL1       -0.2892
     26 H         -13.4371   -7.4922   16.0852 H       1  UNL1        0.3062
     27 H         -14.2144   -8.0137   18.5089 H       1  UNL1        0.2546
     28 H         -13.0675   -8.1314   19.7653 H       1  UNL1        0.2546
@<TRIPOS>BOND
     1    23    24    2
     2    24    25    1
     3    24    21    1
     4    21    20    1
     5    20     1    1
     6     1     2    1
     7     2     3    1
     8     3     4    1
     9     4     5    1
    10     5     6   ar
    11     6     7   ar
    12     7    11    1
    13    11    12    2
    14    11    13    2
    15    11    14    1
    16    14    15   ar
    17    15    16   ar
    18    16    17   ar
    19    17    18   ar
    20    18    19   ar
    21     7     8   ar
    22     8     9   ar
    23     9    10   ar
    24    10     1    1
    25    10     5   ar
    26    19    14   ar
    27    23    26    1
    28    25    27    1
    29    25    28    1
    30    21    22    1
@<TRIPOS>MOLECULE
*****
 28 30 0 0 0
SMALL
GASTEIGER

@<TRIPOS>ATOM
      1 C           7.7958   -6.0904   27.6788 C.3     1  UNL1        0.0614
      2 C           8.3821   -7.4546   27.8907 C.3     1  UNL1        0.0082
      3 C           8.7773   -8.2927   26.7111 C.3     1  UNL1        0.0051
      4 C           8.5861   -7.7665   25.3195 C.3     1  UNL1        0.0261
      5 C           7.9997   -6.4023   25.1076 C.ar    1  UNL1       -0.0247
      6 C           7.8085   -5.8760   23.7159 C.ar    1  UNL1        0.0142
      7 C           7.2221   -4.5118   23.5040 C.ar    1  UNL1        0.1100
      8 C           6.8269   -3.6737   24.6836 C.ar    1  UNL1        0.0184
      9 C           7.0182   -4.1999   26.0752 C.ar    1  UNL1       -0.0031
     10 C           7.6045   -5.5642   26.2872 C.ar    1  UNL1       -0.0230
     11 S           7.0308   -3.9855   22.1123 S.O2    1  UNL1        0.0274
     12 O           6.2126   -2.8510   22.6539 O.2     1  UNL1       -0.1642
     13 O           7.8491   -5.1200   21.5708 O.2     1  UNL1       -0.1642
     14 C           6.8396   -3.4593   20.7208 C.ar    1  UNL1        0.1103
     15 C           7.9253   -2.6573   20.0665 C.ar    1  UNL1        0.0187
     16 C           7.7340   -2.1310   18.6749 C.ar    1  UNL1        0.0013
     17 C           6.4571   -2.4067   17.9376 C.ar    1  UNL1        0.0001
     18 C           5.3714   -3.2087   18.5921 C.ar    1  UNL1        0.0013
     19 C           5.5627   -3.7349   19.9836 C.ar    1  UNL1        0.0187
     20 C           7.4006   -5.2523   28.8584 C.3     1  UNL1        0.1781
     21 N           6.6574   -5.8729   30.0040 N.pl3   1  UNL1       -0.2622
     22 H           5.8006   -6.3309   29.8445 H       1  UNL1        0.2588
     23 N           8.6095   -6.2878   31.6674 N.pl3   1  UNL1       -0.1298
     24 C           7.2195   -5.7956   31.3925 C.cat   1  UNL1        0.3769
     25 N           6.3915   -5.2262   32.5062 N.pl3   1  UNL1       -0.2892
     26 H           8.9784   -6.2371   32.5787 H       1  UNL1        0.3062
     27 H           6.7604   -5.1755   33.4176 H       1  UNL1        0.2546
     28 H           5.4792   -4.9031   32.3258 H       1  UNL1        0.2546
@<TRIPOS>BOND
     1    23    24    2
     2    24    25    1
     3    24    21    1
     4    21    20    1
     5    20     1    1
     6     1     2    1
     7     2     3    1
     8     3     4    1
     9     4     5    1
    10     5     6   ar
    11     6     7   ar
    12     7    11    1
    13    11    12    2
    14    11    13    2
    15    11    14    1
    16    14    15   ar
    17    15    16   ar
    18    16    17   ar
    19    17    18   ar
    20    18    19   ar
    21     7     8   ar
    22     8     9   ar
    23     9    10   ar
    24    10     1    1
    25    10     5   ar
    26    19    14   ar
    27    23    26    1
    28    25    27    1
    29    25    28    1
    30    21    22    1
@<TRIPOS>MOLECULE
*****
 28 30 0 0 0
SMALL
GASTEIGER

@<TRIPOS>ATOM
      1 C         -10.5308   -4.5798   17.4282 C.3     1  UNL1        0.0614
      2 C          -9.2302   -5.2265   17.8025 C.3     1  UNL1        0.0082
      3 C          -9.2241   -6.5814   18.4462 C.3     1  UNL1        0.0051
      4 C         -10.5187   -7.2895   18.7156 C.3     1  UNL1        0.0261
      5 C         -11.8193   -6.6429   18.3412 C.ar    1  UNL1       -0.0247
      6 C         -13.1139   -7.3510   18.6105 C.ar    1  UNL1        0.0142
      7 C         -14.4145   -6.7044   18.2362 C.ar    1  UNL1        0.1100
      8 C         -14.4206   -5.3495   17.5925 C.ar    1  UNL1        0.0184
      9 C         -13.1260   -4.6413   17.3232 C.ar    1  UNL1       -0.0031
     10 C         -11.8253   -5.2880   17.6975 C.ar    1  UNL1       -0.0230
     11 S         -15.7092   -7.4125   18.5055 S.O2    1  UNL1        0.0274
     12 O         -15.0496   -8.7283   18.2161 O.2     1  UNL1       -0.1642
     13 O         -16.3687   -6.0968   18.7950 O.2     1  UNL1       -0.1642
     14 C         -17.0037   -8.1207   18.7748 C.ar    1  UNL1        0.1103
     15 C         -17.4663   -9.2128   17.8565 C.ar    1  UNL1        0.0187
     16 C         -18.7609   -9.9210   18.1258 C.ar    1  UNL1        0.0013
     17 C         -19.5929   -9.5371   19.3134 C.ar    1  UNL1        0.0001
     18 C         -19.1302   -8.4450   20.2318 C.ar    1  UNL1        0.0013
     19 C         -17.8357   -7.7368   19.9625 C.ar    1  UNL1        0.0187
     20 C         -10.5368   -3.2250   16.7845 C.3     1  UNL1        0.1781
     21 N         -10.3541   -1.9952   17.6236 N.pl3   1  UNL1       -0.2622
     22 H          -9.5046   -1.4986   17.5908 H       1  UNL1        0.2588
     23 N         -11.8389   -2.3118   19.7319 N.pl3   1  UNL1       -0.1298
     24 C         -11.4656   -1.5218   18.5127 C.cat   1  UNL1        0.3769
     25 N         -12.2038   -0.2584   18.1825 N.pl3   1  UNL1       -0.2892
     26 H         -12.5684   -2.0012   20.3154 H       1  UNL1        0.3062
     27 H         -12.9333    0.0522   18.7660 H       1  UNL1        0.2546
     28 H         -11.9588    0.2601   17.3823 H       1  UNL1        0.2546
@<TRIPOS>BOND
     1    23    24    2
     2    24    25    1
     3    24    21    1
     4    21    20    1
     5    20     1    1
     6     1     2    1
     7     2     3    1
     8     3     4    1
     9     4     5    1
    10     5     6   ar
    11     6     7   ar
    12     7    11    1
    13    11    12    2
    14    11    13    2
    15    11    14    1
    16    14    15   ar
    17    15    16   ar
    18    16    17   ar
    19    17    18   ar
    20    18    19   ar
    21     7     8   ar
    22     8     9   ar
    23     9    10   ar
    24    10     1    1
    25    10     5   ar
    26    19    14   ar
    27    23    26    1
    28    25    27    1
    29    25    28    1
    30    21    22    1
@<TRIPOS>MOLECULE
*****
 28 30 0 0 0
SMALL
GASTEIGER

@<TRIPOS>ATOM
      1 C           4.2805    1.2915   36.3371 C.3     1  UNL1        0.0614
      2 C           5.3465    0.2472   36.4890 C.3     1  UNL1        0.0082
      3 C           5.6759   -0.6606   35.3412 C.3     1  UNL1        0.0051
      4 C           4.9394   -0.5242   34.0417 C.3     1  UNL1        0.0261
      5 C           3.8734    0.5201   33.8899 C.ar    1  UNL1       -0.0247
      6 C           3.1368    0.6566   32.5903 C.ar    1  UNL1        0.0142
      7 C           2.0709    1.7009   32.4384 C.ar    1  UNL1        0.1100
      8 C           1.7414    2.6087   33.5862 C.ar    1  UNL1        0.0184
      9 C           2.4779    2.4723   34.8857 C.ar    1  UNL1       -0.0031
     10 C           3.5440    1.4280   35.0376 C.ar    1  UNL1       -0.0230
     11 S           1.3343    1.8374   31.1388 S.O2    1  UNL1        0.0274
     12 O           1.6580    0.4111   30.8056 O.2     1  UNL1       -0.1642
     13 O           1.0105    3.2636   31.4720 O.2     1  UNL1       -0.1642
     14 C           0.5977    1.9738   29.8393 C.ar    1  UNL1        0.1103
     15 C           0.6766    3.2551   29.0635 C.ar    1  UNL1        0.0187
     16 C          -0.0599    3.3916   27.7639 C.ar    1  UNL1        0.0013
     17 C          -0.8754    2.2467   27.2402 C.ar    1  UNL1        0.0001
     18 C          -0.9543    0.9653   28.0161 C.ar    1  UNL1        0.0013
     19 C          -0.2178    0.8289   29.3156 C.ar    1  UNL1        0.0187
     20 C           3.9511    2.1994   37.4848 C.3     1  UNL1        0.1781
     21 N           3.4186    1.6270   38.7650 N.pl3   1  UNL1       -0.2622
     22 H           4.0189    1.5009   39.5351 H       1  UNL1        0.2588
     23 N           0.9064    2.2427   38.5207 N.pl3   1  UNL1       -0.1298
     24 C           1.9716    1.2467   38.8719 C.cat   1  UNL1        0.3769
     25 N           1.5897   -0.1297   39.3300 N.pl3   1  UNL1       -0.2892
     26 H          -0.0433    1.9930   38.5908 H       1  UNL1        0.3062
     27 H           0.6400   -0.3793   39.4002 H       1  UNL1        0.2546
     28 H           2.2888   -0.7834   39.5605 H       1  UNL1        0.2546
@<TRIPOS>BOND
     1    23    24    2
     2    24    25    1
     3    24    21    1
     4    21    20    1
     5    20     1    1
     6     1     2    1
     7     2     3    1
     8     3     4    1
     9     4     5    1
    10     5     6   ar
    11     6     7   ar
    12     7    11    1
    13    11    12    2
    14    11    13    2
    15    11    14    1
    16    14    15   ar
    17    15    16   ar
    18    16    17   ar
    19    17    18   ar
    20    18    19   ar
    21     7     8   ar
    22     8     9   ar
    23     9    10   ar
    24    10     1    1
    25    10     5   ar
    26    19    14   ar
    27    23    26    1
    28    25    27    1
    29    25    28    1
    30    21    22    1
@<TRIPOS>MOLECULE
*****
 28 30 0 0 0
SMALL
GASTEIGER

@<TRIPOS>ATOM
      1 C           3.9086    1.3115   35.8841 C.3     1  UNL1        0.0614
      2 C           4.9480    0.3041   36.2772 C.3     1  UNL1        0.0082
      3 C           5.4317   -0.7038   35.2771 C.3     1  UNL1        0.0051
      4 C           4.8759   -0.7043   33.8839 C.3     1  UNL1        0.0261
      5 C           3.8364    0.3032   33.4908 C.ar    1  UNL1       -0.0247
      6 C           3.2806    0.3027   32.0976 C.ar    1  UNL1        0.0142
      7 C           2.2412    1.3102   31.7045 C.ar    1  UNL1        0.1100
      8 C           1.7575    2.3181   32.7046 C.ar    1  UNL1        0.0184
      9 C           2.3133    2.3186   34.0978 C.ar    1  UNL1       -0.0031
     10 C           3.3528    1.3111   34.4909 C.ar    1  UNL1       -0.0230
     11 S           1.6853    1.3098   30.3112 S.O2    1  UNL1        0.0274
     12 O           1.7597    2.8076   30.2811 O.2     1  UNL1       -0.1642
     13 O           1.6109   -0.1881   30.3413 O.2     1  UNL1       -0.1642
     14 C           1.1295    1.3094   28.9180 C.ar    1  UNL1        0.1103
     15 C          -0.3425    1.4956   28.6978 C.ar    1  UNL1        0.0187
     16 C          -0.8984    1.4952   27.3046 C.ar    1  UNL1        0.0013
     17 C           0.0177    1.3086   26.1316 C.ar    1  UNL1        0.0001
     18 C           1.4898    1.1224   26.3519 C.ar    1  UNL1        0.0013
     19 C           2.0456    1.1228   27.7451 C.ar    1  UNL1        0.0187
     20 C           3.4250    2.3195   36.8842 C.3     1  UNL1        0.1781
     21 N           2.0818    2.1503   37.5301 N.pl3   1  UNL1       -0.2622
     22 H           1.3125    2.6753   37.2110 H       1  UNL1        0.2588
     23 N           3.1107    0.6865   39.4139 N.pl3   1  UNL1       -0.1298
     24 C           1.9106    1.1812   38.6621 C.cat   1  UNL1        0.3769
     25 N           0.5393    0.7068   39.0424 N.pl3   1  UNL1       -0.2892
     26 H           2.9983    0.0505   40.1569 H       1  UNL1        0.3062
     27 H           0.4269    0.0708   39.7854 H       1  UNL1        0.2546
     28 H          -0.2483    1.0315   38.5490 H       1  UNL1        0.2546
@<TRIPOS>BOND
     1    23    24    2
     2    24    25    1
     3    24    21    1
     4    21    20    1
     5    20     1    1
     6     1     2    1
     7     2     3    1
     8     3     4    1
     9     4     5    1
    10     5     6   ar
    11     6     7   ar
    12     7    11    1
    13    11    12    2
    14    11    13    2
    15    11    14    1
    16    14    15   ar
    17    15    16   ar
    18    16    17   ar
    19    17    18   ar
    20    18    19   ar
    21     7     8   ar
    22     8     9   ar
    23     9    10   ar
    24    10     1    1
    25    10     5   ar
    26    19    14   ar
    27    23    26    1
    28    25    27    1
    29    25    28    1
    30    21    22    1
@<TRIPOS>MOLECULE
*****
 28 30 0 0 0
SMALL
GASTEIGER

@<TRIPOS>ATOM
      1 C           7.6195   -4.7716   28.2900 C.3     1  UNL1        0.0614
      2 C           8.3308   -6.0673   28.5447 C.3     1  UNL1        0.0082
      3 C           8.5571   -7.0326   27.4190 C.3     1  UNL1        0.0051
      4 C           8.0721   -6.7020   26.0387 C.3     1  UNL1        0.0261
      5 C           7.3608   -5.4062   25.7840 C.ar    1  UNL1       -0.0247
      6 C           6.8757   -5.0756   24.4036 C.ar    1  UNL1        0.0142
      7 C           6.1643   -3.7798   24.1489 C.ar    1  UNL1        0.1100
      8 C           5.9380   -2.8146   25.2746 C.ar    1  UNL1        0.0184
      9 C           6.4231   -3.1452   26.6549 C.ar    1  UNL1       -0.0031
     10 C           7.1344   -4.4410   26.9097 C.ar    1  UNL1       -0.0230
     11 S           5.6793   -3.4492   22.7685 S.O2    1  UNL1        0.0274
     12 O           4.7696   -2.4019   23.3390 O.2     1  UNL1       -0.1642
     13 O           6.5890   -4.4965   22.1979 O.2     1  UNL1       -0.1642
     14 C           5.1942   -3.1186   21.3881 C.ar    1  UNL1        0.1103
     15 C           3.9433   -2.3111   21.2062 C.ar    1  UNL1        0.0187
     16 C           3.4582   -1.9804   19.8258 C.ar    1  UNL1        0.0013
     17 C           4.2240   -2.4573   18.6274 C.ar    1  UNL1        0.0001
     18 C           5.4749   -3.2648   18.8094 C.ar    1  UNL1        0.0013
     19 C           5.9600   -3.5955   20.1898 C.ar    1  UNL1        0.0187
     20 C           7.3931   -3.8063   29.4157 C.3     1  UNL1        0.1781
     21 N           7.8091   -4.1697   30.8103 N.pl3   1  UNL1       -0.2622
     22 H           8.7559   -4.1090   31.0732 H       1  UNL1        0.2588
     23 N           6.6378   -6.0855   32.1171 N.pl3   1  UNL1       -0.1298
     24 C           6.7824   -4.6256   31.8044 C.cat   1  UNL1        0.3769
     25 N           5.9005   -3.6216   32.4857 N.pl3   1  UNL1       -0.2892
     26 H           5.9639   -6.3847   32.7695 H       1  UNL1        0.3062
     27 H           5.2267   -3.9208   33.1382 H       1  UNL1        0.2546
     28 H           5.9954   -2.6634   32.2804 H       1  UNL1        0.2546
@<TRIPOS>BOND
     1    23    24    2
     2    24    25    1
     3    24    21    1
     4    21    20    1
     5    20     1    1
     6     1     2    1
     7     2     3    1
     8     3     4    1
     9     4     5    1
    10     5     6   ar
    11     6     7   ar
    12     7    11    1
    13    11    12    2
    14    11    13    2
    15    11    14    1
    16    14    15   ar
    17    15    16   ar
    18    16    17   ar
    19    17    18   ar
    20    18    19   ar
    21     7     8   ar
    22     8     9   ar
    23     9    10   ar
    24    10     1    1
    25    10     5   ar
    26    19    14   ar
    27    23    26    1
    28    25    27    1
    29    25    28    1
    30    21    22    1
@<TRIPOS>MOLECULE
*****
 28 30 0 0 0
SMALL
GASTEIGER

@<TRIPOS>ATOM
      1 C           7.9014   -4.9521   23.8755 C.3     1  UNL1        0.0614
      2 C           9.0144   -5.6241   23.1274 C.3     1  UNL1        0.0082
      3 C           9.1264   -5.4577   21.6408 C.3     1  UNL1        0.0051
      4 C           8.1255   -4.6192   20.9025 C.3     1  UNL1        0.0261
      5 C           7.0126   -3.9473   21.6506 C.ar    1  UNL1       -0.0247
      6 C           6.0116   -3.1088   20.9122 C.ar    1  UNL1        0.0142
      7 C           4.8987   -2.4368   21.6604 C.ar    1  UNL1        0.1100
      8 C           4.7866   -2.6032   23.1469 C.ar    1  UNL1        0.0184
      9 C           5.7875   -3.4416   23.8853 C.ar    1  UNL1       -0.0031
     10 C           6.9005   -4.1137   23.1371 C.ar    1  UNL1       -0.0230
     11 S           3.8977   -1.5983   20.9220 S.O2    1  UNL1        0.0274
     12 O           4.6397   -1.8406   19.6411 O.2     1  UNL1       -0.1642
     13 O           3.1557   -1.3561   22.2029 O.2     1  UNL1       -0.1642
     14 C           2.8969   -0.7599   20.1836 C.ar    1  UNL1        0.1103
     15 C           1.5100   -0.5926   20.7300 C.ar    1  UNL1        0.0187
     16 C           0.5090    0.2459   19.9917 C.ar    1  UNL1        0.0013
     17 C           0.8950    0.9170   18.7069 C.ar    1  UNL1        0.0001
     18 C           2.2819    0.7496   18.1604 C.ar    1  UNL1        0.0013
     19 C           3.2828   -0.0889   18.8988 C.ar    1  UNL1        0.0187
     20 C           7.7894   -5.1185   25.3620 C.3     1  UNL1        0.1781
     21 N           7.2222   -6.3837   25.9344 N.pl3   1  UNL1       -0.2622
     22 H           7.1070   -7.1753   25.3606 H       1  UNL1        0.2588
     23 N           5.5707   -5.7732   27.8449 N.pl3   1  UNL1       -0.1298
     24 C           6.8303   -6.4426   27.3811 C.cat   1  UNL1        0.3769
     25 N           7.6981   -7.1712   28.3641 N.pl3   1  UNL1       -0.2892
     26 H           5.3135   -5.8119   28.7944 H       1  UNL1        0.3062
     27 H           7.4410   -7.2099   29.3136 H       1  UNL1        0.2546
     28 H           8.5249   -7.6106   28.0597 H       1  UNL1        0.2546
@<TRIPOS>BOND
     1    23    24    2
     2    24    25    1
     3    24    21    1
     4    21    20    1
     5    20     1    1
     6     1     2    1
     7     2     3    1
     8     3     4    1
     9     4     5    1
    10     5     6   ar
    11     6     7   ar
    12     7    11    1
    13    11    12    2
    14    11    13    2
    15    11    14    1
    16    14    15   ar
    17    15    16   ar
    18    16    17   ar
    19    17    18   ar
    20    18    19   ar
    21     7     8   ar
    22     8     9   ar
    23     9    10   ar
    24    10     1    1
    25    10     5   ar
    26    19    14   ar
    27    23    26    1
    28    25    27    1
    29    25    28    1
    30    21    22    1
@<TRIPOS>MOLECULE
*****
 28 30 0 0 0
SMALL
GASTEIGER

@<TRIPOS>ATOM
      1 C           3.8417   -2.7852   20.5226 C.3     1  UNL1        0.0614
      2 C           4.8423   -3.3221   21.5026 C.3     1  UNL1        0.0082
      3 C           4.9637   -2.7051   22.8645 C.3     1  UNL1        0.0051
      4 C           4.0845   -1.5514   23.2463 C.3     1  UNL1        0.0261
      5 C           3.0840   -1.0145   22.2662 C.ar    1  UNL1       -0.0247
      6 C           2.2047    0.1393   22.6480 C.ar    1  UNL1        0.0142
      7 C           1.2041    0.6762   21.6680 C.ar    1  UNL1        0.1100
      8 C           1.0827    0.0593   20.3061 C.ar    1  UNL1        0.0184
      9 C           1.9619   -1.0945   19.9243 C.ar    1  UNL1       -0.0031
     10 C           2.9625   -1.6314   20.9044 C.ar    1  UNL1       -0.0230
     11 S           0.3249    1.8300   22.0498 S.O2    1  UNL1        0.0274
     12 O          -0.5574    1.5480   20.8700 O.2     1  UNL1       -0.1642
     13 O           1.2072    2.1121   23.2295 O.2     1  UNL1       -0.1642
     14 C          -0.5543    2.9838   22.4315 C.ar    1  UNL1        0.1103
     15 C          -1.5167    3.5557   21.4332 C.ar    1  UNL1        0.0187
     16 C          -2.3960    4.7095   21.8149 C.ar    1  UNL1        0.0013
     17 C          -2.3128    5.2914   23.1949 C.ar    1  UNL1        0.0001
     18 C          -1.3503    4.7194   24.1933 C.ar    1  UNL1        0.0013
     19 C          -0.4711    3.5657   23.8115 C.ar    1  UNL1        0.0187
     20 C           3.7202   -3.4021   19.1607 C.3     1  UNL1        0.1781
     21 N           4.6633   -2.9968   18.0669 N.pl3   1  UNL1       -0.2622
     22 H           5.2916   -3.6543   17.6900 H       1  UNL1        0.2588
     23 N           3.8370   -1.2466   16.3338 N.pl3   1  UNL1       -0.1298
     24 C           4.6489   -1.5897   17.5474 C.cat   1  UNL1        0.3769
     25 N           5.4465   -0.5257   18.2417 N.pl3   1  UNL1       -0.2892
     26 H           3.8276   -0.3230   15.9928 H       1  UNL1        0.3062
     27 H           5.4371    0.3978   17.9007 H       1  UNL1        0.2546
     28 H           5.9794   -0.7510   19.0383 H       1  UNL1        0.2546
@<TRIPOS>BOND
     1    23    24    2
     2    24    25    1
     3    24    21    1
     4    21    20    1
     5    20     1    1
     6     1     2    1
     7     2     3    1
     8     3     4    1
     9     4     5    1
    10     5     6   ar
    11     6     7   ar
    12     7    11    1
    13    11    12    2
    14    11    13    2
    15    11    14    1
    16    14    15   ar
    17    15    16   ar
    18    16    17   ar
    19    17    18   ar
    20    18    19   ar
    21     7     8   ar
    22     8     9   ar
    23     9    10   ar
    24    10     1    1
    25    10     5   ar
    26    19    14   ar
    27    23    26    1
    28    25    27    1
    29    25    28    1
    30    21    22    1
