@<TRIPOS>MOLECULE
*****
 26 28 0 0 0
SMALL
GASTEIGER

@<TRIPOS>ATOM
      1 C          -6.4884  -19.0122   22.1215 C.ar    1  UNL1       -0.0078
      2 C          -7.0065  -17.6952   22.6187 C.ar    1  UNL1        0.0001
      3 C          -8.3056  -17.6342   23.3659 C.ar    1  UNL1        0.0366
      4 C          -9.0868  -18.8901   23.6159 C.ar    1  UNL1        0.1390
      5 C          -8.5687  -20.2071   23.1188 C.ar    1  UNL1        0.0366
      6 C          -7.2695  -20.2681   22.3716 C.ar    1  UNL1        0.0001
      7 C          -2.9188  -18.6130   20.6505 C.3     1  UNL1        0.1315
      8 C          -3.4611  -19.7218   19.7982 C.3     1  UNL1        0.0268
      9 C          -4.8643  -20.0063   20.2456 C.3     1  UNL1        0.0221
     10 C          -5.1892  -19.0733   21.3743 C.3     1  UNL1        0.0772
     11 N          -3.9868  -18.2122   21.6245 N.3     1  UNL1       -0.2890
     12 H          -3.6545  -18.3506   22.5789 H       1  UNL1        0.1239
     13 N          -1.2756  -16.6618   21.1436 N.am    1  UNL1       -0.3277
     14 C          -1.5489  -18.0106   20.5469 C.2     1  UNL1        0.2336
     15 O          -0.4523  -18.7571   19.8467 O.2     1  UNL1       -0.2739
     16 H          -0.3765  -16.2665   21.0756 H       1  UNL1        0.1450
     17 H          -1.9953  -16.1719   21.6032 H       1  UNL1        0.1450
     18 O         -10.3860  -18.8290   24.3632 O.3     1  UNL1       -0.4706
     19 C         -11.6590  -18.5245   23.6306 C.3     1  UNL1        0.2342
     20 C         -11.6084  -17.9385   22.2506 C.ar    1  UNL1        0.0486
     21 C         -11.7830  -16.4615   22.0561 C.ar    1  UNL1        0.0016
     22 C         -11.7324  -15.8756   20.6762 C.ar    1  UNL1       -0.0001
     23 C         -11.5072  -16.7668   19.4908 C.ar    1  UNL1        0.0023
     24 C         -11.3326  -18.2438   19.6853 C.ar    1  UNL1        0.0294
     25 C         -11.3832  -18.8297   21.0652 C.ar    1  UNL1        0.1396
     26 F         -11.2085  -20.3068   21.2598 F       1  UNL1       -0.2044
@<TRIPOS>BOND
     1    13    14   am
     2    14    15    2
     3     7    14    1
     4     7     8    1
     5     8     9    1
     6     9    10    1
     7    10     1    1
     8     1     2   ar
     9     2     3   ar
    10     3     4   ar
    11     4    18    1
    12    18    19    1
    13    19    20    1
    14    20    21   ar
    15    21    22   ar
    16    22    23   ar
    17    23    24   ar
    18    24    25   ar
    19    25    26    1
    20     4     5   ar
    21     5     6   ar
    22    10    11    1
    23    11     7    1
    24     6     1   ar
    25    25    20   ar
    26    13    16    1
    27    13    17    1
    28    11    12    1
@<TRIPOS>MOLECULE
*****
 26 28 0 0 0
SMALL
GASTEIGER

@<TRIPOS>ATOM
      1 C          -6.5875  -18.9478   22.1760 C.ar    1  UNL1       -0.0078
      2 C          -7.0760  -17.6105   22.6480 C.ar    1  UNL1        0.0001
      3 C          -8.3853  -17.5031   23.3720 C.ar    1  UNL1        0.0366
      4 C          -9.2060  -18.7330   23.6241 C.ar    1  UNL1        0.1390
      5 C          -8.7175  -20.0704   23.1522 C.ar    1  UNL1        0.0366
      6 C          -7.4083  -20.1778   22.4281 C.ar    1  UNL1        0.0001
      7 C          -2.9949  -18.6462   20.7382 C.3     1  UNL1        0.1315
      8 C          -3.5320  -19.7952   19.9373 C.3     1  UNL1        0.0268
      9 C          -4.9432  -20.0480   20.3785 C.3     1  UNL1        0.0221
     10 C          -5.2782  -19.0553   21.4520 C.3     1  UNL1        0.0772
     11 N          -4.0740  -18.1889   21.6742 N.3     1  UNL1       -0.2890
     12 H          -3.7562  -18.2789   22.6393 H       1  UNL1        0.1239
     13 N          -1.3228  -16.7205   21.2341 N.am    1  UNL1       -0.3277
     14 C          -1.6199  -18.0578   20.6231 C.2     1  UNL1        0.2336
     15 O          -0.5419  -18.8067   19.8970 O.2     1  UNL1       -0.2739
     16 H          -0.4204  -16.3343   21.1585 H       1  UNL1        0.1450
     17 H          -2.0303  -16.2289   21.7106 H       1  UNL1        0.1450
     18 O         -10.5154  -18.6256   24.3482 O.3     1  UNL1       -0.4706
     19 C         -11.7700  -18.3146   23.5871 C.3     1  UNL1        0.2342
     20 C         -11.6887  -17.8675   22.1576 C.ar    1  UNL1        0.0486
     21 C         -11.2668  -18.8351   21.0919 C.ar    1  UNL1        0.0016
     22 C         -11.1855  -18.3879   19.6625 C.ar    1  UNL1       -0.0001
     23 C         -11.5262  -16.9731   19.2987 C.ar    1  UNL1        0.0023
     24 C         -11.9481  -16.0055   20.3643 C.ar    1  UNL1        0.0294
     25 C         -12.0293  -16.4527   21.7938 C.ar    1  UNL1        0.1396
     26 F         -12.4512  -15.4851   22.8596 F       1  UNL1       -0.2044
@<TRIPOS>BOND
     1    13    14   am
     2    14    15    2
     3     7    14    1
     4     7     8    1
     5     8     9    1
     6     9    10    1
     7    10     1    1
     8     1     2   ar
     9     2     3   ar
    10     3     4   ar
    11     4    18    1
    12    18    19    1
    13    19    20    1
    14    20    21   ar
    15    21    22   ar
    16    22    23   ar
    17    23    24   ar
    18    24    25   ar
    19    25    26    1
    20     4     5   ar
    21     5     6   ar
    22    10    11    1
    23    11     7    1
    24     6     1   ar
    25    25    20   ar
    26    13    16    1
    27    13    17    1
    28    11    12    1
@<TRIPOS>MOLECULE
*****
 26 28 0 0 0
SMALL
GASTEIGER

@<TRIPOS>ATOM
      1 C          -9.9418  -18.6608   21.8731 C.ar    1  UNL1       -0.0078
      2 C          -8.7387  -18.8365   22.7516 C.ar    1  UNL1        0.0001
      3 C          -7.4438  -19.3131   22.1634 C.ar    1  UNL1        0.0366
      4 C          -7.3520  -19.6140   20.6968 C.ar    1  UNL1        0.1390
      5 C          -8.5550  -19.4383   19.8183 C.ar    1  UNL1        0.0366
      6 C          -9.8499  -18.9617   20.4065 C.ar    1  UNL1        0.0001
      7 C         -13.2721  -18.0755   23.7789 C.3     1  UNL1        0.1315
      8 C         -13.1869  -16.8257   22.9536 C.3     1  UNL1        0.0268
      9 C         -11.9290  -16.8929   22.1393 C.3     1  UNL1        0.0221
     10 C         -11.2368  -18.1841   22.4613 C.3     1  UNL1        0.0772
     11 N         -12.0668  -18.9149   23.4746 N.3     1  UNL1       -0.2890
     12 H         -11.5239  -19.0623   24.3254 H       1  UNL1        0.1239
     13 N         -14.1154  -18.3800   26.2174 N.am    1  UNL1       -0.3277
     14 C         -14.3698  -18.4244   24.7398 C.2     1  UNL1        0.2336
     15 O         -15.7220  -18.8176   24.2231 O.2     1  UNL1       -0.2739
     16 H         -14.8358  -18.6091   26.8480 H       1  UNL1        0.1450
     17 H         -13.2279  -18.1220   26.5565 H       1  UNL1        0.1450
     18 O          -6.0569  -20.0907   20.1086 O.3     1  UNL1       -0.4706
     19 C          -4.8230  -20.1486   20.9596 C.3     1  UNL1        0.2342
     20 C          -3.8049  -19.0498   20.8801 C.ar    1  UNL1        0.0486
     21 C          -3.1671  -18.7120   19.5652 C.ar    1  UNL1        0.0016
     22 C          -2.1490  -17.6133   19.4858 C.ar    1  UNL1       -0.0001
     23 C          -1.7688  -16.8524   20.7213 C.ar    1  UNL1        0.0023
     24 C          -2.4067  -17.1902   22.0362 C.ar    1  UNL1        0.0294
     25 C          -3.4247  -18.2889   22.1156 C.ar    1  UNL1        0.1396
     26 F          -4.0627  -18.6267   23.4306 F       1  UNL1       -0.2044
@<TRIPOS>BOND
     1    13    14   am
     2    14    15    2
     3     7    14    1
     4     7     8    1
     5     8     9    1
     6     9    10    1
     7    10     1    1
     8     1     2   ar
     9     2     3   ar
    10     3     4   ar
    11     4    18    1
    12    18    19    1
    13    19    20    1
    14    20    21   ar
    15    21    22   ar
    16    22    23   ar
    17    23    24   ar
    18    24    25   ar
    19    25    26    1
    20     4     5   ar
    21     5     6   ar
    22    10    11    1
    23    11     7    1
    24     6     1   ar
    25    25    20   ar
    26    13    16    1
    27    13    17    1
    28    11    12    1
@<TRIPOS>MOLECULE
*****
 26 28 0 0 0
SMALL
GASTEIGER

@<TRIPOS>ATOM
      1 C          -6.8203  -19.5785   20.8783 C.ar    1  UNL1       -0.0078
      2 C          -7.1314  -19.9692   22.2927 C.ar    1  UNL1        0.0001
      3 C          -8.5542  -20.0007   22.7663 C.ar    1  UNL1        0.0366
      4 C          -9.6660  -19.6417   21.8256 C.ar    1  UNL1        0.1390
      5 C          -9.3549  -19.2510   20.4112 C.ar    1  UNL1        0.0366
      6 C          -7.9320  -19.2195   19.9375 C.ar    1  UNL1        0.0001
      7 C          -3.2013  -18.7517   19.7447 C.3     1  UNL1        0.1315
      8 C          -3.2142  -20.2453   19.6065 C.3     1  UNL1        0.0268
      9 C          -4.5714  -20.7368   20.0143 C.3     1  UNL1        0.0221
     10 C          -5.3973  -19.5470   20.4045 C.3     1  UNL1        0.0772
     11 N          -4.5505  -18.3201   20.2379 N.3     1  UNL1       -0.2890
     12 H          -4.4549  -17.8413   21.1335 H       1  UNL1        0.1239
     13 N          -1.3913  -17.8897   18.0921 N.am    1  UNL1       -0.3277
     14 C          -2.0426  -17.8482   19.4427 C.2     1  UNL1        0.2336
     15 O          -1.5351  -16.9033   20.4913 O.2     1  UNL1       -0.2739
     16 H          -0.6308  -17.2968   17.8939 H       1  UNL1        0.1450
     17 H          -1.7244  -18.5099   17.4038 H       1  UNL1        0.1450
     18 O         -11.0889  -19.6732   22.2993 O.3     1  UNL1       -0.4706
     19 C         -11.5462  -18.7210   23.3643 C.3     1  UNL1        0.2342
     20 C         -10.5420  -17.8992   24.1169 C.ar    1  UNL1        0.0486
     21 C         -10.0228  -18.3769   25.4406 C.ar    1  UNL1        0.0016
     22 C          -9.0187  -17.5551   26.1932 C.ar    1  UNL1       -0.0001
     23 C          -8.5339  -16.2555   25.6221 C.ar    1  UNL1        0.0023
     24 C          -9.0532  -15.7778   24.2985 C.ar    1  UNL1        0.0294
     25 C         -10.0573  -16.5996   23.5459 C.ar    1  UNL1        0.1396
     26 F         -10.5766  -16.1219   22.2222 F       1  UNL1       -0.2044
@<TRIPOS>BOND
     1    13    14   am
     2    14    15    2
     3     7    14    1
     4     7     8    1
     5     8     9    1
     6     9    10    1
     7    10     1    1
     8     1     2   ar
     9     2     3   ar
    10     3     4   ar
    11     4    18    1
    12    18    19    1
    13    19    20    1
    14    20    21   ar
    15    21    22   ar
    16    22    23   ar
    17    23    24   ar
    18    24    25   ar
    19    25    26    1
    20     4     5   ar
    21     5     6   ar
    22    10    11    1
    23    11     7    1
    24     6     1   ar
    25    25    20   ar
    26    13    16    1
    27    13    17    1
    28    11    12    1
@<TRIPOS>MOLECULE
*****
 26 28 0 0 0
SMALL
GASTEIGER

@<TRIPOS>ATOM
      1 C          -6.0606  -19.3409   21.1595 C.ar    1  UNL1       -0.0078
      2 C          -6.9327  -18.9603   20.0000 C.ar    1  UNL1        0.0001
      3 C          -8.4241  -19.0723   20.1148 C.ar    1  UNL1        0.0366
      4 C          -9.0433  -19.5650   21.3891 C.ar    1  UNL1        0.1390
      5 C          -8.1712  -19.9456   22.5486 C.ar    1  UNL1        0.0366
      6 C          -6.6799  -19.8336   22.4338 C.ar    1  UNL1        0.0001
      7 C          -2.3492  -18.7565   20.1850 C.3     1  UNL1        0.1315
      8 C          -2.1990  -19.3566   21.5516 C.3     1  UNL1        0.0268
      9 C          -3.5710  -19.6486   22.0829 C.3     1  UNL1        0.0221
     10 C          -4.5691  -19.2289   21.0448 C.3     1  UNL1        0.0772
     11 N          -3.8140  -18.6775   19.8719 N.3     1  UNL1       -0.2890
     12 H          -4.0822  -17.7063   19.7131 H       1  UNL1        0.1239
     13 N          -1.5365  -17.6076   18.0011 N.am    1  UNL1       -0.3277
     14 C          -1.2309  -18.3131   19.2890 C.2     1  UNL1        0.2336
     15 O           0.1931  -18.5753   19.6809 O.2     1  UNL1       -0.2739
     16 H          -0.8025  -17.3166   17.4130 H       1  UNL1        0.1450
     17 H          -2.4711  -17.4355   17.7438 H       1  UNL1        0.1450
     18 O         -10.5348  -19.6770   21.5038 O.3     1  UNL1       -0.4706
     19 C         -11.2609  -18.9399   22.5898 C.3     1  UNL1        0.2342
     20 C         -10.4926  -18.1166   23.5807 C.ar    1  UNL1        0.0486
     21 C         -10.0949  -16.7110   23.2398 C.ar    1  UNL1        0.0016
     22 C          -9.3266  -15.8878   24.2307 C.ar    1  UNL1       -0.0001
     23 C          -8.9559  -16.4701   25.5625 C.ar    1  UNL1        0.0023
     24 C          -9.3536  -17.8756   25.9033 C.ar    1  UNL1        0.0294
     25 C         -10.1219  -18.6989   24.9124 C.ar    1  UNL1        0.1396
     26 F         -10.5196  -20.1045   25.2533 F       1  UNL1       -0.2044
@<TRIPOS>BOND
     1    13    14   am
     2    14    15    2
     3     7    14    1
     4     7     8    1
     5     8     9    1
     6     9    10    1
     7    10     1    1
     8     1     2   ar
     9     2     3   ar
    10     3     4   ar
    11     4    18    1
    12    18    19    1
    13    19    20    1
    14    20    21   ar
    15    21    22   ar
    16    22    23   ar
    17    23    24   ar
    18    24    25   ar
    19    25    26    1
    20     4     5   ar
    21     5     6   ar
    22    10    11    1
    23    11     7    1
    24     6     1   ar
    25    25    20   ar
    26    13    16    1
    27    13    17    1
    28    11    12    1
@<TRIPOS>MOLECULE
*****
 26 28 0 0 0
SMALL
GASTEIGER

@<TRIPOS>ATOM
      1 C          -7.7930  -19.4026   21.1783 C.ar    1  UNL1       -0.0078
      2 C          -7.0402  -18.9120   19.9772 C.ar    1  UNL1        0.0001
      3 C          -5.6376  -19.3814   19.7279 C.ar    1  UNL1        0.0366
      4 C          -4.9877  -20.3415   20.6797 C.ar    1  UNL1        0.1390
      5 C          -5.7405  -20.8322   21.8808 C.ar    1  UNL1        0.0366
      6 C          -7.1431  -20.3627   22.1301 C.ar    1  UNL1        0.0001
      7 C         -11.1721  -17.5302   21.5540 C.3     1  UNL1        0.1315
      8 C         -11.5362  -18.8913   22.0686 C.3     1  UNL1        0.0268
      9 C         -10.3147  -19.7584   21.9905 C.3     1  UNL1        0.0221
     10 C          -9.1957  -18.9331   21.4276 C.3     1  UNL1        0.0772
     11 N          -9.7256  -17.5560   21.1578 N.3     1  UNL1       -0.2890
     12 H          -9.6345  -17.3384   20.1655 H       1  UNL1        0.1239
     13 N         -12.2579  -15.4257   22.6227 N.am    1  UNL1       -0.3277
     14 C         -12.0929  -16.3503   21.4532 C.2     1  UNL1        0.2336
     15 O         -12.8487  -16.0952   20.1829 O.2     1  UNL1       -0.2739
     16 H         -12.8622  -14.6513   22.5565 H       1  UNL1        0.1450
     17 H         -11.7618  -15.5931   23.4564 H       1  UNL1        0.1450
     18 O          -3.5850  -20.8110   20.4304 O.3     1  UNL1       -0.4706
     19 C          -2.4585  -20.2885   21.2718 C.3     1  UNL1        0.2342
     20 C          -2.2181  -18.8110   21.3694 C.ar    1  UNL1        0.0486
     21 C          -1.2742  -18.1402   20.4161 C.ar    1  UNL1        0.0016
     22 C          -1.0338  -16.6628   20.5137 C.ar    1  UNL1       -0.0001
     23 C          -1.7373  -15.8563   21.5648 C.ar    1  UNL1        0.0023
     24 C          -2.6811  -16.5272   22.5182 C.ar    1  UNL1        0.0294
     25 C          -2.9215  -18.0046   22.4205 C.ar    1  UNL1        0.1396
     26 F          -3.8655  -18.6755   23.3739 F       1  UNL1       -0.2044
@<TRIPOS>BOND
     1    13    14   am
     2    14    15    2
     3     7    14    1
     4     7     8    1
     5     8     9    1
     6     9    10    1
     7    10     1    1
     8     1     2   ar
     9     2     3   ar
    10     3     4   ar
    11     4    18    1
    12    18    19    1
    13    19    20    1
    14    20    21   ar
    15    21    22   ar
    16    22    23   ar
    17    23    24   ar
    18    24    25   ar
    19    25    26    1
    20     4     5   ar
    21     5     6   ar
    22    10    11    1
    23    11     7    1
    24     6     1   ar
    25    25    20   ar
    26    13    16    1
    27    13    17    1
    28    11    12    1
@<TRIPOS>MOLECULE
*****
 26 28 0 0 0
SMALL
GASTEIGER

@<TRIPOS>ATOM
      1 C          -5.7540  -19.2184   20.7388 C.ar    1  UNL1       -0.0078
      2 C          -6.6959  -18.3402   21.5079 C.ar    1  UNL1        0.0001
      3 C          -8.1754  -18.4546   21.2892 C.ar    1  UNL1        0.0366
      4 C          -8.7130  -19.4470   20.3013 C.ar    1  UNL1        0.1390
      5 C          -7.7711  -20.3252   19.5322 C.ar    1  UNL1        0.0366
      6 C          -6.2916  -20.2109   19.7509 C.ar    1  UNL1        0.0001
      7 C          -1.9373  -18.5155   20.6708 C.3     1  UNL1        0.1315
      8 C          -2.0578  -19.3411   21.9174 C.3     1  UNL1        0.0268
      9 C          -3.5022  -19.7048   22.0946 C.3     1  UNL1        0.0221
     10 C          -4.2744  -19.1041   20.9575 C.3     1  UNL1        0.0772
     11 N          -3.3072  -18.3691   20.0776 N.3     1  UNL1       -0.2890
     12 H          -3.5613  -17.3822   20.0326 H       1  UNL1        0.1239
     13 N          -0.5227  -16.4520   19.9701 N.am    1  UNL1       -0.3277
     14 C          -0.6695  -17.9378   20.1151 C.2     1  UNL1        0.2336
     15 O           0.4516  -18.8458   19.7042 O.2     1  UNL1       -0.2739
     16 H           0.3095  -16.0729   19.6053 H       1  UNL1        0.1450
     17 H          -1.2584  -15.8561   20.2397 H       1  UNL1        0.1450
     18 O         -10.1926  -19.5613   20.0826 O.3     1  UNL1       -0.4706
     19 C         -11.1044  -18.4576   20.5302 C.3     1  UNL1        0.2342
     20 C         -11.6871  -18.4801   21.9123 C.ar    1  UNL1        0.0486
     21 C         -11.0476  -19.3144   22.9823 C.ar    1  UNL1        0.0016
     22 C         -11.6303  -19.3369   24.3643 C.ar    1  UNL1       -0.0001
     23 C         -12.8525  -18.5251   24.6763 C.ar    1  UNL1        0.0023
     24 C         -13.4919  -17.6909   23.6062 C.ar    1  UNL1        0.0294
     25 C         -12.9093  -17.6684   22.2242 C.ar    1  UNL1        0.1396
     26 F         -13.5488  -16.8341   21.1541 F       1  UNL1       -0.2044
@<TRIPOS>BOND
     1    13    14   am
     2    14    15    2
     3     7    14    1
     4     7     8    1
     5     8     9    1
     6     9    10    1
     7    10     1    1
     8     1     2   ar
     9     2     3   ar
    10     3     4   ar
    11     4    18    1
    12    18    19    1
    13    19    20    1
    14    20    21   ar
    15    21    22   ar
    16    22    23   ar
    17    23    24   ar
    18    24    25   ar
    19    25    26    1
    20     4     5   ar
    21     5     6   ar
    22    10    11    1
    23    11     7    1
    24     6     1   ar
    25    25    20   ar
    26    13    16    1
    27    13    17    1
    28    11    12    1
@<TRIPOS>MOLECULE
*****
 26 28 0 0 0
SMALL
GASTEIGER

@<TRIPOS>ATOM
      1 C          -5.2605  -17.8500   22.5330 C.ar    1  UNL1       -0.0078
      2 C          -5.2681  -16.6377   23.4163 C.ar    1  UNL1        0.0001
      3 C          -6.5603  -16.1342   23.9877 C.ar    1  UNL1        0.0366
      4 C          -7.8450  -16.8431   23.6759 C.ar    1  UNL1        0.1390
      5 C          -7.8373  -18.0554   22.7926 C.ar    1  UNL1        0.0366
      6 C          -6.5451  -18.5588   22.2212 C.ar    1  UNL1        0.0001
      7 C          -1.9067  -18.4942   20.6882 C.3     1  UNL1        0.1315
      8 C          -2.0525  -19.7624   21.4760 C.3     1  UNL1        0.0268
      9 C          -3.3265  -19.6754   22.2630 C.3     1  UNL1        0.0221
     10 C          -3.9682  -18.3535   21.9615 C.3     1  UNL1        0.0772
     11 N          -3.0907  -17.6235   20.9883 N.3     1  UNL1       -0.2890
     12 H          -2.7780  -16.7429   21.3972 H       1  UNL1        0.1239
     13 N          -1.0606  -17.7481   18.3478 N.am    1  UNL1       -0.3277
     14 C          -0.7756  -18.1562   19.7629 C.2     1  UNL1        0.2336
     15 O           0.6405  -18.2261   20.2525 O.2     1  UNL1       -0.2739
     16 H          -0.3182  -17.5263   17.7405 H       1  UNL1        0.1450
     17 H          -1.9900  -17.7022   18.0265 H       1  UNL1        0.1450
     18 O          -9.1373  -16.3396   24.2474 O.3     1  UNL1       -0.4706
     19 C         -10.3889  -16.3805   23.4217 C.3     1  UNL1        0.2342
     20 C         -10.6277  -17.5215   22.4777 C.ar    1  UNL1        0.0486
     21 C         -10.5920  -17.2893   20.9963 C.ar    1  UNL1        0.0016
     22 C         -10.8308  -18.4302   20.0523 C.ar    1  UNL1       -0.0001
     23 C         -11.1054  -19.8034   20.5898 C.ar    1  UNL1        0.0023
     24 C         -11.1412  -20.0357   22.0712 C.ar    1  UNL1        0.0294
     25 C         -10.9024  -18.8947   23.0152 C.ar    1  UNL1        0.1396
     26 F         -10.9381  -19.1269   24.4967 F       1  UNL1       -0.2044
@<TRIPOS>BOND
     1    13    14   am
     2    14    15    2
     3     7    14    1
     4     7     8    1
     5     8     9    1
     6     9    10    1
     7    10     1    1
     8     1     2   ar
     9     2     3   ar
    10     3     4   ar
    11     4    18    1
    12    18    19    1
    13    19    20    1
    14    20    21   ar
    15    21    22   ar
    16    22    23   ar
    17    23    24   ar
    18    24    25   ar
    19    25    26    1
    20     4     5   ar
    21     5     6   ar
    22    10    11    1
    23    11     7    1
    24     6     1   ar
    25    25    20   ar
    26    13    16    1
    27    13    17    1
    28    11    12    1
@<TRIPOS>MOLECULE
*****
 26 28 0 0 0
SMALL
GASTEIGER

@<TRIPOS>ATOM
      1 C          -9.7765  -16.9766   23.2507 C.ar    1  UNL1       -0.0078
      2 C          -9.2236  -16.2986   24.4692 C.ar    1  UNL1        0.0001
      3 C          -7.7782  -15.9004   24.5150 C.ar    1  UNL1        0.0366
      4 C          -6.8857  -16.1802   23.3423 C.ar    1  UNL1        0.1390
      5 C          -7.4386  -16.8581   22.1239 C.ar    1  UNL1        0.0366
      6 C          -8.8840  -17.2563   22.0781 C.ar    1  UNL1        0.0001
      7 C         -13.4433  -18.0842   23.8780 C.3     1  UNL1        0.1315
      8 C         -13.4494  -17.8910   22.3905 C.3     1  UNL1        0.0268
      9 C         -12.0765  -17.4525   21.9745 C.3     1  UNL1        0.0221
     10 C         -11.2220  -17.3748   23.2049 C.3     1  UNL1        0.0772
     11 N         -12.0667  -17.7652   24.3813 N.3     1  UNL1       -0.2890
     12 H         -12.1117  -16.9933   25.0466 H       1  UNL1        0.1239
     13 N         -15.9611  -18.6896   24.0881 N.am    1  UNL1       -0.3277
     14 C         -14.6092  -18.5200   24.7153 C.2     1  UNL1        0.2336
     15 O         -14.4231  -18.7861   26.1797 O.2     1  UNL1       -0.2739
     16 H         -16.7263  -18.9756   24.6376 H       1  UNL1        0.1450
     17 H         -16.0833  -18.5150   23.1269 H       1  UNL1        0.1450
     18 O          -5.4402  -15.7820   23.3882 O.3     1  UNL1       -0.4706
     19 C          -4.4041  -16.7692   23.8375 C.3     1  UNL1        0.2342
     20 C          -3.7438  -17.6710   22.8371 C.ar    1  UNL1        0.0486
     21 C          -4.1822  -19.1000   22.7113 C.ar    1  UNL1        0.0016
     22 C          -3.5218  -20.0017   21.7110 C.ar    1  UNL1       -0.0001
     23 C          -2.4231  -19.4746   20.8365 C.ar    1  UNL1        0.0023
     24 C          -1.9846  -18.0456   20.9623 C.ar    1  UNL1        0.0294
     25 C          -2.6450  -17.1439   21.9626 C.ar    1  UNL1        0.1396
     26 F          -2.2066  -15.7149   22.0885 F       1  UNL1       -0.2044
@<TRIPOS>BOND
     1    13    14   am
     2    14    15    2
     3     7    14    1
     4     7     8    1
     5     8     9    1
     6     9    10    1
     7    10     1    1
     8     1     2   ar
     9     2     3   ar
    10     3     4   ar
    11     4    18    1
    12    18    19    1
    13    19    20    1
    14    20    21   ar
    15    21    22   ar
    16    22    23   ar
    17    23    24   ar
    18    24    25   ar
    19    25    26    1
    20     4     5   ar
    21     5     6   ar
    22    10    11    1
    23    11     7    1
    24     6     1   ar
    25    25    20   ar
    26    13    16    1
    27    13    17    1
    28    11    12    1
