@<TRIPOS>MOLECULE
*****
 19 20 0 0 0
SMALL
GASTEIGER

@<TRIPOS>ATOM
      1 C          -6.5701  -20.3037   21.9792 C.3     1  UNL1        0.0959
      2 C          -2.5923  -18.5625   20.7979 C.ar    1  UNL1        0.0140
      3 C          -3.0458  -18.4959   22.2261 C.ar    1  UNL1        0.0009
      4 C          -4.3717  -19.0763   22.6199 C.ar    1  UNL1       -0.0029
      5 C          -5.2442  -19.7233   21.5855 C.ar    1  UNL1       -0.0064
      6 C          -4.7907  -19.7899   20.1572 C.ar    1  UNL1       -0.0029
      7 C          -3.4648  -19.2095   19.7634 C.ar    1  UNL1        0.0009
      8 O          -0.2221  -18.8562   19.7754 O.co2   1  UNL1       -0.5446
      9 C          -1.2664  -17.9821   20.4041 C.2     1  UNL1        0.0729
     10 O          -0.9848  -16.5277   20.6390 O.co2   1  UNL1       -0.5446
     11 N          -7.6972  -19.3973   22.3769 N.3     1  UNL1       -0.2900
     12 H          -8.0036  -18.9193   21.5296 H       1  UNL1        0.1239
     13 C          -8.9261  -19.9670   23.0212 C.3     1  UNL1        0.0959
     14 C         -10.2431  -19.2634   22.8774 C.ar    1  UNL1       -0.0064
     15 C         -11.0565  -18.9381   24.0950 C.ar    1  UNL1       -0.0029
     16 C         -12.3735  -18.2345   23.9512 C.ar    1  UNL1       -0.0003
     17 C         -12.8770  -17.8563   22.5898 C.ar    1  UNL1       -0.0000
     18 C         -12.0636  -18.1817   21.3722 C.ar    1  UNL1       -0.0003
     19 C         -10.7467  -18.8853   21.5160 C.ar    1  UNL1       -0.0029
@<TRIPOS>UNITY_ATOM_ATTR
8 1
charge -1
@<TRIPOS>BOND
     1     8     9   ar
     2     9    10   ar
     3     9     2    1
     4     2     3   ar
     5     3     4   ar
     6     4     5   ar
     7     5     1    1
     8     1    11    1
     9    11    13    1
    10    13    14    1
    11    14    15   ar
    12    15    16   ar
    13    16    17   ar
    14    17    18   ar
    15    18    19   ar
    16     5     6   ar
    17     6     7   ar
    18     7     2   ar
    19    19    14   ar
    20    11    12    1
@<TRIPOS>MOLECULE
*****
 19 20 0 0 0
SMALL
GASTEIGER

@<TRIPOS>ATOM
      1 C          -6.2508  -20.2854   21.6789 C.3     1  UNL1        0.0959
      2 C          -2.2301  -18.5762   20.6007 C.ar    1  UNL1        0.0140
      3 C          -2.6160  -18.7340   22.0415 C.ar    1  UNL1        0.0009
      4 C          -3.9563  -19.3037   22.4009 C.ar    1  UNL1       -0.0029
      5 C          -4.9106  -19.7157   21.3195 C.ar    1  UNL1       -0.0064
      6 C          -4.5246  -19.5579   19.8786 C.ar    1  UNL1       -0.0029
      7 C          -3.1844  -18.9882   19.5192 C.ar    1  UNL1        0.0009
      8 O          -0.6426  -16.5327   20.3694 O.co2   1  UNL1       -0.5446
      9 C          -0.8898  -18.0065   20.2413 C.2     1  UNL1        0.0729
     10 O           0.2032  -18.9107   19.7537 O.co2   1  UNL1       -0.5446
     11 N          -7.4916  -19.7533   21.0253 N.3     1  UNL1       -0.2900
     12 H          -8.1821  -20.5037   21.0494 H       1  UNL1        0.1239
     13 C          -8.1629  -18.5295   21.5746 C.3     1  UNL1        0.0959
     14 C          -9.3035  -18.6688   22.5389 C.ar    1  UNL1       -0.0064
     15 C         -10.4404  -17.6910   22.5020 C.ar    1  UNL1       -0.0029
     16 C         -11.5810  -17.8302   23.4663 C.ar    1  UNL1       -0.0003
     17 C         -11.5846  -18.9472   24.4675 C.ar    1  UNL1       -0.0000
     18 C         -10.4476  -19.9250   24.5043 C.ar    1  UNL1       -0.0003
     19 C          -9.3071  -19.7857   23.5401 C.ar    1  UNL1       -0.0029
@<TRIPOS>UNITY_ATOM_ATTR
8 1
charge -1
@<TRIPOS>BOND
     1     8     9   ar
     2     9    10   ar
     3     9     2    1
     4     2     3   ar
     5     3     4   ar
     6     4     5   ar
     7     5     1    1
     8     1    11    1
     9    11    13    1
    10    13    14    1
    11    14    15   ar
    12    15    16   ar
    13    16    17   ar
    14    17    18   ar
    15    18    19   ar
    16     5     6   ar
    17     6     7   ar
    18     7     2   ar
    19    19    14   ar
    20    11    12    1
@<TRIPOS>MOLECULE
*****
 19 20 0 0 0
SMALL
GASTEIGER

@<TRIPOS>ATOM
      1 C         -11.0594  -16.3201   20.9218 C.3     1  UNL1        0.0959
      2 C          -7.9967  -15.6905   24.1581 C.ar    1  UNL1        0.0140
      3 C          -9.3446  -16.2526   24.5002 C.ar    1  UNL1        0.0009
      4 C         -10.3655  -16.4625   23.4214 C.ar    1  UNL1       -0.0029
      5 C         -10.0385  -16.1102   22.0006 C.ar    1  UNL1       -0.0064
      6 C          -8.6906  -15.5481   21.6585 C.ar    1  UNL1       -0.0029
      7 C          -7.6697  -15.3382   22.7372 C.ar    1  UNL1        0.0009
      8 O          -5.6577  -14.8445   24.9085 O.co2   1  UNL1       -0.5446
      9 C          -6.9758  -15.4806   25.2368 C.2     1  UNL1        0.0729
     10 O          -7.2730  -15.9069   26.6439 O.co2   1  UNL1       -0.5446
     11 N         -10.7147  -17.1362   19.7115 N.3     1  UNL1       -0.2900
     12 H          -9.8358  -16.7675   19.3482 H       1  UNL1        0.1239
     13 C         -10.5441  -18.6216   19.8322 C.3     1  UNL1        0.0959
     14 C         -10.0580  -19.2185   21.1197 C.ar    1  UNL1       -0.0064
     15 C          -8.5875  -19.2820   21.4089 C.ar    1  UNL1       -0.0029
     16 C          -8.1014  -19.8789   22.6963 C.ar    1  UNL1       -0.0003
     17 C          -9.0858  -20.4123   23.6945 C.ar    1  UNL1       -0.0000
     18 C         -10.5564  -20.3487   23.4053 C.ar    1  UNL1       -0.0003
     19 C         -11.0424  -19.7519   22.1179 C.ar    1  UNL1       -0.0029
@<TRIPOS>UNITY_ATOM_ATTR
8 1
charge -1
@<TRIPOS>BOND
     1     8     9   ar
     2     9    10   ar
     3     9     2    1
     4     2     3   ar
     5     3     4   ar
     6     4     5   ar
     7     5     1    1
     8     1    11    1
     9    11    13    1
    10    13    14    1
    11    14    15   ar
    12    15    16   ar
    13    16    17   ar
    14    17    18   ar
    15    18    19   ar
    16     5     6   ar
    17     6     7   ar
    18     7     2   ar
    19    19    14   ar
    20    11    12    1
@<TRIPOS>MOLECULE
*****
 19 20 0 0 0
SMALL
GASTEIGER

@<TRIPOS>ATOM
      1 C          -6.4918  -20.2988   21.9897 C.3     1  UNL1        0.0959
      2 C          -2.5275  -18.5344   20.7976 C.ar    1  UNL1        0.0140
      3 C          -2.9781  -18.4691   22.2268 C.ar    1  UNL1        0.0009
      4 C          -4.2996  -19.0572   22.6242 C.ar    1  UNL1       -0.0029
      5 C          -5.1704  -19.7107   21.5924 C.ar    1  UNL1       -0.0064
      6 C          -4.7197  -19.7760   20.1632 C.ar    1  UNL1       -0.0029
      7 C          -3.3983  -19.1879   19.7658 C.ar    1  UNL1        0.0009
      8 O          -0.1572  -18.8148   19.7714 O.co2   1  UNL1       -0.5446
      9 C          -1.2061  -17.9463   20.4002 C.2     1  UNL1        0.0729
     10 O          -0.9334  -16.4896   20.6318 O.co2   1  UNL1       -0.5446
     11 N          -7.7390  -19.4704   21.8995 N.3     1  UNL1       -0.2900
     12 H          -8.2864  -19.6702   22.7367 H       1  UNL1        0.1239
     13 C          -7.6416  -17.9774   21.7919 C.3     1  UNL1        0.0959
     14 C          -7.7954  -17.1256   23.0170 C.ar    1  UNL1       -0.0064
     15 C          -8.9495  -17.3521   23.9479 C.ar    1  UNL1       -0.0029
     16 C          -9.1033  -16.5003   25.1730 C.ar    1  UNL1       -0.0003
     17 C          -8.1030  -15.4220   25.4672 C.ar    1  UNL1       -0.0000
     18 C          -6.9488  -15.1955   24.5362 C.ar    1  UNL1       -0.0003
     19 C          -6.7950  -16.0473   23.3112 C.ar    1  UNL1       -0.0029
@<TRIPOS>UNITY_ATOM_ATTR
8 1
charge -1
@<TRIPOS>BOND
     1     8     9   ar
     2     9    10   ar
     3     9     2    1
     4     2     3   ar
     5     3     4   ar
     6     4     5   ar
     7     5     1    1
     8     1    11    1
     9    11    13    1
    10    13    14    1
    11    14    15   ar
    12    15    16   ar
    13    16    17   ar
    14    17    18   ar
    15    18    19   ar
    16     5     6   ar
    17     6     7   ar
    18     7     2   ar
    19    19    14   ar
    20    11    12    1
@<TRIPOS>MOLECULE
*****
 19 20 0 0 0
SMALL
GASTEIGER

@<TRIPOS>ATOM
      1 C         -11.3912  -17.0867   22.9467 C.3     1  UNL1        0.0959
      2 C          -7.2603  -15.5865   23.9135 C.ar    1  UNL1        0.0140
      3 C          -8.1296  -16.1437   25.0015 C.ar    1  UNL1        0.0009
      4 C          -9.5065  -16.6438   24.6792 C.ar    1  UNL1       -0.0029
      5 C         -10.0142  -16.5867   23.2690 C.ar    1  UNL1       -0.0064
      6 C          -9.1449  -16.0295   22.1809 C.ar    1  UNL1       -0.0029
      7 C          -7.7680  -15.5294   22.5032 C.ar    1  UNL1        0.0009
      8 O          -4.8861  -14.8736   23.1356 O.co2   1  UNL1       -0.5446
      9 C          -5.8833  -15.0865   24.2357 C.2     1  UNL1        0.0729
     10 O          -5.5035  -14.7992   25.6581 O.co2   1  UNL1       -0.5446
     11 N         -11.8321  -18.4356   23.4326 N.3     1  UNL1       -0.2900
     12 H         -12.7743  -18.5851   23.0717 H       1  UNL1        0.1239
     13 C         -11.0350  -19.6567   23.0813 C.3     1  UNL1        0.0959
     14 C         -10.1108  -19.6349   21.9000 C.ar    1  UNL1       -0.0064
     15 C          -8.6280  -19.5488   22.1092 C.ar    1  UNL1       -0.0029
     16 C          -7.7038  -19.5270   20.9279 C.ar    1  UNL1       -0.0003
     17 C          -8.2626  -19.5912   19.5373 C.ar    1  UNL1       -0.0000
     18 C          -9.7455  -19.6772   19.3281 C.ar    1  UNL1       -0.0003
     19 C         -10.6695  -19.6990   20.5094 C.ar    1  UNL1       -0.0029
@<TRIPOS>UNITY_ATOM_ATTR
8 1
charge -1
@<TRIPOS>BOND
     1     8     9   ar
     2     9    10   ar
     3     9     2    1
     4     2     3   ar
     5     3     4   ar
     6     4     5   ar
     7     5     1    1
     8     1    11    1
     9    11    13    1
    10    13    14    1
    11    14    15   ar
    12    15    16   ar
    13    16    17   ar
    14    17    18   ar
    15    18    19   ar
    16     5     6   ar
    17     6     7   ar
    18     7     2   ar
    19    19    14   ar
    20    11    12    1
@<TRIPOS>MOLECULE
*****
 19 20 0 0 0
SMALL
GASTEIGER

@<TRIPOS>ATOM
      1 C          -6.1589  -19.4029   20.9988 C.3     1  UNL1        0.0959
      2 C         -10.4016  -17.9324   20.7039 C.ar    1  UNL1        0.0140
      3 C          -9.9087  -18.9936   19.7655 C.ar    1  UNL1        0.0009
      4 C          -8.4945  -19.4838   19.8638 C.ar    1  UNL1       -0.0029
      5 C          -7.5731  -18.9128   20.9005 C.ar    1  UNL1       -0.0064
      6 C          -8.0660  -17.8515   21.8390 C.ar    1  UNL1       -0.0029
      7 C          -9.4802  -17.3613   21.7407 C.ar    1  UNL1        0.0009
      8 O         -12.8512  -17.9410   21.5696 O.co2   1  UNL1       -0.5446
      9 C         -11.8158  -17.4422   20.6056 C.2     1  UNL1        0.0729
     10 O         -12.1947  -16.4533   19.5434 O.co2   1  UNL1       -0.5446
     11 N          -5.4420  -19.3654   22.3158 N.3     1  UNL1       -0.2900
     12 H          -5.8905  -20.0583   22.9151 H       1  UNL1        0.1239
     13 C          -3.9670  -19.6319   22.3747 C.3     1  UNL1        0.0959
     14 C          -3.0047  -18.6653   21.7502 C.ar    1  UNL1       -0.0064
     15 C          -2.1584  -19.0945   20.5885 C.ar    1  UNL1       -0.0029
     16 C          -1.1961  -18.1279   19.9641 C.ar    1  UNL1       -0.0003
     17 C          -1.0802  -16.7322   20.5014 C.ar    1  UNL1       -0.0000
     18 C          -1.9266  -16.3031   21.6631 C.ar    1  UNL1       -0.0003
     19 C          -2.8888  -17.2696   22.2875 C.ar    1  UNL1       -0.0029
@<TRIPOS>UNITY_ATOM_ATTR
8 1
charge -1
@<TRIPOS>BOND
     1     8     9   ar
     2     9    10   ar
     3     9     2    1
     4     2     3   ar
     5     3     4   ar
     6     4     5   ar
     7     5     1    1
     8     1    11    1
     9    11    13    1
    10    13    14    1
    11    14    15   ar
    12    15    16   ar
    13    16    17   ar
    14    17    18   ar
    15    18    19   ar
    16     5     6   ar
    17     6     7   ar
    18     7     2   ar
    19    19    14   ar
    20    11    12    1
@<TRIPOS>MOLECULE
*****
 19 20 0 0 0
SMALL
GASTEIGER

@<TRIPOS>ATOM
      1 C          -7.1554  -19.6449   19.9292 C.3     1  UNL1        0.0959
      2 C         -10.7972  -18.7450   22.4147 C.ar    1  UNL1        0.0140
      3 C         -10.9475  -19.0992   20.9649 C.ar    1  UNL1        0.0009
      4 C          -9.7335  -19.3992   20.1364 C.ar    1  UNL1       -0.0029
      5 C          -8.3694  -19.3449   20.7577 C.ar    1  UNL1       -0.0064
      6 C          -8.2191  -18.9908   22.2075 C.ar    1  UNL1       -0.0029
      7 C          -9.4331  -18.6908   23.0360 C.ar    1  UNL1        0.0009
      8 O         -13.2223  -17.8325   22.6046 O.co2   1  UNL1       -0.5446
      9 C         -12.0112  -18.4451   23.2432 C.2     1  UNL1        0.0729
     10 O         -12.0139  -18.7577   24.7102 O.co2   1  UNL1       -0.5446
     11 N          -6.1800  -20.6916   20.3795 N.3     1  UNL1       -0.2900
     12 H          -6.4229  -21.5515   19.8878 H       1  UNL1        0.1239
     13 C          -4.7083  -20.4802   20.1811 C.3     1  UNL1        0.0959
     14 C          -3.9983  -19.3942   20.9339 C.ar    1  UNL1       -0.0064
     15 C          -2.9264  -18.5910   20.2587 C.ar    1  UNL1       -0.0029
     16 C          -2.2164  -17.5050   21.0115 C.ar    1  UNL1       -0.0003
     17 C          -2.5784  -17.2223   22.4395 C.ar    1  UNL1       -0.0000
     18 C          -3.6504  -18.0255   23.1146 C.ar    1  UNL1       -0.0003
     19 C          -4.3603  -19.1114   22.3618 C.ar    1  UNL1       -0.0029
@<TRIPOS>UNITY_ATOM_ATTR
8 1
charge -1
@<TRIPOS>BOND
     1     8     9   ar
     2     9    10   ar
     3     9     2    1
     4     2     3   ar
     5     3     4   ar
     6     4     5   ar
     7     5     1    1
     8     1    11    1
     9    11    13    1
    10    13    14    1
    11    14    15   ar
    12    15    16   ar
    13    16    17   ar
    14    17    18   ar
    15    18    19   ar
    16     5     6   ar
    17     6     7   ar
    18     7     2   ar
    19    19    14   ar
    20    11    12    1
@<TRIPOS>MOLECULE
*****
 19 20 0 0 0
SMALL
GASTEIGER

@<TRIPOS>ATOM
      1 C          -6.6173  -18.9644   22.2736 C.3     1  UNL1        0.0959
      2 C         -10.9854  -17.9007   22.0760 C.ar    1  UNL1        0.0140
      3 C          -9.9460  -16.8235   21.9800 C.ar    1  UNL1        0.0009
      4 C          -8.4900  -17.1780   22.0458 C.ar    1  UNL1       -0.0029
      5 C          -8.0734  -18.6098   22.2077 C.ar    1  UNL1       -0.0064
      6 C          -9.1127  -19.6871   22.3038 C.ar    1  UNL1       -0.0029
      7 C         -10.5687  -19.3325   22.2379 C.ar    1  UNL1        0.0009
      8 O         -13.3341  -17.8215   23.1837 O.co2   1  UNL1       -0.5446
      9 C         -12.4414  -17.5462   22.0102 C.2     1  UNL1        0.0729
     10 O         -13.0046  -16.9163   20.7709 O.co2   1  UNL1       -0.5446
     11 N          -6.1468  -20.2980   21.7735 N.3     1  UNL1       -0.2900
     12 H          -6.9816  -20.8401   21.5505 H       1  UNL1        0.1239
     13 C          -5.2476  -20.3750   20.5754 C.3     1  UNL1        0.0959
     14 C          -3.9893  -19.5599   20.5284 C.ar    1  UNL1       -0.0064
     15 C          -3.0490  -19.5639   21.6970 C.ar    1  UNL1       -0.0029
     16 C          -1.7906  -18.7487   21.6500 C.ar    1  UNL1       -0.0003
     17 C          -1.4726  -17.9296   20.4344 C.ar    1  UNL1       -0.0000
     18 C          -2.4130  -17.9256   19.2657 C.ar    1  UNL1       -0.0003
     19 C          -3.6713  -18.7407   19.3127 C.ar    1  UNL1       -0.0029
@<TRIPOS>UNITY_ATOM_ATTR
8 1
charge -1
@<TRIPOS>BOND
     1     8     9   ar
     2     9    10   ar
     3     9     2    1
     4     2     3   ar
     5     3     4   ar
     6     4     5   ar
     7     5     1    1
     8     1    11    1
     9    11    13    1
    10    13    14    1
    11    14    15   ar
    12    15    16   ar
    13    16    17   ar
    14    17    18   ar
    15    18    19   ar
    16     5     6   ar
    17     6     7   ar
    18     7     2   ar
    19    19    14   ar
    20    11    12    1
@<TRIPOS>MOLECULE
*****
 19 20 0 0 0
SMALL
GASTEIGER

@<TRIPOS>ATOM
      1 C          -6.6763  -15.5108   24.1371 C.3     1  UNL1        0.0959
      2 C         -10.0630  -18.0169   22.5563 C.ar    1  UNL1        0.0140
      3 C          -8.6988  -18.1268   21.9426 C.ar    1  UNL1        0.0009
      4 C          -7.5698  -17.2914   22.4696 C.ar    1  UNL1       -0.0029
      5 C          -7.8052  -16.3462   23.6102 C.ar    1  UNL1       -0.0064
      6 C          -9.1695  -16.2363   24.2238 C.ar    1  UNL1       -0.0029
      7 C         -10.2984  -17.0717   23.6969 C.ar    1  UNL1        0.0009
      8 O         -12.3773  -18.1931   21.3888 O.co2   1  UNL1       -0.5446
      9 C         -11.1920  -18.8523   22.0293 C.2     1  UNL1        0.0729
     10 O         -11.1355  -20.3469   22.1429 O.co2   1  UNL1       -0.5446
     11 N          -5.3127  -15.6185   23.5216 N.3     1  UNL1       -0.2900
     12 H          -4.8382  -14.7335   23.7003 H       1  UNL1        0.1239
     13 C          -4.3771  -16.7071   23.9572 C.3     1  UNL1        0.0959
     14 C          -3.6437  -17.5204   22.9321 C.ar    1  UNL1       -0.0064
     15 C          -2.4693  -16.9319   22.2080 C.ar    1  UNL1       -0.0029
     16 C          -1.7359  -17.7452   21.1829 C.ar    1  UNL1       -0.0003
     17 C          -2.1769  -19.1470   20.8820 C.ar    1  UNL1       -0.0000
     18 C          -3.3514  -19.7355   21.6062 C.ar    1  UNL1       -0.0003
     19 C          -4.0847  -18.9222   22.6312 C.ar    1  UNL1       -0.0029
@<TRIPOS>UNITY_ATOM_ATTR
8 1
charge -1
@<TRIPOS>BOND
     1     8     9   ar
     2     9    10   ar
     3     9     2    1
     4     2     3   ar
     5     3     4   ar
     6     4     5   ar
     7     5     1    1
     8     1    11    1
     9    11    13    1
    10    13    14    1
    11    14    15   ar
    12    15    16   ar
    13    16    17   ar
    14    17    18   ar
    15    18    19   ar
    16     5     6   ar
    17     6     7   ar
    18     7     2   ar
    19    19    14   ar
    20    11    12    1
