@<TRIPOS>MOLECULE
*****
 40 42 0 0 0
SMALL
GASTEIGER

@<TRIPOS>ATOM
      1 N           4.3377   -1.3149   19.7035 N.pl3   1  UNL1       -0.1898
      2 C           5.6176   -1.3702   20.4839 C.ar    1  UNL1        0.0793
      3 C           6.7932   -0.5425   20.0562 C.ar    1  UNL1        0.0170
      4 C           8.0730   -0.5980   20.8366 C.ar    1  UNL1        0.0014
      5 C           8.1772   -1.4811   22.0445 C.ar    1  UNL1        0.0009
      6 C           7.0017   -2.3088   22.4722 C.ar    1  UNL1        0.0118
      7 C           5.7219   -2.2534   21.6918 C.ar    1  UNL1        0.0725
      8 CL          4.5462   -3.0811   22.1195 Cl      1  UNL1       -0.0809
      9 C           7.1059   -3.1919   23.6802 C.ar    1  UNL1        0.0011
     10 C           6.7720   -2.6483   25.0377 C.ar    1  UNL1        0.0031
     11 C           6.8763   -3.5315   26.2457 C.ar    1  UNL1        0.0372
     12 C           7.3145   -4.9582   26.0961 C.ar    1  UNL1        0.1468
     13 C           7.6484   -5.5018   24.7386 C.ar    1  UNL1        0.0372
     14 C           7.5441   -4.6187   23.5306 C.ar    1  UNL1        0.0031
     15 O           7.4187   -5.8413   27.3041 O.3     1  UNL1       -0.4045
     16 C           6.9165   -5.3578   28.6322 C.3     1  UNL1        0.5753
     17 F           6.4142   -4.8743   29.9604 F       1  UNL1       -0.1328
     18 F           8.3200   -5.0214   29.0405 F       1  UNL1       -0.1328
     19 F           5.5129   -5.6943   28.2239 F       1  UNL1       -0.1328
     20 S           3.2092   -0.4461   20.1744 S.O2    1  UNL1        0.0763
     21 O           4.1441    0.7241   20.2559 O.2     1  UNL1       -0.1497
     22 O           2.2744   -1.6164   20.0930 O.2     1  UNL1       -0.1497
     23 C           2.0807    0.4226   20.6454 C.ar    1  UNL1        0.1213
     24 C           1.1999    1.1142   19.6475 C.ar    1  UNL1        0.0230
     25 C           0.0713    1.9830   20.1185 C.ar    1  UNL1        0.0379
     26 C          -0.1763    2.1601   21.5872 C.ar    1  UNL1        0.1347
     27 C           0.7046    1.4685   22.5851 C.ar    1  UNL1        0.0095
     28 C           0.4570    1.6456   24.0539 C.3     1  UNL1        0.0339
     29 C           1.8331    0.5997   22.1142 C.ar    1  UNL1       -0.0040
     30 C           2.7140   -0.0919   23.1120 C.3     1  UNL1        0.0322
     31 O          -1.3048    3.0288   22.0581 O.3     1  UNL1       -0.4739
     32 C          -2.0642    3.8700   21.0755 C.3     1  UNL1        0.2020
     33 C          -1.5218    5.2030   20.6525 C.3     1  UNL1        0.0536
     34 C          -3.3661    3.3781   20.5158 C.2     1  UNL1        0.0900
     35 O          -3.6927    3.6016   19.0689 O.co2   1  UNL1       -0.5455
     36 O          -4.3414    2.6628   21.4029 O.co2   1  UNL1       -0.5455
     37 C           4.1864   -2.1282   18.4523 C.3     1  UNL1        0.1159
     38 C           5.0961   -3.2941   18.2010 C.3     1  UNL1        0.0234
     39 C           3.3911   -4.8880   19.3420 C.3     1  UNL1        0.0001
     40 C           4.7417   -4.6505   18.7343 C.3     1  UNL1        0.0018
@<TRIPOS>UNITY_ATOM_ATTR
35 1
charge -1
@<TRIPOS>BOND
     1    39    40    1
     2    40    38    1
     3    38    37    1
     4    37     1    1
     5     1     2    1
     6     2     3   ar
     7     3     4   ar
     8     4     5   ar
     9     5     6   ar
    10     6     9    1
    11     9    10   ar
    12    10    11   ar
    13    11    12   ar
    14    12    15    1
    15    15    16    1
    16    16    17    1
    17    16    18    1
    18    16    19    1
    19    12    13   ar
    20    13    14   ar
    21     6     7   ar
    22     7     8    1
    23     1    20    1
    24    20    21    2
    25    20    22    2
    26    20    23    1
    27    23    24   ar
    28    24    25   ar
    29    25    26   ar
    30    26    31    1
    31    31    32    1
    32    32    33    1
    33    32    34    1
    34    34    35   ar
    35    34    36   ar
    36    26    27   ar
    37    27    28    1
    38    27    29   ar
    39    29    30    1
    40     7     2   ar
    41    29    23   ar
    42    14     9   ar
@<TRIPOS>MOLECULE
*****
 40 42 0 0 0
SMALL
GASTEIGER

@<TRIPOS>ATOM
      1 N           1.1941    2.4090   25.4806 N.pl3   1  UNL1       -0.1898
      2 C           0.7347    1.7939   26.7693 C.ar    1  UNL1        0.0793
      3 C          -0.7225    1.5147   26.9896 C.ar    1  UNL1        0.0170
      4 C          -1.1819    0.8996   28.2782 C.ar    1  UNL1        0.0014
      5 C          -0.1840    0.5636   29.3465 C.ar    1  UNL1        0.0009
      6 C           1.2732    0.8428   29.1263 C.ar    1  UNL1        0.0118
      7 C           1.7325    1.4579   27.8376 C.ar    1  UNL1        0.0725
      8 CL          3.1898    1.7371   27.6173 Cl      1  UNL1       -0.0809
      9 C           2.2711    0.5068   30.1946 C.ar    1  UNL1        0.0011
     10 C           2.4147    1.3969   31.3933 C.ar    1  UNL1        0.0031
     11 C           3.4126    1.0609   32.4617 C.ar    1  UNL1        0.0372
     12 C           4.2668   -0.1651   32.3313 C.ar    1  UNL1        0.1468
     13 C           4.1231   -1.0552   31.1326 C.ar    1  UNL1        0.0372
     14 C           3.1253   -0.7193   30.0642 C.ar    1  UNL1        0.0031
     15 O           5.2647   -0.5011   33.3997 O.3     1  UNL1       -0.4045
     16 C           4.8131   -0.6767   34.8192 C.3     1  UNL1        0.5753
     17 F           4.3616   -0.8523   36.2389 F       1  UNL1       -0.1328
     18 F           3.9591   -1.8378   34.4040 F       1  UNL1       -0.1328
     19 F           5.6671    0.4844   35.2345 F       1  UNL1       -0.1328
     20 S           1.6163    1.5318   24.3394 S.O2    1  UNL1        0.0763
     21 O           2.8788    2.3287   24.1941 O.2     1  UNL1       -0.1497
     22 O           0.3538    0.7350   24.4848 O.2     1  UNL1       -0.1497
     23 C           2.0386    0.6547   23.1983 C.ar    1  UNL1        0.1213
     24 C           1.5462    0.9405   21.8105 C.ar    1  UNL1        0.0230
     25 C           1.9685    0.0633   20.6694 C.ar    1  UNL1        0.0379
     26 C           2.8831   -1.0997   20.9159 C.ar    1  UNL1        0.1347
     27 C           3.3755   -1.3856   22.3037 C.ar    1  UNL1        0.0095
     28 C           4.2901   -2.5486   22.5503 C.3     1  UNL1        0.0339
     29 C           2.9532   -0.5084   23.4449 C.ar    1  UNL1       -0.0040
     30 C           3.4456   -0.7943   24.8326 C.3     1  UNL1        0.0322
     31 O           3.3053   -1.9769   19.7748 O.3     1  UNL1       -0.4739
     32 C           4.5307   -1.6355   18.9799 C.3     1  UNL1        0.2020
     33 C           4.9405   -0.2023   18.8119 C.3     1  UNL1        0.0536
     34 C           5.3464   -2.7272   18.3531 C.2     1  UNL1        0.0900
     35 O           6.5697   -2.3855   17.5551 O.co2   1  UNL1       -0.5455
     36 O           4.9388   -4.1605   18.5243 O.co2   1  UNL1       -0.5455
     37 C           1.2312    3.9013   25.3331 C.3     1  UNL1        0.1159
     38 C           1.5072    4.7663   26.5272 C.3     1  UNL1        0.0234
     39 C           0.3267    4.7945   28.8413 C.3     1  UNL1        0.0001
     40 C           0.3767    5.2183   27.4033 C.3     1  UNL1        0.0018
@<TRIPOS>UNITY_ATOM_ATTR
35 1
charge -1
@<TRIPOS>BOND
     1    39    40    1
     2    40    38    1
     3    38    37    1
     4    37     1    1
     5     1     2    1
     6     2     3   ar
     7     3     4   ar
     8     4     5   ar
     9     5     6   ar
    10     6     9    1
    11     9    10   ar
    12    10    11   ar
    13    11    12   ar
    14    12    15    1
    15    15    16    1
    16    16    17    1
    17    16    18    1
    18    16    19    1
    19    12    13   ar
    20    13    14   ar
    21     6     7   ar
    22     7     8    1
    23     1    20    1
    24    20    21    2
    25    20    22    2
    26    20    23    1
    27    23    24   ar
    28    24    25   ar
    29    25    26   ar
    30    26    31    1
    31    31    32    1
    32    32    33    1
    33    32    34    1
    34    34    35   ar
    35    34    36   ar
    36    26    27   ar
    37    27    28    1
    38    27    29   ar
    39    29    30    1
    40     7     2   ar
    41    29    23   ar
    42    14     9   ar
@<TRIPOS>MOLECULE
*****
 40 42 0 0 0
SMALL
GASTEIGER

@<TRIPOS>ATOM
      1 N           7.9455   -2.4179   28.1554 N.pl3   1  UNL1       -0.1898
      2 C           8.0032   -3.4793   27.0971 C.ar    1  UNL1        0.0793
      3 C           8.7005   -4.7780   27.3746 C.ar    1  UNL1        0.0170
      4 C           8.7582   -5.8394   26.3163 C.ar    1  UNL1        0.0014
      5 C           8.1185   -5.6021   24.9804 C.ar    1  UNL1        0.0009
      6 C           7.4212   -4.3034   24.7029 C.ar    1  UNL1        0.0118
      7 C           7.3635   -3.2420   25.7612 C.ar    1  UNL1        0.0725
      8 CL          6.6662   -1.9432   25.4837 Cl      1  UNL1       -0.0809
      9 C           6.7815   -4.0660   23.3670 C.ar    1  UNL1        0.0011
     10 C           5.3402   -3.6586   23.2875 C.ar    1  UNL1        0.0031
     11 C           4.7005   -3.4213   21.9516 C.ar    1  UNL1        0.0372
     12 C           5.5022   -3.5913   20.6953 C.ar    1  UNL1        0.1468
     13 C           6.9436   -3.9988   20.7749 C.ar    1  UNL1        0.0372
     14 C           7.5832   -4.2361   22.1108 C.ar    1  UNL1        0.0031
     15 O           4.8625   -3.3540   19.3595 O.3     1  UNL1       -0.4045
     16 C           3.5954   -4.0701   18.9969 C.3     1  UNL1        0.5753
     17 F           2.3282   -4.7862   18.6342 F       1  UNL1       -0.1328
     18 F           4.3901   -5.2845   18.6180 F       1  UNL1       -0.1328
     19 F           2.8007   -2.8557   19.3757 F       1  UNL1       -0.1328
     20 S           6.6189   -1.9044   28.6311 S.O2    1  UNL1        0.0763
     21 O           7.0577   -0.5001   28.3390 O.2     1  UNL1       -0.1497
     22 O           6.1801   -3.3087   28.9232 O.2     1  UNL1       -0.1497
     23 C           5.2922   -1.3909   29.1068 C.ar    1  UNL1        0.1213
     24 C           4.1786   -1.1691   28.1267 C.ar    1  UNL1        0.0230
     25 C           2.8520   -0.6556   28.6024 C.ar    1  UNL1        0.0379
     26 C           2.6388   -0.3640   30.0582 C.ar    1  UNL1        0.1347
     27 C           3.7524   -0.5858   31.0384 C.ar    1  UNL1        0.0095
     28 C           3.5393   -0.2942   32.4943 C.3     1  UNL1        0.0339
     29 C           5.0791   -1.0993   30.5628 C.ar    1  UNL1       -0.0040
     30 C           6.1927   -1.3211   31.5429 C.3     1  UNL1        0.0322
     31 O           1.3122    0.1495   30.5339 O.3     1  UNL1       -0.4739
     32 C           0.5300    1.1067   29.6843 C.3     1  UNL1        0.2020
     33 C           0.9076    2.5580   29.6477 C.3     1  UNL1        0.0536
     34 C          -0.6297    0.6128   28.8712 C.2     1  UNL1        0.0900
     35 O          -0.7326    0.9691   27.4178 O.co2   1  UNL1       -0.5455
     36 O          -1.6865   -0.2376   29.5116 O.co2   1  UNL1       -0.5455
     37 C           9.2145   -1.8699   28.7381 C.3     1  UNL1        0.1159
     38 C           9.5356   -2.0992   30.1853 C.3     1  UNL1        0.0234
     39 C           9.0412   -3.7021   32.1692 C.3     1  UNL1        0.0001
     40 C           9.4876   -3.4866   30.7535 C.3     1  UNL1        0.0018
@<TRIPOS>UNITY_ATOM_ATTR
35 1
charge -1
@<TRIPOS>BOND
     1    39    40    1
     2    40    38    1
     3    38    37    1
     4    37     1    1
     5     1     2    1
     6     2     3   ar
     7     3     4   ar
     8     4     5   ar
     9     5     6   ar
    10     6     9    1
    11     9    10   ar
    12    10    11   ar
    13    11    12   ar
    14    12    15    1
    15    15    16    1
    16    16    17    1
    17    16    18    1
    18    16    19    1
    19    12    13   ar
    20    13    14   ar
    21     6     7   ar
    22     7     8    1
    23     1    20    1
    24    20    21    2
    25    20    22    2
    26    20    23    1
    27    23    24   ar
    28    24    25   ar
    29    25    26   ar
    30    26    31    1
    31    31    32    1
    32    32    33    1
    33    32    34    1
    34    34    35   ar
    35    34    36   ar
    36    26    27   ar
    37    27    28    1
    38    27    29   ar
    39    29    30    1
    40     7     2   ar
    41    29    23   ar
    42    14     9   ar
@<TRIPOS>MOLECULE
*****
 40 42 0 0 0
SMALL
GASTEIGER

@<TRIPOS>ATOM
      1 N           0.3689    3.4547   21.8310 N.pl3   1  UNL1       -0.1898
      2 C          -0.5636    3.3537   23.0016 C.ar    1  UNL1        0.0793
      3 C          -2.0091    3.7216   22.8430 C.ar    1  UNL1        0.0170
      4 C          -2.9415    3.6205   24.0137 C.ar    1  UNL1        0.0014
      5 C          -2.4284    3.1516   25.3429 C.ar    1  UNL1        0.0009
      6 C          -0.9829    2.7837   25.5015 C.ar    1  UNL1        0.0118
      7 C          -0.0505    2.8847   24.3309 C.ar    1  UNL1        0.0725
      8 CL          1.3951    2.5168   24.4894 Cl      1  UNL1       -0.0809
      9 C          -0.4698    2.3147   26.8307 C.ar    1  UNL1        0.0011
     10 C           0.1008    3.3021   27.8051 C.ar    1  UNL1        0.0031
     11 C           0.6139    2.8331   29.1343 C.ar    1  UNL1        0.0372
     12 C           0.5564    1.3769   29.4891 C.ar    1  UNL1        0.1468
     13 C          -0.0142    0.3895   28.5147 C.ar    1  UNL1        0.0372
     14 C          -0.5273    0.8585   27.1855 C.ar    1  UNL1        0.0031
     15 O           1.0695    0.9079   30.8184 O.3     1  UNL1       -0.4045
     16 C           2.4981    0.4734   30.9599 C.3     1  UNL1        0.5753
     17 F           3.9269    0.0388   31.1015 F       1  UNL1       -0.1328
     18 F           2.1149   -0.9188   30.5537 F       1  UNL1       -0.1328
     19 F           2.8813    1.8655   31.3661 F       1  UNL1       -0.1328
     20 S           1.0930    2.2356   21.3415 S.O2    1  UNL1        0.0763
     21 O          -0.2175    1.5266   21.1686 O.2     1  UNL1       -0.1497
     22 O           2.4035    2.9447   21.5145 O.2     1  UNL1       -0.1497
     23 C           1.8171    1.0166   20.8521 C.ar    1  UNL1        0.1213
     24 C           2.1766   -0.0782   21.8124 C.ar    1  UNL1        0.0230
     25 C           2.9007   -1.2973   21.3229 C.ar    1  UNL1        0.0379
     26 C           3.2653   -1.4215   19.8733 C.ar    1  UNL1        0.1347
     27 C           2.9058   -0.3267   18.9129 C.ar    1  UNL1        0.0095
     28 C           3.2704   -0.4510   17.4633 C.3     1  UNL1        0.0339
     29 C           2.1817    0.8924   19.4024 C.ar    1  UNL1       -0.0040
     30 C           1.8222    1.9872   18.4421 C.3     1  UNL1        0.0322
     31 O           3.9895   -2.6406   19.3839 O.3     1  UNL1       -0.4739
     32 C           5.4778   -2.7423   19.5404 C.3     1  UNL1        0.2020
     33 C           6.0674   -3.7844   20.4439 C.3     1  UNL1        0.0536
     34 C           6.3765   -1.8017   18.7936 C.2     1  UNL1        0.0900
     35 O           6.8039   -2.1263   17.3929 O.co2   1  UNL1       -0.5455
     36 O           6.8478   -0.5367   19.4474 O.co2   1  UNL1       -0.5455
     37 C           0.5772    4.7748   21.1498 C.3     1  UNL1        0.1159
     38 C           0.0955    4.9775   19.7437 C.3     1  UNL1        0.0234
     39 C          -2.4651    5.2280   19.3827 C.3     1  UNL1        0.0001
     40 C          -1.2181    4.3976   19.3100 C.3     1  UNL1        0.0018
@<TRIPOS>UNITY_ATOM_ATTR
35 1
charge -1
@<TRIPOS>BOND
     1    39    40    1
     2    40    38    1
     3    38    37    1
     4    37     1    1
     5     1     2    1
     6     2     3   ar
     7     3     4   ar
     8     4     5   ar
     9     5     6   ar
    10     6     9    1
    11     9    10   ar
    12    10    11   ar
    13    11    12   ar
    14    12    15    1
    15    15    16    1
    16    16    17    1
    17    16    18    1
    18    16    19    1
    19    12    13   ar
    20    13    14   ar
    21     6     7   ar
    22     7     8    1
    23     1    20    1
    24    20    21    2
    25    20    22    2
    26    20    23    1
    27    23    24   ar
    28    24    25   ar
    29    25    26   ar
    30    26    31    1
    31    31    32    1
    32    32    33    1
    33    32    34    1
    34    34    35   ar
    35    34    36   ar
    36    26    27   ar
    37    27    28    1
    38    27    29   ar
    39    29    30    1
    40     7     2   ar
    41    29    23   ar
    42    14     9   ar
@<TRIPOS>MOLECULE
*****
 40 42 0 0 0
SMALL
GASTEIGER

@<TRIPOS>ATOM
      1 N           3.0167    0.6418   27.3002 N.pl3   1  UNL1       -0.1898
      2 C           3.1431    1.2750   25.9462 C.ar    1  UNL1        0.0793
      3 C           3.1642    2.7692   25.8160 C.ar    1  UNL1        0.0170
      4 C           3.2906    3.4023   24.4621 C.ar    1  UNL1        0.0014
      5 C           3.3959    2.5413   23.2384 C.ar    1  UNL1        0.0009
      6 C           3.3748    1.0471   23.3686 C.ar    1  UNL1        0.0118
      7 C           3.2484    0.4140   24.7225 C.ar    1  UNL1        0.0725
      8 CL          3.2273   -1.0803   24.8527 Cl      1  UNL1       -0.0809
      9 C           3.4801    0.1861   22.1448 C.ar    1  UNL1        0.0011
     10 C           4.8280   -0.2232   21.6295 C.ar    1  UNL1        0.0031
     11 C           4.9333   -1.0843   20.4057 C.ar    1  UNL1        0.0372
     12 C           3.6907   -1.5360   19.6973 C.ar    1  UNL1        0.1468
     13 C           2.3428   -1.1267   20.2127 C.ar    1  UNL1        0.0372
     14 C           2.2375   -0.2657   21.4364 C.ar    1  UNL1        0.0031
     15 O           3.7960   -2.3970   18.4736 O.3     1  UNL1       -0.4045
     16 C           4.3298   -3.7945   18.5835 C.3     1  UNL1        0.5753
     17 F           4.8637   -5.1920   18.6933 F       1  UNL1       -0.1328
     18 F           5.6362   -3.3411   18.0023 F       1  UNL1       -0.1328
     19 F           3.0235   -4.2478   19.1646 F       1  UNL1       -0.1328
     20 S           4.0759   -0.3012   27.7890 S.O2    1  UNL1        0.0763
     21 O           5.1030    0.7839   27.6566 O.2     1  UNL1       -0.1497
     22 O           3.0488   -1.3863   27.9213 O.2     1  UNL1       -0.1497
     23 C           5.1351   -1.2441   28.2777 C.ar    1  UNL1        0.1213
     24 C           5.9746   -2.0042   27.2941 C.ar    1  UNL1        0.0230
     25 C           7.0338   -2.9471   27.7828 C.ar    1  UNL1        0.0379
     26 C           7.2535   -3.1301   29.2553 C.ar    1  UNL1        0.1347
     27 C           6.4141   -2.3700   30.2391 C.ar    1  UNL1        0.0095
     28 C           6.6338   -2.5530   31.7115 C.3     1  UNL1        0.0339
     29 C           5.3549   -1.4271   29.7503 C.ar    1  UNL1       -0.0040
     30 C           4.5154   -0.6671   30.7340 C.3     1  UNL1        0.0322
     31 O           8.3127   -4.0730   29.7441 O.3     1  UNL1       -0.4739
     32 C           8.0181   -5.5396   29.8549 C.3     1  UNL1        0.2020
     33 C           7.7807   -6.3526   28.6169 C.3     1  UNL1        0.0536
     34 C           7.9608   -6.1932   31.2039 C.2     1  UNL1        0.0900
     35 O           6.6850   -6.1750   31.9925 O.co2   1  UNL1       -0.5455
     36 O           9.1793   -6.8650   31.7641 O.co2   1  UNL1       -0.5455
     37 C           1.8312    0.9515   28.1653 C.3     1  UNL1        0.1159
     38 C           0.4426    0.7440   27.6371 C.3     1  UNL1        0.0234
     39 C          -0.4693    1.8265   25.4585 C.3     1  UNL1        0.0001
     40 C          -0.2721    1.8666   26.9449 C.3     1  UNL1        0.0018
@<TRIPOS>UNITY_ATOM_ATTR
35 1
charge -1
@<TRIPOS>BOND
     1    39    40    1
     2    40    38    1
     3    38    37    1
     4    37     1    1
     5     1     2    1
     6     2     3   ar
     7     3     4   ar
     8     4     5   ar
     9     5     6   ar
    10     6     9    1
    11     9    10   ar
    12    10    11   ar
    13    11    12   ar
    14    12    15    1
    15    15    16    1
    16    16    17    1
    17    16    18    1
    18    16    19    1
    19    12    13   ar
    20    13    14   ar
    21     6     7   ar
    22     7     8    1
    23     1    20    1
    24    20    21    2
    25    20    22    2
    26    20    23    1
    27    23    24   ar
    28    24    25   ar
    29    25    26   ar
    30    26    31    1
    31    31    32    1
    32    32    33    1
    33    32    34    1
    34    34    35   ar
    35    34    36   ar
    36    26    27   ar
    37    27    28    1
    38    27    29   ar
    39    29    30    1
    40     7     2   ar
    41    29    23   ar
    42    14     9   ar
@<TRIPOS>MOLECULE
*****
 40 42 0 0 0
SMALL
GASTEIGER

@<TRIPOS>ATOM
      1 N           1.1111    2.2834   25.7003 N.pl3   1  UNL1       -0.1898
      2 C           0.5417    3.6633   25.5527 C.ar    1  UNL1        0.0793
      3 C           1.4237    4.8624   25.7382 C.ar    1  UNL1        0.0170
      4 C           0.8543    6.2422   25.5907 C.ar    1  UNL1        0.0014
      5 C          -0.5971    6.4230   25.2576 C.ar    1  UNL1        0.0009
      6 C          -1.4790    5.2239   25.0721 C.ar    1  UNL1        0.0118
      7 C          -0.9096    3.8441   25.2197 C.ar    1  UNL1        0.0725
      8 CL         -1.7916    2.6450   25.0342 Cl      1  UNL1       -0.0809
      9 C          -2.9304    5.4047   24.7391 C.ar    1  UNL1        0.0011
     10 C          -3.9707    5.2449   25.8078 C.ar    1  UNL1        0.0031
     11 C          -5.4220    5.4256   25.4748 C.ar    1  UNL1        0.0372
     12 C          -5.8331    5.7663   24.0730 C.ar    1  UNL1        0.1468
     13 C          -4.7928    5.9262   23.0043 C.ar    1  UNL1        0.0372
     14 C          -3.3414    5.7454   23.3373 C.ar    1  UNL1        0.0031
     15 O          -7.2844    5.9471   23.7400 O.3     1  UNL1       -0.4045
     16 C          -8.2293    4.7873   23.8500 C.3     1  UNL1        0.5753
     17 F          -9.1742    3.6275   23.9601 F       1  UNL1       -0.1328
     18 F          -9.0423    5.5453   24.8571 F       1  UNL1       -0.1328
     19 F          -7.4162    4.0293   22.8429 F       1  UNL1       -0.1328
     20 S           1.4737    1.4875   24.4817 S.O2    1  UNL1        0.0763
     21 O           2.5932    2.4426   24.1910 O.2     1  UNL1       -0.1497
     22 O           0.3543    0.5324   24.7724 O.2     1  UNL1       -0.1497
     23 C           1.8364    0.6915   23.2631 C.ar    1  UNL1        0.1213
     24 C           2.8823   -0.3800   23.3510 C.ar    1  UNL1        0.0230
     25 C           3.2449   -1.1759   22.1324 C.ar    1  UNL1        0.0379
     26 C           2.5616   -0.9003   20.8259 C.ar    1  UNL1        0.1347
     27 C           1.5156    0.1713   20.7379 C.ar    1  UNL1        0.0095
     28 C           0.8323    0.4469   19.4314 C.3     1  UNL1        0.0339
     29 C           1.1530    0.9672   21.9565 C.ar    1  UNL1       -0.0040
     30 C           0.1071    2.0387   21.8686 C.3     1  UNL1        0.0322
     31 O           2.9242   -1.6963   19.6073 O.3     1  UNL1       -0.4739
     32 C           4.1930   -1.3963   18.8657 C.3     1  UNL1        0.2020
     33 C           5.4913   -1.9857   19.3316 C.3     1  UNL1        0.0536
     34 C           4.1637   -0.5069   17.6581 C.2     1  UNL1        0.0900
     35 O           3.8197   -1.0778   16.3143 O.co2   1  UNL1       -0.5455
     36 O           4.4782    0.9534   17.7944 O.co2   1  UNL1       -0.5455
     37 C           1.3179    1.6995   27.0664 C.3     1  UNL1        0.1159
     38 C           0.2857    1.9071   28.1349 C.3     1  UNL1        0.0234
     39 C          -0.9476   -0.3307   28.6045 C.3     1  UNL1        0.0001
     40 C          -0.9734    1.0919   28.1299 C.3     1  UNL1        0.0018
@<TRIPOS>UNITY_ATOM_ATTR
35 1
charge -1
@<TRIPOS>BOND
     1    39    40    1
     2    40    38    1
     3    38    37    1
     4    37     1    1
     5     1     2    1
     6     2     3   ar
     7     3     4   ar
     8     4     5   ar
     9     5     6   ar
    10     6     9    1
    11     9    10   ar
    12    10    11   ar
    13    11    12   ar
    14    12    15    1
    15    15    16    1
    16    16    17    1
    17    16    18    1
    18    16    19    1
    19    12    13   ar
    20    13    14   ar
    21     6     7   ar
    22     7     8    1
    23     1    20    1
    24    20    21    2
    25    20    22    2
    26    20    23    1
    27    23    24   ar
    28    24    25   ar
    29    25    26   ar
    30    26    31    1
    31    31    32    1
    32    32    33    1
    33    32    34    1
    34    34    35   ar
    35    34    36   ar
    36    26    27   ar
    37    27    28    1
    38    27    29   ar
    39    29    30    1
    40     7     2   ar
    41    29    23   ar
    42    14     9   ar
@<TRIPOS>MOLECULE
*****
 40 42 0 0 0
SMALL
GASTEIGER

@<TRIPOS>ATOM
      1 N           1.7949    2.2720   25.0488 N.pl3   1  UNL1       -0.1898
      2 C           1.0589    1.8784   26.2952 C.ar    1  UNL1        0.0793
      3 C          -0.4402    1.8293   26.2970 C.ar    1  UNL1        0.0170
      4 C          -1.1762    1.4358   27.5434 C.ar    1  UNL1        0.0014
      5 C          -0.4129    1.0914   28.7879 C.ar    1  UNL1        0.0009
      6 C           1.0862    1.1404   28.7861 C.ar    1  UNL1        0.0118
      7 C           1.8222    1.5340   27.5397 C.ar    1  UNL1        0.0725
      8 CL          3.3214    1.5831   27.5378 Cl      1  UNL1       -0.0809
      9 C           1.8495    0.7960   30.0306 C.ar    1  UNL1        0.0011
     10 C           1.9157    1.7752   31.1649 C.ar    1  UNL1        0.0031
     11 C           2.6790    1.4307   32.4095 C.ar    1  UNL1        0.0372
     12 C           3.3759    0.1071   32.5196 C.ar    1  UNL1        0.1468
     13 C           3.3097   -0.8721   31.3853 C.ar    1  UNL1        0.0372
     14 C           2.5464   -0.5276   30.1408 C.ar    1  UNL1        0.0031
     15 O           4.1392   -0.2374   33.7642 O.3     1  UNL1       -0.4045
     16 C           5.4785   -0.9049   33.6620 C.3     1  UNL1        0.5753
     17 F           6.8180   -1.5724   33.5598 F       1  UNL1       -0.1328
     18 F           4.8583   -2.2107   34.0622 F       1  UNL1       -0.1328
     19 F           6.0988    0.4009   33.2617 F       1  UNL1       -0.1328
     20 S           2.4121    1.2181   24.1779 S.O2    1  UNL1        0.0763
     21 O           1.1045    0.4841   24.1394 O.2     1  UNL1       -0.1497
     22 O           3.7197    1.9520   24.2164 O.2     1  UNL1       -0.1497
     23 C           3.0293    0.1642   23.3070 C.ar    1  UNL1        0.1213
     24 C           2.9178    0.2648   21.8145 C.ar    1  UNL1        0.0230
     25 C           3.5350   -0.7891   20.9436 C.ar    1  UNL1        0.0379
     26 C           4.2636   -1.9435   21.5652 C.ar    1  UNL1        0.1347
     27 C           4.3751   -2.0441   23.0577 C.ar    1  UNL1        0.0095
     28 C           5.1037   -3.1986   23.6792 C.3     1  UNL1        0.0339
     29 C           3.7579   -0.9903   23.9286 C.ar    1  UNL1       -0.0040
     30 C           3.8693   -1.0908   25.4210 C.3     1  UNL1        0.0322
     31 O           4.8807   -2.9974   20.6943 O.3     1  UNL1       -0.4739
     32 C           4.3373   -3.2463   19.3186 C.3     1  UNL1        0.2020
     33 C           3.2918   -4.3004   19.1045 C.3     1  UNL1        0.0536
     34 C           4.8393   -2.4410   18.1568 C.2     1  UNL1        0.0900
     35 O           6.2570   -2.5974   17.6927 O.co2   1  UNL1       -0.5455
     36 O           3.9235   -1.4794   17.4593 O.co2   1  UNL1       -0.5455
     37 C           1.9137    3.7193   24.6733 C.3     1  UNL1        0.1159
     38 C           1.1430    4.2565   23.5039 C.3     1  UNL1        0.0234
     39 C          -0.4237    2.8288   22.0017 C.3     1  UNL1        0.0001
     40 C          -0.2217    3.7170   23.1934 C.3     1  UNL1        0.0018
@<TRIPOS>UNITY_ATOM_ATTR
35 1
charge -1
@<TRIPOS>BOND
     1    39    40    1
     2    40    38    1
     3    38    37    1
     4    37     1    1
     5     1     2    1
     6     2     3   ar
     7     3     4   ar
     8     4     5   ar
     9     5     6   ar
    10     6     9    1
    11     9    10   ar
    12    10    11   ar
    13    11    12   ar
    14    12    15    1
    15    15    16    1
    16    16    17    1
    17    16    18    1
    18    16    19    1
    19    12    13   ar
    20    13    14   ar
    21     6     7   ar
    22     7     8    1
    23     1    20    1
    24    20    21    2
    25    20    22    2
    26    20    23    1
    27    23    24   ar
    28    24    25   ar
    29    25    26   ar
    30    26    31    1
    31    31    32    1
    32    32    33    1
    33    32    34    1
    34    34    35   ar
    35    34    36   ar
    36    26    27   ar
    37    27    28    1
    38    27    29   ar
    39    29    30    1
    40     7     2   ar
    41    29    23   ar
    42    14     9   ar
@<TRIPOS>MOLECULE
*****
 40 42 0 0 0
SMALL
GASTEIGER

@<TRIPOS>ATOM
      1 N           2.3912    2.3163   29.1781 N.pl3   1  UNL1       -0.1898
      2 C           1.5337    1.9993   27.9889 C.ar    1  UNL1        0.0793
      3 C           0.0411    2.1082   28.0901 C.ar    1  UNL1        0.0170
      4 C          -0.8163    1.7912   26.9009 C.ar    1  UNL1        0.0014
      5 C          -0.1811    1.3653   25.6105 C.ar    1  UNL1        0.0009
      6 C           1.3114    1.2564   25.5093 C.ar    1  UNL1        0.0118
      7 C           2.1689    1.5733   26.6985 C.ar    1  UNL1        0.0725
      8 CL          3.6615    1.4644   26.5973 Cl      1  UNL1       -0.0809
      9 C           1.9466    0.8304   24.2188 C.ar    1  UNL1        0.0011
     10 C           1.8471    1.7098   23.0078 C.ar    1  UNL1        0.0031
     11 C           2.4823    1.2839   21.7174 C.ar    1  UNL1        0.0372
     12 C           3.2169   -0.0214   21.6380 C.ar    1  UNL1        0.1468
     13 C           3.3164   -0.9009   22.8491 C.ar    1  UNL1        0.0372
     14 C           2.6812   -0.4749   24.1395 C.ar    1  UNL1        0.0031
     15 O           3.8520   -0.4474   20.3476 O.3     1  UNL1       -0.4045
     16 C           3.5751   -1.8120   19.7899 C.3     1  UNL1        0.5753
     17 F           3.2981   -3.1767   19.2321 F       1  UNL1       -0.1328
     18 F           2.1011   -1.5458   19.8707 F       1  UNL1       -0.1328
     19 F           5.0490   -2.0781   19.7091 F       1  UNL1       -0.1328
     20 S           3.1636    1.2249   29.8581 S.O2    1  UNL1        0.0763
     21 O           1.9474    0.3473   29.8311 O.2     1  UNL1       -0.1497
     22 O           4.3798    2.1025   29.8850 O.2     1  UNL1       -0.1497
     23 C           3.9361    0.1335   30.5380 C.ar    1  UNL1        0.1213
     24 C           4.7935   -0.7942   29.7293 C.ar    1  UNL1        0.0230
     25 C           5.5659   -1.8856   30.4093 C.ar    1  UNL1        0.0379
     26 C           5.4809   -2.0492   31.8978 C.ar    1  UNL1        0.1347
     27 C           4.6233   -1.1215   32.7066 C.ar    1  UNL1        0.0095
     28 C           4.5383   -1.2851   34.1952 C.3     1  UNL1        0.0339
     29 C           3.8509   -0.0301   32.0267 C.ar    1  UNL1       -0.0040
     30 C           2.9934    0.8976   32.8353 C.3     1  UNL1        0.0322
     31 O           6.2533   -3.1406   32.5778 O.3     1  UNL1       -0.4739
     32 C           7.3881   -3.8131   31.8637 C.3     1  UNL1        0.2020
     33 C           8.7244   -3.1375   31.7755 C.3     1  UNL1        0.0536
     34 C           7.1866   -5.1614   31.2378 C.2     1  UNL1        0.0900
     35 O           6.6344   -6.2922   32.0541 O.co2   1  UNL1       -0.5455
     36 O           7.5372   -5.3787   29.7957 O.co2   1  UNL1       -0.5455
     37 C           2.4763    3.7246   29.6874 C.3     1  UNL1        0.1159
     38 C           1.2872    4.3561   30.3487 C.3     1  UNL1        0.0234
     39 C           0.8736    3.9005   32.8728 C.3     1  UNL1        0.0001
     40 C           0.5551    3.6232   31.4335 C.3     1  UNL1        0.0018
@<TRIPOS>UNITY_ATOM_ATTR
35 1
charge -1
@<TRIPOS>BOND
     1    39    40    1
     2    40    38    1
     3    38    37    1
     4    37     1    1
     5     1     2    1
     6     2     3   ar
     7     3     4   ar
     8     4     5   ar
     9     5     6   ar
    10     6     9    1
    11     9    10   ar
    12    10    11   ar
    13    11    12   ar
    14    12    15    1
    15    15    16    1
    16    16    17    1
    17    16    18    1
    18    16    19    1
    19    12    13   ar
    20    13    14   ar
    21     6     7   ar
    22     7     8    1
    23     1    20    1
    24    20    21    2
    25    20    22    2
    26    20    23    1
    27    23    24   ar
    28    24    25   ar
    29    25    26   ar
    30    26    31    1
    31    31    32    1
    32    32    33    1
    33    32    34    1
    34    34    35   ar
    35    34    36   ar
    36    26    27   ar
    37    27    28    1
    38    27    29   ar
    39    29    30    1
    40     7     2   ar
    41    29    23   ar
    42    14     9   ar
@<TRIPOS>MOLECULE
*****
 40 42 0 0 0
SMALL
GASTEIGER

@<TRIPOS>ATOM
      1 N           4.1927    0.1234   29.4836 N.pl3   1  UNL1       -0.1898
      2 C           4.7927    0.9532   30.5797 C.ar    1  UNL1        0.0793
      3 C           5.8742    1.9436   30.2644 C.ar    1  UNL1        0.0170
      4 C           6.4740    2.7734   31.3605 C.ar    1  UNL1        0.0014
      5 C           5.9925    2.6127   32.7720 C.ar    1  UNL1        0.0009
      6 C           4.9110    1.6223   33.0873 C.ar    1  UNL1        0.0118
      7 C           4.3111    0.7926   31.9912 C.ar    1  UNL1        0.0725
      8 CL          3.2296   -0.1979   32.3065 Cl      1  UNL1       -0.0809
      9 C           4.4295    1.4617   34.4988 C.ar    1  UNL1        0.0011
     10 C           5.0535    0.4303   35.3914 C.ar    1  UNL1        0.0031
     11 C           4.5720    0.2697   36.8029 C.ar    1  UNL1        0.0372
     12 C           3.4663    1.1404   37.3218 C.ar    1  UNL1        0.1468
     13 C           2.8423    2.1718   36.4292 C.ar    1  UNL1        0.0372
     14 C           3.3238    2.3324   35.0177 C.ar    1  UNL1        0.0031
     15 O           2.9848    0.9798   38.7333 O.3     1  UNL1       -0.4045
     16 C           1.5968    1.4097   39.1057 C.3     1  UNL1        0.5753
     17 F           0.2089    1.8398   39.4782 F       1  UNL1       -0.1328
     18 F           1.0920    0.0262   38.8216 F       1  UNL1       -0.1328
     19 F           2.1017    2.7933   39.3899 F       1  UNL1       -0.1328
     20 S           2.9770    0.6116   28.7531 S.O2    1  UNL1        0.0763
     21 O           2.3780   -0.7614   28.8324 O.2     1  UNL1       -0.1497
     22 O           3.5760    1.9845   28.6737 O.2     1  UNL1       -0.1497
     23 C           1.7612    1.0998   28.0226 C.ar    1  UNL1        0.1213
     24 C           0.6034    1.6673   28.7889 C.ar    1  UNL1        0.0230
     25 C          -0.6124    2.1555   28.0584 C.ar    1  UNL1        0.0379
     26 C          -0.6703    2.0762   26.5616 C.ar    1  UNL1        0.1347
     27 C           0.4876    1.5086   25.7953 C.ar    1  UNL1        0.0095
     28 C           0.4298    1.4293   24.2985 C.3     1  UNL1        0.0339
     29 C           1.7034    1.0204   26.5258 C.ar    1  UNL1       -0.0040
     30 C           2.8613    0.4529   25.7595 C.3     1  UNL1        0.0322
     31 O          -1.8860    2.5644   25.8311 O.3     1  UNL1       -0.4739
     32 C          -2.4550    3.9169   26.1420 C.3     1  UNL1        0.2020
     33 C          -1.5569    5.1178   26.1800 C.3     1  UNL1        0.0536
     34 C          -3.9222    4.0687   26.4150 C.2     1  UNL1        0.0900
     35 O          -4.9247    3.4088   25.5152 O.co2   1  UNL1       -0.5455
     36 O          -4.3869    4.8804   27.5877 O.co2   1  UNL1       -0.5455
     37 C           4.8085   -1.1946   29.1179 C.3     1  UNL1        0.1159
     38 C           6.0987   -1.6216   29.7530 C.3     1  UNL1        0.0234
     39 C           6.8133   -1.9129   32.2337 C.3     1  UNL1        0.0001
     40 C           6.0816   -2.4163   31.0250 C.3     1  UNL1        0.0018
@<TRIPOS>UNITY_ATOM_ATTR
35 1
charge -1
@<TRIPOS>BOND
     1    39    40    1
     2    40    38    1
     3    38    37    1
     4    37     1    1
     5     1     2    1
     6     2     3   ar
     7     3     4   ar
     8     4     5   ar
     9     5     6   ar
    10     6     9    1
    11     9    10   ar
    12    10    11   ar
    13    11    12   ar
    14    12    15    1
    15    15    16    1
    16    16    17    1
    17    16    18    1
    18    16    19    1
    19    12    13   ar
    20    13    14   ar
    21     6     7   ar
    22     7     8    1
    23     1    20    1
    24    20    21    2
    25    20    22    2
    26    20    23    1
    27    23    24   ar
    28    24    25   ar
    29    25    26   ar
    30    26    31    1
    31    31    32    1
    32    32    33    1
    33    32    34    1
    34    34    35   ar
    35    34    36   ar
    36    26    27   ar
    37    27    28    1
    38    27    29   ar
    39    29    30    1
    40     7     2   ar
    41    29    23   ar
    42    14     9   ar
