@<TRIPOS>MOLECULE
*****
 13 14 0 0 0
SMALL
GASTEIGER

@<TRIPOS>ATOM
      1 C          -8.9070  -16.4864   24.0264 C.ar    1  UNL1        0.0195
      2 C          -8.6880  -16.0094   25.4316 C.ar    1  UNL1        0.0055
      3 C          -7.3413  -15.4967   25.8482 C.ar    1  UNL1        0.0497
      4 C          -6.2137  -15.4611   24.8597 C.ar    1  UNL1        0.2223
      5 F          -4.8669  -14.9484   25.2764 F       1  UNL1       -0.1832
      6 N          -6.4327  -15.9382   23.4546 N.ar    1  UNL1       -0.2165
      7 C          -7.7793  -16.4508   23.0380 C.ar    1  UNL1        0.1012
      8 C         -10.2229  -19.3449   24.8908 C.3     1  UNL1        0.0316
      9 C         -10.8585  -18.3130   24.0071 C.ar    1  UNL1       -0.0148
     10 C         -12.2106  -18.4138   23.3654 C.ar    1  UNL1        0.0312
     11 S         -12.4415  -17.1621   22.5715 S.2     1  UNL1       -0.0863
     12 C         -11.2320  -16.2878   22.7225 C.ar    1  UNL1        0.0352
     13 C         -10.2537  -16.9991   23.6097 C.ar    1  UNL1        0.0045
@<TRIPOS>BOND
     1     8     9    1
     2     9    10   ar
     3    10    11   ar
     4    11    12   ar
     5    12    13   ar
     6    13     1    1
     7     1     2   ar
     8     2     3   ar
     9     3     4   ar
    10     4     5    1
    11     4     6   ar
    12     6     7   ar
    13    13     9   ar
    14     7     1   ar
@<TRIPOS>MOLECULE
*****
 13 14 0 0 0
SMALL
GASTEIGER

@<TRIPOS>ATOM
      1 C          -9.9382  -17.1645   24.0433 C.ar    1  UNL1        0.0195
      2 C          -9.3044  -15.8241   24.2702 C.ar    1  UNL1        0.0055
      3 C          -8.5799  -15.5447   25.5536 C.ar    1  UNL1        0.0497
      4 C          -8.4893  -16.6057   26.6100 C.ar    1  UNL1        0.2223
      5 F          -7.7648  -16.3262   27.8934 F       1  UNL1       -0.1832
      6 N          -9.1231  -17.9461   26.3831 N.ar    1  UNL1       -0.2165
      7 C          -9.8475  -18.2255   25.0997 C.ar    1  UNL1        0.1012
      8 C         -13.0970  -17.9303   23.7512 C.3     1  UNL1        0.0316
      9 C         -12.1146  -17.7960   22.6257 C.ar    1  UNL1       -0.0148
     10 C         -12.4117  -17.9900   21.1682 C.ar    1  UNL1        0.0312
     11 S         -11.1433  -17.7580   20.4017 S.2     1  UNL1       -0.0863
     12 C         -10.0624  -17.4205   21.3854 C.ar    1  UNL1        0.0352
     13 C         -10.6627  -17.4440   22.7599 C.ar    1  UNL1        0.0045
@<TRIPOS>BOND
     1     8     9    1
     2     9    10   ar
     3    10    11   ar
     4    11    12   ar
     5    12    13   ar
     6    13     1    1
     7     1     2   ar
     8     2     3   ar
     9     3     4   ar
    10     4     5    1
    11     4     6   ar
    12     6     7   ar
    13    13     9   ar
    14     7     1   ar
@<TRIPOS>MOLECULE
*****
 13 14 0 0 0
SMALL
GASTEIGER

@<TRIPOS>ATOM
      1 C         -10.3322  -18.5574   22.3469 C.ar    1  UNL1        0.0195
      2 C         -11.4100  -17.8204   21.6087 C.ar    1  UNL1        0.0055
      3 C         -12.7316  -17.5641   22.2704 C.ar    1  UNL1        0.0497
      4 C         -12.9752  -18.0448   23.6702 C.ar    1  UNL1        0.2223
      5 F         -14.2968  -17.7885   24.3319 F       1  UNL1       -0.1832
      6 N         -11.8973  -18.7819   24.4084 N.ar    1  UNL1       -0.2165
      7 C         -10.5758  -19.0381   23.7467 C.ar    1  UNL1        0.1012
      8 C          -9.8909  -19.7387   19.3370 C.3     1  UNL1        0.0316
      9 C          -8.8077  -19.3567   20.3017 C.ar    1  UNL1       -0.0148
     10 C          -7.3316  -19.4506   20.0524 C.ar    1  UNL1        0.0312
     11 S          -6.6220  -18.9656   21.2818 S.2     1  UNL1       -0.0863
     12 C          -7.6597  -18.5720   22.2909 C.ar    1  UNL1        0.0352
     13 C          -9.0105  -18.8137   21.6852 C.ar    1  UNL1        0.0045
@<TRIPOS>BOND
     1     8     9    1
     2     9    10   ar
     3    10    11   ar
     4    11    12   ar
     5    12    13   ar
     6    13     1    1
     7     1     2   ar
     8     2     3   ar
     9     3     4   ar
    10     4     5    1
    11     4     6   ar
    12     6     7   ar
    13    13     9   ar
    14     7     1   ar
@<TRIPOS>MOLECULE
*****
 13 14 0 0 0
SMALL
GASTEIGER

@<TRIPOS>ATOM
      1 C          -7.3198  -19.3422   21.3851 C.ar    1  UNL1        0.0195
      2 C          -6.6287  -20.3229   20.4849 C.ar    1  UNL1        0.0055
      3 C          -5.1303  -20.3716   20.4387 C.ar    1  UNL1        0.0497
      4 C          -4.3229  -19.4395   21.2928 C.ar    1  UNL1        0.2223
      5 F          -2.8244  -19.4882   21.2466 F       1  UNL1       -0.1832
      6 N          -5.0140  -18.4588   22.1930 N.ar    1  UNL1       -0.2165
      7 C          -6.5125  -18.4102   22.2392 C.ar    1  UNL1        0.1012
      8 C          -9.2000  -20.4233   23.8236 C.3     1  UNL1        0.0316
      9 C          -9.6825  -19.7904   22.5522 C.ar    1  UNL1       -0.0148
     10 C         -11.1140  -19.5434   22.1784 C.ar    1  UNL1        0.0312
     11 S         -11.1346  -18.8937   20.8264 S.2     1  UNL1       -0.0863
     12 C          -9.7158  -18.7393   20.3648 C.ar    1  UNL1        0.0352
     13 C          -8.8184  -19.2935   21.4314 C.ar    1  UNL1        0.0045
@<TRIPOS>BOND
     1     8     9    1
     2     9    10   ar
     3    10    11   ar
     4    11    12   ar
     5    12    13   ar
     6    13     1    1
     7     1     2   ar
     8     2     3   ar
     9     3     4   ar
    10     4     5    1
    11     4     6   ar
    12     6     7   ar
    13    13     9   ar
    14     7     1   ar
@<TRIPOS>MOLECULE
*****
 13 14 0 0 0
SMALL
GASTEIGER

@<TRIPOS>ATOM
      1 C          -8.5755  -18.3483   22.4195 C.ar    1  UNL1        0.0195
      2 C          -8.0307  -19.6993   22.0619 C.ar    1  UNL1        0.0055
      3 C          -6.5480  -19.9158   21.9928 C.ar    1  UNL1        0.0497
      4 C          -5.6101  -18.7813   22.2814 C.ar    1  UNL1        0.2223
      5 F          -4.1274  -18.9979   22.2124 F       1  UNL1       -0.1832
      6 N          -6.1549  -17.4303   22.6391 N.ar    1  UNL1       -0.2165
      7 C          -7.6376  -17.2138   22.7081 C.ar    1  UNL1        0.1012
      8 C         -10.5669  -19.4430   24.7617 C.3     1  UNL1        0.0316
      9 C         -10.9735  -18.6349   23.5652 C.ar    1  UNL1       -0.0148
     10 C         -12.3669  -18.1882   23.2351 C.ar    1  UNL1        0.0312
     11 S         -12.3127  -17.4088   21.9546 S.2     1  UNL1       -0.0863
     12 C         -10.8858  -17.3740   21.4932 C.ar    1  UNL1        0.0352
     13 C         -10.0582  -18.1318   22.4886 C.ar    1  UNL1        0.0045
@<TRIPOS>BOND
     1     8     9    1
     2     9    10   ar
     3    10    11   ar
     4    11    12   ar
     5    12    13   ar
     6    13     1    1
     7     1     2   ar
     8     2     3   ar
     9     3     4   ar
    10     4     5    1
    11     4     6   ar
    12     6     7   ar
    13    13     9   ar
    14     7     1   ar
@<TRIPOS>MOLECULE
*****
 13 14 0 0 0
SMALL
GASTEIGER

@<TRIPOS>ATOM
      1 C          -9.2858  -18.4514   21.3858 C.ar    1  UNL1        0.0195
      2 C          -9.1481  -19.3305   20.1782 C.ar    1  UNL1        0.0055
      3 C          -7.7885  -19.6302   19.6199 C.ar    1  UNL1        0.0497
      4 C          -6.5667  -19.0508   20.2691 C.ar    1  UNL1        0.2223
      5 F          -5.2071  -19.3506   19.7107 F       1  UNL1       -0.1832
      6 N          -6.7044  -18.1718   21.4766 N.ar    1  UNL1       -0.2165
      7 C          -8.0639  -17.8721   22.0350 C.ar    1  UNL1        0.1012
      8 C         -11.5356  -16.5192   20.0238 C.3     1  UNL1        0.0316
      9 C         -11.6794  -17.2636   21.3182 C.ar    1  UNL1       -0.0148
     10 C         -12.8827  -17.2505   22.2137 C.ar    1  UNL1        0.0312
     11 S         -12.5923  -18.1305   23.3932 S.2     1  UNL1       -0.0863
     12 C         -11.2095  -18.6875   23.2266 C.ar    1  UNL1        0.0352
     13 C         -10.6454  -18.1517   21.9442 C.ar    1  UNL1        0.0045
@<TRIPOS>BOND
     1     8     9    1
     2     9    10   ar
     3    10    11   ar
     4    11    12   ar
     5    12    13   ar
     6    13     1    1
     7     1     2   ar
     8     2     3   ar
     9     3     4   ar
    10     4     5    1
    11     4     6   ar
    12     6     7   ar
    13    13     9   ar
    14     7     1   ar
@<TRIPOS>MOLECULE
*****
 13 14 0 0 0
SMALL
GASTEIGER

@<TRIPOS>ATOM
      1 C          -8.9267  -18.9101   22.4783 C.ar    1  UNL1        0.0195
      2 C          -9.3149  -19.9736   23.4622 C.ar    1  UNL1        0.0055
      3 C         -10.5861  -19.8410   24.2473 C.ar    1  UNL1        0.0497
      4 C         -11.4692  -18.6449   24.0484 C.ar    1  UNL1        0.2223
      5 F         -12.7404  -18.5123   24.8336 F       1  UNL1       -0.1832
      6 N         -11.0810  -17.5814   23.0645 N.ar    1  UNL1       -0.2165
      7 C          -9.8098  -17.7140   22.2794 C.ar    1  UNL1        0.1012
      8 C          -8.6994  -19.6213   19.3014 C.3     1  UNL1        0.0316
      9 C          -7.5510  -19.3696   20.2329 C.ar    1  UNL1       -0.0148
     10 C          -6.0965  -19.4005   19.8677 C.ar    1  UNL1        0.0312
     11 S          -5.3019  -19.0928   21.1023 S.2     1  UNL1       -0.0863
     12 C          -6.2655  -18.8716   22.2304 C.ar    1  UNL1        0.0352
     13 C          -7.6555  -19.0427   21.6931 C.ar    1  UNL1        0.0045
@<TRIPOS>BOND
     1     8     9    1
     2     9    10   ar
     3    10    11   ar
     4    11    12   ar
     5    12    13   ar
     6    13     1    1
     7     1     2   ar
     8     2     3   ar
     9     3     4   ar
    10     4     5    1
    11     4     6   ar
    12     6     7   ar
    13    13     9   ar
    14     7     1   ar
@<TRIPOS>MOLECULE
*****
 13 14 0 0 0
SMALL
GASTEIGER

@<TRIPOS>ATOM
      1 C         -10.5699  -18.5525   22.0382 C.ar    1  UNL1        0.0195
      2 C         -11.7347  -17.8831   21.3711 C.ar    1  UNL1        0.0055
      3 C         -12.9890  -17.6113   22.1475 C.ar    1  UNL1        0.0497
      4 C         -13.0785  -18.0090   23.5911 C.ar    1  UNL1        0.2223
      5 F         -14.3328  -17.7371   24.3675 F       1  UNL1       -0.1832
      6 N         -11.9137  -18.6784   24.2582 N.ar    1  UNL1       -0.2165
      7 C         -10.6594  -18.9502   23.4818 C.ar    1  UNL1        0.1012
      8 C          -7.5816  -17.4725   22.7818 C.3     1  UNL1        0.0316
      9 C          -7.9420  -18.3279   21.6036 C.ar    1  UNL1       -0.0148
     10 C          -6.9922  -18.8371   20.5603 C.ar    1  UNL1        0.0312
     11 S          -7.7787  -19.6483   19.5736 S.2     1  UNL1       -0.0863
     12 C          -9.2146  -19.6404   20.0072 C.ar    1  UNL1        0.0352
     13 C          -9.3156  -18.8244   21.2618 C.ar    1  UNL1        0.0045
@<TRIPOS>BOND
     1     8     9    1
     2     9    10   ar
     3    10    11   ar
     4    11    12   ar
     5    12    13   ar
     6    13     1    1
     7     1     2   ar
     8     2     3   ar
     9     3     4   ar
    10     4     5    1
    11     4     6   ar
    12     6     7   ar
    13    13     9   ar
    14     7     1   ar
@<TRIPOS>MOLECULE
*****
 13 14 0 0 0
SMALL
GASTEIGER

@<TRIPOS>ATOM
      1 C          -7.0920  -19.1062   22.1701 C.ar    1  UNL1        0.0195
      2 C          -7.9919  -20.1634   22.7379 C.ar    1  UNL1        0.0055
      3 C          -9.3038  -19.7791   23.3554 C.ar    1  UNL1        0.0497
      4 C          -9.7158  -18.3376   23.4050 C.ar    1  UNL1        0.2223
      5 F         -11.0277  -17.9534   24.0224 F       1  UNL1       -0.1832
      6 N          -8.8158  -17.2805   22.8371 N.ar    1  UNL1       -0.2165
      7 C          -7.5040  -17.6648   22.2197 C.ar    1  UNL1        0.1012
      8 C          -4.1394  -18.1827   23.2087 C.3     1  UNL1        0.0316
      9 C          -4.4229  -19.0660   22.0300 C.ar    1  UNL1       -0.0148
     10 C          -3.3991  -19.6799   21.1218 C.ar    1  UNL1        0.0312
     11 S          -4.1235  -20.4839   20.0830 S.2     1  UNL1       -0.0863
     12 C          -5.5950  -20.3668   20.3493 C.ar    1  UNL1        0.0352
     13 C          -5.7801  -19.4905   21.5526 C.ar    1  UNL1        0.0045
@<TRIPOS>BOND
     1     8     9    1
     2     9    10   ar
     3    10    11   ar
     4    11    12   ar
     5    12    13   ar
     6    13     1    1
     7     1     2   ar
     8     2     3   ar
     9     3     4   ar
    10     4     5    1
    11     4     6   ar
    12     6     7   ar
    13    13     9   ar
    14     7     1   ar
