@<TRIPOS>MOLECULE
*****
 28 30 0 0 0
SMALL
GASTEIGER

@<TRIPOS>ATOM
      1 C          -6.5154  -18.7780   21.4439 C.2     1  UNL1        0.0731
      2 C          -5.0311  -18.7013   21.6461 C.2     1  UNL1        0.0530
      3 N          -4.4621  -17.7785   22.6828 N.pl3   1  UNL1       -0.3173
      4 C          -5.3774  -16.9325   23.5173 C.2     1  UNL1        0.0317
      5 C          -4.8084  -16.0097   24.5540 C.3     1  UNL1        0.0475
      6 C          -6.8617  -17.0092   23.3151 C.2     1  UNL1        0.0635
      7 C          -7.4307  -17.9320   22.2784 C.3     1  UNL1        0.0855
      8 H          -3.4879  -17.7281   22.8155 H       1  UNL1        0.1517
      9 C          -8.9151  -18.0087   22.0762 C.ar    1  UNL1       -0.0026
     10 C          -9.6186  -16.9529   21.2760 C.ar    1  UNL1       -0.0005
     11 C         -11.1029  -17.0295   21.0739 C.ar    1  UNL1        0.0294
     12 C         -11.8838  -18.1621   21.6719 C.ar    1  UNL1        0.1410
     13 F         -13.3681  -18.2388   21.4697 F       1  UNL1       -0.2041
     14 C         -11.1803  -19.2180   22.4721 C.ar    1  UNL1        0.0407
     15 C          -9.6959  -19.1412   22.6742 C.ar    1  UNL1        0.0566
     16 CL         -8.9924  -20.1971   23.4744 Cl      1  UNL1       -0.0825
     17 C          -7.0844  -19.7008   20.4072 C.2     1  UNL1        0.3389
     18 O          -6.7775  -21.1681   20.4596 O.2     1  UNL1       -0.2452
     19 C          -9.2144  -19.8824   18.9307 C.3     1  UNL1        0.2559
     20 O          -7.9604  -19.1563   19.3181 O.3     1  UNL1       -0.4415
     21 C          -7.7771  -16.1632   24.1496 C.1     1  UNL1        0.0976
     22 N          -8.6924  -15.3172   24.9840 N.1     1  UNL1       -0.1911
     23 C          -4.1157  -19.5473   20.8116 C.3     1  UNL1        0.1716
     24 N          -2.7625  -19.0298   20.4231 N.ar    1  UNL1       -0.2049
     25 C          -2.3759  -18.4972   19.0752 C.ar    1  UNL1        0.2218
     26 N          -0.9328  -18.0922   19.1333 N.ar    1  UNL1       -0.1048
     27 N          -0.4275  -18.3745   20.5171 N.ar    1  UNL1       -0.0225
     28 N          -1.5583  -18.9539   21.3142 N.ar    1  UNL1       -0.0425
@<TRIPOS>BOND
     1    19    20    1
     2    20    17    1
     3    17    18    2
     4    17     1    1
     5     1     2    2
     6     2    23    1
     7    23    24    1
     8    24    25   ar
     9    25    26   ar
    10    26    27   ar
    11    27    28   ar
    12     2     3    1
    13     3     4    1
    14     4     5    1
    15     4     6    2
    16     6    21    1
    17    21    22    3
    18     6     7    1
    19     7     9    1
    20     9    10   ar
    21    10    11   ar
    22    11    12   ar
    23    12    13    1
    24    12    14   ar
    25    14    15   ar
    26    15    16    1
    27     7     1    1
    28    15     9   ar
    29    28    24   ar
    30     3     8    1
@<TRIPOS>MOLECULE
*****
 28 30 0 0 0
SMALL
GASTEIGER

@<TRIPOS>ATOM
      1 C          -7.8050  -18.3643   22.0413 C.2     1  UNL1        0.0731
      2 C          -6.3209  -18.2750   21.8430 C.2     1  UNL1        0.0530
      3 N          -5.5007  -17.3716   22.7154 N.pl3   1  UNL1       -0.3173
      4 C          -6.1646  -16.5574   23.7860 C.2     1  UNL1        0.0317
      5 C          -5.3444  -15.6540   24.6584 C.3     1  UNL1        0.0475
      6 C          -7.6487  -16.6467   23.9843 C.2     1  UNL1        0.0635
      7 C          -8.4690  -17.5501   23.1119 C.3     1  UNL1        0.0855
      8 H          -4.5266  -17.3130   22.5853 H       1  UNL1        0.1517
      9 C          -9.9532  -17.6393   23.3102 C.ar    1  UNL1       -0.0026
     10 C         -10.5170  -18.5662   24.3460 C.ar    1  UNL1       -0.0005
     11 C         -12.0011  -18.6554   24.5443 C.ar    1  UNL1        0.0294
     12 C         -12.9215  -17.8178   23.7068 C.ar    1  UNL1        0.1410
     13 F         -14.4056  -17.9071   23.9051 F       1  UNL1       -0.2041
     14 C         -12.3576  -16.8910   22.6709 C.ar    1  UNL1        0.0407
     15 C         -10.8734  -16.8018   22.4726 C.ar    1  UNL1        0.0566
     16 CL        -10.3095  -15.8749   21.4367 Cl      1  UNL1       -0.0825
     17 C          -8.6253  -19.2677   21.1689 C.2     1  UNL1        0.3389
     18 O          -9.3156  -20.4596   21.7627 O.2     1  UNL1       -0.2452
     19 C          -8.8952  -20.1088   18.7256 C.3     1  UNL1        0.2559
     20 O          -8.7551  -18.9793   19.7026 O.3     1  UNL1       -0.4415
     21 C          -8.3127  -15.8324   25.0549 C.1     1  UNL1        0.0976
     22 N          -8.9767  -15.0183   26.1255 N.1     1  UNL1       -0.1911
     23 C          -5.6569  -19.0892   20.7724 C.3     1  UNL1        0.1716
     24 N          -4.1641  -19.2350   20.7582 N.ar    1  UNL1       -0.2049
     25 C          -3.2452  -18.7908   19.6590 C.ar    1  UNL1        0.2218
     26 N          -1.8413  -19.1319   20.0623 N.ar    1  UNL1       -0.1048
     27 N          -1.8925  -19.7869   21.4108 N.ar    1  UNL1       -0.0225
     28 N          -3.3281  -19.8507   21.8409 N.ar    1  UNL1       -0.0425
@<TRIPOS>BOND
     1    19    20    1
     2    20    17    1
     3    17    18    2
     4    17     1    1
     5     1     2    2
     6     2    23    1
     7    23    24    1
     8    24    25   ar
     9    25    26   ar
    10    26    27   ar
    11    27    28   ar
    12     2     3    1
    13     3     4    1
    14     4     5    1
    15     4     6    2
    16     6    21    1
    17    21    22    3
    18     6     7    1
    19     7     9    1
    20     9    10   ar
    21    10    11   ar
    22    11    12   ar
    23    12    13    1
    24    12    14   ar
    25    14    15   ar
    26    15    16    1
    27     7     1    1
    28    15     9   ar
    29    28    24   ar
    30     3     8    1
@<TRIPOS>MOLECULE
*****
 28 30 0 0 0
SMALL
GASTEIGER

@<TRIPOS>ATOM
      1 C          -6.6852  -18.6461   21.5675 C.2     1  UNL1        0.0731
      2 C          -5.1892  -18.5705   21.6458 C.2     1  UNL1        0.0530
      3 N          -4.5353  -17.6716   22.6530 N.pl3   1  UNL1       -0.3173
      4 C          -5.3775  -16.8483   23.5819 C.2     1  UNL1        0.0317
      5 C          -4.7237  -15.9494   24.5891 C.3     1  UNL1        0.0475
      6 C          -6.8735  -16.9239   23.5036 C.2     1  UNL1        0.0635
      7 C          -7.5273  -17.8228   22.4963 C.3     1  UNL1        0.0855
      8 H          -3.5534  -17.6220   22.7044 H       1  UNL1        0.1517
      9 C          -9.0234  -17.8984   22.4180 C.ar    1  UNL1       -0.0026
     10 C          -9.7441  -19.0917   22.9719 C.ar    1  UNL1       -0.0005
     11 C         -11.2401  -19.1673   22.8936 C.ar    1  UNL1        0.0294
     12 C         -12.0156  -18.0496   22.2615 C.ar    1  UNL1        0.1410
     13 F         -13.5116  -18.1252   22.1832 F       1  UNL1       -0.2041
     14 C         -11.2949  -16.8563   21.7076 C.ar    1  UNL1        0.0407
     15 C          -9.7988  -16.7807   21.7859 C.ar    1  UNL1        0.0566
     16 CL         -9.0782  -15.5875   21.2321 Cl      1  UNL1       -0.0825
     17 C          -7.3390  -19.5450   20.5602 C.2     1  UNL1        0.3389
     18 O          -7.0400  -21.0148   20.5610 O.2     1  UNL1       -0.2452
     19 C          -9.5877  -19.6729   19.2652 C.3     1  UNL1        0.2559
     20 O          -8.2918  -18.9740   19.5523 O.3     1  UNL1       -0.4415
     21 C          -7.7158  -16.1006   24.4325 C.1     1  UNL1        0.0976
     22 N          -8.5580  -15.2773   25.3613 N.1     1  UNL1       -0.1911
     23 C          -4.3469  -19.3938   20.7169 C.3     1  UNL1        0.1716
     24 N          -2.9427  -18.9698   20.4032 N.ar    1  UNL1       -0.2049
     25 C          -2.4638  -18.4005   19.1007 C.ar    1  UNL1        0.2218
     26 N          -0.9960  -18.1195   19.2294 N.ar    1  UNL1       -0.1048
     27 N          -0.5677  -18.5152   20.6115 N.ar    1  UNL1       -0.0225
     28 N          -1.7709  -19.0407   21.3369 N.ar    1  UNL1       -0.0425
@<TRIPOS>BOND
     1    19    20    1
     2    20    17    1
     3    17    18    2
     4    17     1    1
     5     1     2    2
     6     2    23    1
     7    23    24    1
     8    24    25   ar
     9    25    26   ar
    10    26    27   ar
    11    27    28   ar
    12     2     3    1
    13     3     4    1
    14     4     5    1
    15     4     6    2
    16     6    21    1
    17    21    22    3
    18     6     7    1
    19     7     9    1
    20     9    10   ar
    21    10    11   ar
    22    11    12   ar
    23    12    13    1
    24    12    14   ar
    25    14    15   ar
    26    15    16    1
    27     7     1    1
    28    15     9   ar
    29    28    24   ar
    30     3     8    1
@<TRIPOS>MOLECULE
*****
 28 30 0 0 0
SMALL
GASTEIGER

@<TRIPOS>ATOM
      1 C          -6.2952  -19.2813   21.3126 C.2     1  UNL1        0.0731
      2 C          -5.9160  -20.2041   20.1925 C.2     1  UNL1        0.0530
      3 N          -6.9370  -20.5971   19.1663 N.pl3   1  UNL1       -0.3173
      4 C          -8.3372  -20.0673   19.2601 C.2     1  UNL1        0.0317
      5 C          -9.3581  -20.4604   18.2339 C.3     1  UNL1        0.0475
      6 C          -8.7163  -19.1445   20.3802 C.2     1  UNL1        0.0635
      7 C          -7.6954  -18.7515   21.4064 C.3     1  UNL1        0.0855
      8 H          -6.6881  -21.2028   18.4311 H       1  UNL1        0.1517
      9 C          -8.0746  -17.8287   22.5265 C.ar    1  UNL1       -0.0026
     10 C          -7.7205  -16.3730   22.4514 C.ar    1  UNL1       -0.0005
     11 C          -8.0997  -15.4501   23.5715 C.ar    1  UNL1        0.0294
     12 C          -8.8331  -15.9829   24.7667 C.ar    1  UNL1        0.1410
     13 F          -9.2123  -15.0601   25.8867 F       1  UNL1       -0.2041
     14 C          -9.1871  -17.4386   24.8418 C.ar    1  UNL1        0.0407
     15 C          -8.8079  -18.3615   23.7216 C.ar    1  UNL1        0.0566
     16 CL         -9.1620  -19.8172   23.7967 Cl      1  UNL1       -0.0825
     17 C          -5.2742  -18.8883   22.3388 C.2     1  UNL1        0.3389
     18 O          -4.6416  -19.9354   23.2067 O.2     1  UNL1       -0.2452
     19 C          -3.5108  -17.0907   22.9783 C.3     1  UNL1        0.2559
     20 O          -4.8859  -17.4482   22.4971 O.3     1  UNL1       -0.4415
     21 C         -10.1166  -18.6147   20.4741 C.1     1  UNL1        0.0976
     22 N         -11.5167  -18.0849   20.5679 N.1     1  UNL1       -0.1911
     23 C          -4.5158  -20.7340   20.0986 C.3     1  UNL1        0.1716
     24 N          -3.3525  -19.7874   20.1237 N.ar    1  UNL1       -0.2049
     25 C          -3.2295  -18.5205   19.3302 C.ar    1  UNL1        0.2218
     26 N          -1.9089  -17.8916   19.6628 N.ar    1  UNL1       -0.1048
     27 N          -1.2157  -18.7700   20.6618 N.ar    1  UNL1       -0.0225
     28 N          -2.1079  -19.9416   20.9467 N.ar    1  UNL1       -0.0425
@<TRIPOS>BOND
     1    19    20    1
     2    20    17    1
     3    17    18    2
     4    17     1    1
     5     1     2    2
     6     2    23    1
     7    23    24    1
     8    24    25   ar
     9    25    26   ar
    10    26    27   ar
    11    27    28   ar
    12     2     3    1
    13     3     4    1
    14     4     5    1
    15     4     6    2
    16     6    21    1
    17    21    22    3
    18     6     7    1
    19     7     9    1
    20     9    10   ar
    21    10    11   ar
    22    11    12   ar
    23    12    13    1
    24    12    14   ar
    25    14    15   ar
    26    15    16    1
    27     7     1    1
    28    15     9   ar
    29    28    24   ar
    30     3     8    1
@<TRIPOS>MOLECULE
*****
 28 30 0 0 0
SMALL
GASTEIGER

@<TRIPOS>ATOM
      1 C          -8.0580  -17.2299   23.3874 C.2     1  UNL1        0.0731
      2 C          -6.6404  -17.2836   22.9004 C.2     1  UNL1        0.0530
      3 N          -6.2992  -18.0716   21.6705 N.pl3   1  UNL1       -0.3173
      4 C          -7.3757  -18.8059   20.9277 C.2     1  UNL1        0.0317
      5 C          -7.0345  -19.5939   19.6978 C.3     1  UNL1        0.0475
      6 C          -8.7934  -18.7522   21.4147 C.2     1  UNL1        0.0635
      7 C          -9.1345  -17.9642   22.6446 C.3     1  UNL1        0.0855
      8 H          -5.3687  -18.1068   21.3508 H       1  UNL1        0.1517
      9 C         -10.5523  -17.9106   23.1317 C.ar    1  UNL1       -0.0026
     10 C         -11.4895  -16.8678   22.5984 C.ar    1  UNL1       -0.0005
     11 C         -12.9072  -16.8142   23.0854 C.ar    1  UNL1        0.0294
     12 C         -13.3878  -17.8032   24.1057 C.ar    1  UNL1        0.1410
     13 F         -14.8055  -17.7495   24.5927 F       1  UNL1       -0.2041
     14 C         -12.4505  -18.8459   24.6390 C.ar    1  UNL1        0.0407
     15 C         -11.0328  -18.8996   24.1519 C.ar    1  UNL1        0.0566
     16 CL        -10.0955  -19.9423   24.6852 Cl      1  UNL1       -0.0825
     17 C          -8.3992  -16.4419   24.6173 C.2     1  UNL1        0.3389
     18 O          -8.4910  -14.9463   24.5484 O.2     1  UNL1       -0.2452
     19 C          -8.3347  -16.4668   27.2145 C.3     1  UNL1        0.2559
     20 O          -8.6486  -17.1494   25.9162 O.3     1  UNL1       -0.4415
     21 C          -9.8700  -19.4866   20.6719 C.1     1  UNL1        0.0976
     22 N         -10.9466  -20.2209   19.9291 N.1     1  UNL1       -0.1911
     23 C          -5.5638  -16.5492   23.6432 C.3     1  UNL1        0.1716
     24 N          -4.1656  -16.5185   23.1010 N.ar    1  UNL1       -0.2049
     25 C          -3.1628  -17.6309   23.1850 C.ar    1  UNL1        0.2218
     26 N          -1.9021  -17.1700   22.5155 N.ar    1  UNL1       -0.1048
     27 N          -2.1258  -15.7727   22.0176 N.ar    1  UNL1       -0.0225
     28 N          -3.5247  -15.3702   22.3795 N.ar    1  UNL1       -0.0425
@<TRIPOS>BOND
     1    19    20    1
     2    20    17    1
     3    17    18    2
     4    17     1    1
     5     1     2    2
     6     2    23    1
     7    23    24    1
     8    24    25   ar
     9    25    26   ar
    10    26    27   ar
    11    27    28   ar
    12     2     3    1
    13     3     4    1
    14     4     5    1
    15     4     6    2
    16     6    21    1
    17    21    22    3
    18     6     7    1
    19     7     9    1
    20     9    10   ar
    21    10    11   ar
    22    11    12   ar
    23    12    13    1
    24    12    14   ar
    25    14    15   ar
    26    15    16    1
    27     7     1    1
    28    15     9   ar
    29    28    24   ar
    30     3     8    1
@<TRIPOS>MOLECULE
*****
 28 30 0 0 0
SMALL
GASTEIGER

@<TRIPOS>ATOM
      1 C          -6.7481  -17.6902   22.5721 C.2     1  UNL1        0.0731
      2 C          -5.4293  -18.3694   22.3503 C.2     1  UNL1        0.0530
      3 N          -5.3315  -19.5256   21.3997 N.pl3   1  UNL1       -0.3173
      4 C          -6.5527  -20.0025   20.6708 C.2     1  UNL1        0.0317
      5 C          -6.4550  -21.1587   19.7202 C.3     1  UNL1        0.0475
      6 C          -7.8715  -19.3233   20.8926 C.2     1  UNL1        0.0635
      7 C          -7.9692  -18.1671   21.8432 C.3     1  UNL1        0.0855
      8 H          -4.4659  -19.9714   21.2542 H       1  UNL1        0.1517
      9 C          -9.2882  -17.4879   22.0650 C.ar    1  UNL1       -0.0026
     10 C          -9.6695  -16.3001   21.2321 C.ar    1  UNL1       -0.0005
     11 C         -10.9883  -15.6208   21.4538 C.ar    1  UNL1        0.0294
     12 C         -11.9260  -16.1294   22.5084 C.ar    1  UNL1        0.1410
     13 F         -13.2449  -15.4501   22.7301 F       1  UNL1       -0.2041
     14 C         -11.5447  -17.3172   23.3414 C.ar    1  UNL1        0.0407
     15 C         -10.2257  -17.9964   23.1196 C.ar    1  UNL1        0.0566
     16 CL         -9.8444  -19.1842   23.9526 Cl      1  UNL1       -0.0825
     17 C          -6.8458  -16.5340   23.5228 C.2     1  UNL1        0.3389
     18 O          -6.2119  -15.2202   23.1735 O.2     1  UNL1       -0.2452
     19 C          -8.4688  -15.5924   25.3198 C.3     1  UNL1        0.2559
     20 O          -7.5774  -16.6916   24.8227 O.3     1  UNL1       -0.4415
     21 C          -9.0928  -19.8002   20.1637 C.1     1  UNL1        0.0976
     22 N         -10.3139  -20.2770   19.4349 N.1     1  UNL1       -0.1911
     23 C          -4.2080  -17.8925   23.0792 C.3     1  UNL1        0.1716
     24 N          -2.9804  -17.5024   22.3107 N.ar    1  UNL1       -0.2049
     25 C          -1.9521  -18.4427   21.7553 C.ar    1  UNL1        0.2218
     26 N          -0.9017  -17.6251   21.0639 N.ar    1  UNL1       -0.1048
     27 N          -1.2808  -16.1794   21.1919 N.ar    1  UNL1       -0.0225
     28 N          -2.5655  -16.1036   21.9625 N.ar    1  UNL1       -0.0425
@<TRIPOS>BOND
     1    19    20    1
     2    20    17    1
     3    17    18    2
     4    17     1    1
     5     1     2    2
     6     2    23    1
     7    23    24    1
     8    24    25   ar
     9    25    26   ar
    10    26    27   ar
    11    27    28   ar
    12     2     3    1
    13     3     4    1
    14     4     5    1
    15     4     6    2
    16     6    21    1
    17    21    22    3
    18     6     7    1
    19     7     9    1
    20     9    10   ar
    21    10    11   ar
    22    11    12   ar
    23    12    13    1
    24    12    14   ar
    25    14    15   ar
    26    15    16    1
    27     7     1    1
    28    15     9   ar
    29    28    24   ar
    30     3     8    1
@<TRIPOS>MOLECULE
*****
 28 30 0 0 0
SMALL
GASTEIGER

@<TRIPOS>ATOM
      1 C           4.0506    1.0891   34.7671 C.2     1  UNL1        0.0731
      2 C           3.0734    2.1458   35.1894 C.2     1  UNL1        0.0530
      3 N           1.9733    2.5647   34.2598 N.pl3   1  UNL1       -0.3173
      4 C           1.8503    1.9269   32.9078 C.2     1  UNL1        0.0317
      5 C           0.7502    2.3457   31.9781 C.3     1  UNL1        0.0475
      6 C           2.8274    0.8701   32.4854 C.2     1  UNL1        0.0635
      7 C           3.9276    0.4512   33.4150 C.3     1  UNL1        0.0855
      8 H           1.3319    3.2583   34.5370 H       1  UNL1        0.1517
      9 C           4.9048   -0.6056   32.9926 C.ar    1  UNL1       -0.0026
     10 C           4.5886   -2.0539   33.2214 C.ar    1  UNL1       -0.0005
     11 C           5.5657   -3.1107   32.7990 C.ar    1  UNL1        0.0294
     12 C           6.8590   -2.7191   32.1478 C.ar    1  UNL1        0.1410
     13 F           7.8361   -3.7759   31.7254 F       1  UNL1       -0.2041
     14 C           7.1752   -1.2708   31.9190 C.ar    1  UNL1        0.0407
     15 C           6.1980   -0.2140   32.3414 C.ar    1  UNL1        0.0566
     16 CL          6.5142    1.2343   32.1127 Cl      1  UNL1       -0.0825
     17 C           5.1507    0.6702   35.6967 C.2     1  UNL1        0.3389
     18 O           4.9711   -0.5296   36.5788 O.2     1  UNL1       -0.2452
     19 C           7.7447    0.7485   35.5735 C.3     1  UNL1        0.2559
     20 O           6.4305    1.4511   35.7443 O.3     1  UNL1       -0.4415
     21 C           2.7045    0.2322   31.1333 C.1     1  UNL1        0.0976
     22 N           2.5816   -0.4057   29.7813 N.1     1  UNL1       -0.1911
     23 C           3.1964    2.7837   36.5415 C.3     1  UNL1        0.1716
     24 N           2.3117    2.3340   37.6662 N.ar    1  UNL1       -0.2049
     25 C           2.5803    1.1870   38.5947 C.ar    1  UNL1        0.2218
     26 N           1.4377    1.0964   39.5623 N.ar    1  UNL1       -0.1048
     27 N           0.4628    2.1875   39.2317 N.ar    1  UNL1       -0.0225
     28 N           1.0029    2.9523   38.0599 N.ar    1  UNL1       -0.0425
@<TRIPOS>BOND
     1    19    20    1
     2    20    17    1
     3    17    18    2
     4    17     1    1
     5     1     2    2
     6     2    23    1
     7    23    24    1
     8    24    25   ar
     9    25    26   ar
    10    26    27   ar
    11    27    28   ar
    12     2     3    1
    13     3     4    1
    14     4     5    1
    15     4     6    2
    16     6    21    1
    17    21    22    3
    18     6     7    1
    19     7     9    1
    20     9    10   ar
    21    10    11   ar
    22    11    12   ar
    23    12    13    1
    24    12    14   ar
    25    14    15   ar
    26    15    16    1
    27     7     1    1
    28    15     9   ar
    29    28    24   ar
    30     3     8    1
@<TRIPOS>MOLECULE
*****
 28 30 0 0 0
SMALL
GASTEIGER

@<TRIPOS>ATOM
      1 C           4.1102   -2.0615   21.7129 C.2     1  UNL1        0.0731
      2 C           4.7963   -2.8972   22.7525 C.2     1  UNL1        0.0530
      3 N           4.6575   -2.5503   24.2052 N.pl3   1  UNL1       -0.3173
      4 C           3.8325   -1.3677   24.6184 C.2     1  UNL1        0.0317
      5 C           3.6937   -1.0208   26.0711 C.3     1  UNL1        0.0475
      6 C           3.1464   -0.5319   23.5788 C.2     1  UNL1        0.0635
      7 C           3.2852   -0.8788   22.1261 C.3     1  UNL1        0.0855
      8 H           5.1078   -3.0989   24.8875 H       1  UNL1        0.1517
      9 C           2.5990   -0.0430   21.0865 C.ar    1  UNL1       -0.0026
     10 C           1.1979   -0.3725   20.6642 C.ar    1  UNL1       -0.0005
     11 C           0.5117    0.4632   19.6247 C.ar    1  UNL1        0.0294
     12 C           1.2266    1.6286   19.0075 C.ar    1  UNL1        0.1410
     13 F           0.5404    2.4643   17.9680 F       1  UNL1       -0.2041
     14 C           2.6277    1.9581   19.4298 C.ar    1  UNL1        0.0407
     15 C           3.3139    1.1223   20.4693 C.ar    1  UNL1        0.0566
     16 CL          4.7150    1.4518   20.8917 Cl      1  UNL1       -0.0825
     17 C           4.2490   -2.4084   20.2602 C.2     1  UNL1        0.3389
     18 O           5.4250   -1.9039   19.4777 O.2     1  UNL1       -0.2452
     19 C           3.4973   -4.7043   19.3044 C.3     1  UNL1        0.2559
     20 O           3.2117   -3.2597   19.5900 O.3     1  UNL1       -0.4415
     21 C           2.3214    0.6508   23.9920 C.1     1  UNL1        0.0976
     22 N           1.4964    1.8334   24.4051 N.1     1  UNL1       -0.1911
     23 C           5.6213   -4.0799   22.3393 C.3     1  UNL1        0.1716
     24 N           7.0329   -3.8832   21.8717 N.ar    1  UNL1       -0.2049
     25 C           7.8419   -2.6282   22.0141 C.ar    1  UNL1        0.2218
     26 N           9.1923   -2.8762   21.4100 N.ar    1  UNL1       -0.1048
     27 N           9.2179   -4.2846   20.8944 N.ar    1  UNL1       -0.0225
     28 N           7.8833   -4.9069   21.1797 N.ar    1  UNL1       -0.0425
@<TRIPOS>BOND
     1    19    20    1
     2    20    17    1
     3    17    18    2
     4    17     1    1
     5     1     2    2
     6     2    23    1
     7    23    24    1
     8    24    25   ar
     9    25    26   ar
    10    26    27   ar
    11    27    28   ar
    12     2     3    1
    13     3     4    1
    14     4     5    1
    15     4     6    2
    16     6    21    1
    17    21    22    3
    18     6     7    1
    19     7     9    1
    20     9    10   ar
    21    10    11   ar
    22    11    12   ar
    23    12    13    1
    24    12    14   ar
    25    14    15   ar
    26    15    16    1
    27     7     1    1
    28    15     9   ar
    29    28    24   ar
    30     3     8    1
@<TRIPOS>MOLECULE
*****
 28 30 0 0 0
SMALL
GASTEIGER

@<TRIPOS>ATOM
      1 C           6.5419   -3.4747   24.6224 C.2     1  UNL1        0.0731
      2 C           6.5381   -3.3481   26.1170 C.2     1  UNL1        0.0530
      3 N           5.5358   -2.4591   26.7918 N.pl3   1  UNL1       -0.3173
      4 C           4.5375   -1.6968   25.9720 C.2     1  UNL1        0.0317
      5 C           3.5353   -0.8078   26.6467 C.3     1  UNL1        0.0475
      6 C           4.5414   -1.8235   24.4774 C.2     1  UNL1        0.0635
      7 C           5.5436   -2.7124   23.8026 C.3     1  UNL1        0.0855
      8 H           5.5333   -2.3760   27.7728 H       1  UNL1        0.1517
      9 C           5.5474   -2.8390   22.3079 C.ar    1  UNL1       -0.0026
     10 C           4.6777   -3.8623   21.6397 C.ar    1  UNL1       -0.0005
     11 C           4.6815   -3.9890   20.1451 C.ar    1  UNL1        0.0294
     12 C           5.5551   -3.0923   19.3186 C.ar    1  UNL1        0.1410
     13 F           5.5589   -3.2190   17.8240 F       1  UNL1       -0.2041
     14 C           6.4248   -2.0690   19.9868 C.ar    1  UNL1        0.0407
     15 C           6.4210   -1.9424   21.4815 C.ar    1  UNL1        0.0566
     16 CL          7.2907   -0.9192   22.1497 Cl      1  UNL1       -0.0825
     17 C           7.5441   -4.3637   23.9476 C.2     1  UNL1        0.3389
     18 O           8.8541   -3.7997   23.4829 O.2     1  UNL1       -0.2452
     19 C           8.0633   -6.8649   24.4211 C.3     1  UNL1        0.2559
     20 O           7.2364   -5.8166   23.7375 O.3     1  UNL1       -0.4415
     21 C           3.5430   -1.0611   23.6574 C.1     1  UNL1        0.0976
     22 N           2.5447   -0.2988   22.8375 N.1     1  UNL1       -0.1911
     23 C           7.5364   -4.1104   26.9369 C.3     1  UNL1        0.1716
     24 N           7.2321   -4.4470   28.3666 N.ar    1  UNL1       -0.2049
     25 C           7.2568   -5.8183   28.9740 C.ar    1  UNL1        0.2218
     26 N           6.8896   -5.6903   30.4227 N.ar    1  UNL1       -0.1048
     27 N           6.6381   -4.2398   30.7107 N.ar    1  UNL1       -0.0225
     28 N           6.8498   -3.4715   29.4400 N.ar    1  UNL1       -0.0425
@<TRIPOS>BOND
     1    19    20    1
     2    20    17    1
     3    17    18    2
     4    17     1    1
     5     1     2    2
     6     2    23    1
     7    23    24    1
     8    24    25   ar
     9    25    26   ar
    10    26    27   ar
    11    27    28   ar
    12     2     3    1
    13     3     4    1
    14     4     5    1
    15     4     6    2
    16     6    21    1
    17    21    22    3
    18     6     7    1
    19     7     9    1
    20     9    10   ar
    21    10    11   ar
    22    11    12   ar
    23    12    13    1
    24    12    14   ar
    25    14    15   ar
    26    15    16    1
    27     7     1    1
    28    15     9   ar
    29    28    24   ar
    30     3     8    1
