@<TRIPOS>MOLECULE
*****
 20 22 0 0 0
SMALL
GASTEIGER

@<TRIPOS>ATOM
      1 C          -2.2690  -18.7723   20.1106 C.2     1  UNL1        0.1223
      2 C          -2.2024  -19.1564   21.5590 C.2     1  UNL1        0.0343
      3 C          -3.4665  -19.3906   22.3318 C.2     1  UNL1        0.0232
      4 C          -4.7973  -19.2408   21.6561 C.2     1  UNL1        0.0975
      5 N          -6.2015  -19.4058   22.1570 N.2     1  UNL1       -0.2200
      6 C          -7.1360  -19.1237   21.0181 C.2     1  UNL1        0.1901
      7 N          -6.3094  -18.7843   19.8133 N.2     1  UNL1       -0.2236
      8 C          -4.8639  -18.8567   20.2077 C.2     1  UNL1        0.0863
      9 C          -3.5998  -18.6225   19.4349 C.3     1  UNL1        0.1112
     10 C           0.1202  -17.7635   19.9573 C.3     1  UNL1        0.2520
     11 O          -1.0049  -18.5381   19.3378 O.2     1  UNL1       -0.4753
     12 S          -8.6343  -19.1724   21.0742 S.3     1  UNL1       -0.0709
     13 C          -9.4136  -17.9307   21.3915 C.3     1  UNL1        0.0913
     14 C         -10.6485  -18.0163   22.2387 C.ar    1  UNL1       -0.0108
     15 C         -11.9541  -17.4941   21.7163 C.ar    1  UNL1       -0.0025
     16 C         -13.1890  -17.5797   22.5634 C.ar    1  UNL1        0.0111
     17 C         -13.1183  -18.1875   23.9330 C.ar    1  UNL1        0.0577
     18 CL        -14.3532  -18.2731   24.7802 Cl      1  UNL1       -0.0822
     19 C         -11.8128  -18.7096   24.4554 C.ar    1  UNL1        0.0111
     20 C         -10.5778  -18.6240   23.6082 C.ar    1  UNL1       -0.0025
@<TRIPOS>BOND
     1    10    11    1
     2    11     1    1
     3     1     2    2
     4     2     3    1
     5     3     4    2
     6     4     5    1
     7     5     6    2
     8     6    12    1
     9    12    13    1
    10    13    14    1
    11    14    15   ar
    12    15    16   ar
    13    16    17   ar
    14    17    18    1
    15    17    19   ar
    16    19    20   ar
    17     6     7    1
    18     7     8    2
    19     8     9    1
    20     9     1    1
    21     8     4    1
    22    20    14   ar
@<TRIPOS>MOLECULE
*****
 20 22 0 0 0
SMALL
GASTEIGER

@<TRIPOS>ATOM
      1 C         -12.0902  -18.2203   23.3437 C.2     1  UNL1        0.1223
      2 C         -11.4283  -19.0035   24.4384 C.2     1  UNL1        0.0343
      3 C         -10.0458  -19.5503   24.2390 C.2     1  UNL1        0.0232
      4 C          -9.3252  -19.3138   22.9449 C.2     1  UNL1        0.0975
      5 N          -7.9659  -19.7263   22.4630 N.2     1  UNL1       -0.2200
      6 C          -7.7877  -19.1979   21.0705 C.2     1  UNL1        0.1901
      7 N          -9.0368  -18.4589   20.6917 N.2     1  UNL1       -0.2236
      8 C          -9.9871  -18.5306   21.8501 C.2     1  UNL1        0.0863
      9 C         -11.3696  -17.9838   22.0495 C.3     1  UNL1        0.1112
     10 C         -14.3752  -18.2756   24.5788 C.3     1  UNL1        0.2520
     11 O         -13.4727  -17.6735   23.5431 O.2     1  UNL1       -0.4753
     12 S          -6.5734  -19.3771   20.2082 S.3     1  UNL1       -0.0709
     13 C          -5.3601  -20.0685   20.7558 C.3     1  UNL1        0.0913
     14 C          -4.0041  -19.4500   20.5866 C.ar    1  UNL1       -0.0108
     15 C          -3.0522  -19.4011   21.7448 C.ar    1  UNL1       -0.0025
     16 C          -1.6962  -18.7826   21.5755 C.ar    1  UNL1        0.0111
     17 C          -1.2920  -18.2130   20.2480 C.ar    1  UNL1        0.0577
     18 CL          0.0640  -17.5945   20.0787 Cl      1  UNL1       -0.0822
     19 C          -2.2439  -18.2619   19.0898 C.ar    1  UNL1        0.0111
     20 C          -3.6000  -18.8804   19.2591 C.ar    1  UNL1       -0.0025
@<TRIPOS>BOND
     1    10    11    1
     2    11     1    1
     3     1     2    2
     4     2     3    1
     5     3     4    2
     6     4     5    1
     7     5     6    2
     8     6    12    1
     9    12    13    1
    10    13    14    1
    11    14    15   ar
    12    15    16   ar
    13    16    17   ar
    14    17    18    1
    15    17    19   ar
    16    19    20   ar
    17     6     7    1
    18     7     8    2
    19     8     9    1
    20     9     1    1
    21     8     4    1
    22    20    14   ar
@<TRIPOS>MOLECULE
*****
 20 22 0 0 0
SMALL
GASTEIGER

@<TRIPOS>ATOM
      1 C         -12.6054  -17.9388   22.7627 C.2     1  UNL1        0.1223
      2 C         -12.6615  -17.3973   21.3650 C.2     1  UNL1        0.0343
      3 C         -11.4942  -17.5830   20.4414 C.2     1  UNL1        0.0232
      4 C         -10.2709  -18.3101   20.9154 C.2     1  UNL1        0.0975
      5 N          -8.9757  -18.6440   20.2367 N.2     1  UNL1       -0.2200
      6 C          -8.1190  -19.3919   21.2149 C.2     1  UNL1        0.1901
      7 N          -8.8848  -19.5202   22.4982 N.2     1  UNL1       -0.2236
      8 C         -10.2149  -18.8516   22.3131 C.2     1  UNL1        0.0863
      9 C         -11.3821  -18.6660   23.2368 C.3     1  UNL1        0.1112
     10 C         -13.8082  -18.4702   25.0034 C.3     1  UNL1        0.2520
     11 O         -13.7726  -17.7532   23.6864 O.2     1  UNL1       -0.4753
     12 S          -6.7388  -19.9189   20.9553 S.3     1  UNL1       -0.0709
     13 C          -5.6136  -19.5629   21.8812 C.3     1  UNL1        0.0913
     14 C          -4.2777  -19.1718   21.3225 C.ar    1  UNL1       -0.0108
     15 C          -4.0760  -19.1054   19.8376 C.ar    1  UNL1       -0.0025
     16 C          -2.7401  -18.7143   19.2788 C.ar    1  UNL1        0.0111
     17 C          -1.6058  -18.3894   20.2050 C.ar    1  UNL1        0.0577
     18 CL         -0.2698  -17.9982   19.6463 Cl      1  UNL1       -0.0822
     19 C          -1.8074  -18.4557   21.6899 C.ar    1  UNL1        0.0111
     20 C          -3.1434  -18.8469   22.2486 C.ar    1  UNL1       -0.0025
@<TRIPOS>BOND
     1    10    11    1
     2    11     1    1
     3     1     2    2
     4     2     3    1
     5     3     4    2
     6     4     5    1
     7     5     6    2
     8     6    12    1
     9    12    13    1
    10    13    14    1
    11    14    15   ar
    12    15    16   ar
    13    16    17   ar
    14    17    18    1
    15    17    19   ar
    16    19    20   ar
    17     6     7    1
    18     7     8    2
    19     8     9    1
    20     9     1    1
    21     8     4    1
    22    20    14   ar
@<TRIPOS>MOLECULE
*****
 20 22 0 0 0
SMALL
GASTEIGER

@<TRIPOS>ATOM
      1 C         -11.8248  -17.3877   21.1095 C.2     1  UNL1        0.1223
      2 C         -12.1783  -18.1541   22.3495 C.2     1  UNL1        0.0343
      3 C         -11.1511  -19.0235   23.0122 C.2     1  UNL1        0.0232
      4 C          -9.7706  -19.1266   22.4348 C.2     1  UNL1        0.0975
      5 N          -8.5577  -19.8973   22.8648 N.2     1  UNL1       -0.2200
      6 C          -7.4547  -19.6073   21.8905 C.2     1  UNL1        0.1901
      7 N          -7.9858  -18.6573   20.8583 N.2     1  UNL1       -0.2236
      8 C          -9.4171  -18.3602   21.1948 C.2     1  UNL1        0.0863
      9 C         -10.4443  -17.4908   20.5321 C.3     1  UNL1        0.1112
     10 C         -12.4689  -15.6664   19.2732 C.3     1  UNL1        0.2520
     11 O         -12.8520  -16.5183   20.4468 O.2     1  UNL1       -0.4753
     12 S          -6.0646  -20.1688   21.9398 S.3     1  UNL1       -0.0709
     13 C          -5.2681  -20.3114   20.6767 C.3     1  UNL1        0.0913
     14 C          -3.9596  -19.5929   20.5300 C.ar    1  UNL1       -0.0108
     15 C          -2.9664  -19.6065   21.6541 C.ar    1  UNL1       -0.0025
     16 C          -1.6579  -18.8880   21.5074 C.ar    1  UNL1        0.0111
     17 C          -1.3425  -18.1560   20.2367 C.ar    1  UNL1        0.0577
     18 CL         -0.0339  -17.4375   20.0900 Cl      1  UNL1       -0.0822
     19 C          -2.3356  -18.1424   19.1126 C.ar    1  UNL1        0.0111
     20 C          -3.6442  -18.8609   19.2594 C.ar    1  UNL1       -0.0025
@<TRIPOS>BOND
     1    10    11    1
     2    11     1    1
     3     1     2    2
     4     2     3    1
     5     3     4    2
     6     4     5    1
     7     5     6    2
     8     6    12    1
     9    12    13    1
    10    13    14    1
    11    14    15   ar
    12    15    16   ar
    13    16    17   ar
    14    17    18    1
    15    17    19   ar
    16    19    20   ar
    17     6     7    1
    18     7     8    2
    19     8     9    1
    20     9     1    1
    21     8     4    1
    22    20    14   ar
@<TRIPOS>MOLECULE
*****
 20 22 0 0 0
SMALL
GASTEIGER

@<TRIPOS>ATOM
      1 C         -16.6979   -8.0228   18.0967 C.2     1  UNL1        0.1223
      2 C         -16.7819   -6.9508   19.1424 C.2     1  UNL1        0.0343
      3 C         -15.5297   -6.3042   19.6560 C.2     1  UNL1        0.0232
      4 C         -14.1934   -6.7297   19.1239 C.2     1  UNL1        0.0975
      5 N         -12.7980   -6.2770   19.4369 N.2     1  UNL1       -0.2200
      6 C         -11.8515   -7.0693   18.5846 C.2     1  UNL1        0.1901
      7 N         -12.6619   -8.0117   17.7449 N.2     1  UNL1       -0.2236
      8 C         -14.1093   -7.8017   18.0782 C.2     1  UNL1        0.0863
      9 C         -15.3615   -8.4483   17.5646 C.3     1  UNL1        0.1112
     10 C         -18.2204  -10.1161   17.8728 C.3     1  UNL1        0.2520
     11 O         -17.9501   -8.6694   17.5831 O.2     1  UNL1       -0.4753
     12 S         -10.3569   -6.9416   18.5739 S.3     1  UNL1       -0.0709
     13 C          -9.7101   -5.6645   19.0216 C.3     1  UNL1        0.0913
     14 C          -9.9626   -4.3919   18.2688 C.ar    1  UNL1       -0.0108
     15 C          -9.3040   -4.1627   16.9408 C.ar    1  UNL1       -0.0025
     16 C          -9.5566   -2.8901   16.1880 C.ar    1  UNL1        0.0111
     17 C         -10.4678   -1.8466   16.7633 C.ar    1  UNL1        0.0577
     18 CL        -10.7203   -0.5740   16.0105 Cl      1  UNL1       -0.0822
     19 C         -11.1264   -2.0758   18.0913 C.ar    1  UNL1        0.0111
     20 C         -10.8738   -3.3485   18.8441 C.ar    1  UNL1       -0.0025
@<TRIPOS>BOND
     1    10    11    1
     2    11     1    1
     3     1     2    2
     4     2     3    1
     5     3     4    2
     6     4     5    1
     7     5     6    2
     8     6    12    1
     9    12    13    1
    10    13    14    1
    11    14    15   ar
    12    15    16   ar
    13    16    17   ar
    14    17    18    1
    15    17    19   ar
    16    19    20   ar
    17     6     7    1
    18     7     8    2
    19     8     9    1
    20     9     1    1
    21     8     4    1
    22    20    14   ar
@<TRIPOS>MOLECULE
*****
 20 22 0 0 0
SMALL
GASTEIGER

@<TRIPOS>ATOM
      1 C         -18.2421   -9.1644   19.6573 C.2     1  UNL1        0.1223
      2 C         -17.6789  -10.2986   18.8534 C.2     1  UNL1        0.0343
      3 C         -16.2958  -10.1984   18.2818 C.2     1  UNL1        0.0232
      4 C         -15.4758   -8.9640   18.5140 C.2     1  UNL1        0.0975
      5 N         -14.0921   -8.5817   18.0792 N.2     1  UNL1       -0.2200
      6 C         -13.8001   -7.2112   18.6144 C.2     1  UNL1        0.1901
      7 N         -15.0033   -6.7465   19.3800 N.2     1  UNL1       -0.2236
      8 C         -16.0390   -7.8298   19.3179 C.2     1  UNL1        0.0863
      9 C         -17.4222   -7.9300   19.8896 C.3     1  UNL1        0.1112
     10 C         -20.2297   -8.0904   20.9403 C.3     1  UNL1        0.2520
     11 O         -19.6253   -9.2645   20.2290 O.2     1  UNL1       -0.4753
     12 S         -12.5280   -6.4407   18.4184 S.3     1  UNL1       -0.0709
     13 C         -12.1021   -5.4248   19.4366 C.3     1  UNL1        0.0913
     14 C         -12.2566   -3.9614   19.1461 C.ar    1  UNL1       -0.0108
     15 C         -11.0782   -3.1618   18.6749 C.ar    1  UNL1       -0.0025
     16 C         -11.2327   -1.6984   18.3844 C.ar    1  UNL1        0.0111
     17 C         -12.5656   -1.0344   18.5651 C.ar    1  UNL1        0.0577
     18 CL        -12.7202    0.4290   18.2747 Cl      1  UNL1       -0.0822
     19 C         -13.7440   -1.8341   19.0364 C.ar    1  UNL1        0.0111
     20 C         -13.5895   -3.2976   19.3269 C.ar    1  UNL1       -0.0025
@<TRIPOS>BOND
     1    10    11    1
     2    11     1    1
     3     1     2    2
     4     2     3    1
     5     3     4    2
     6     4     5    1
     7     5     6    2
     8     6    12    1
     9    12    13    1
    10    13    14    1
    11    14    15   ar
    12    15    16   ar
    13    16    17   ar
    14    17    18    1
    15    17    19   ar
    16    19    20   ar
    17     6     7    1
    18     7     8    2
    19     8     9    1
    20     9     1    1
    21     8     4    1
    22    20    14   ar
@<TRIPOS>MOLECULE
*****
 20 22 0 0 0
SMALL
GASTEIGER

@<TRIPOS>ATOM
      1 C         -16.6928   -7.0926   18.0388 C.2     1  UNL1        0.1223
      2 C         -16.4085   -7.4815   16.6183 C.2     1  UNL1        0.0343
      3 C         -14.9922   -7.6687   16.1611 C.2     1  UNL1        0.0232
      4 C         -13.8602   -7.4669   17.1243 C.2     1  UNL1        0.0975
      5 N         -12.3731   -7.5790   16.9633 N.2     1  UNL1       -0.2200
      6 C         -11.7384   -7.2593   18.2843 C.2     1  UNL1        0.1901
      7 N         -12.8332   -6.9496   19.2617 N.2     1  UNL1       -0.2236
      8 C         -14.1446   -7.0779   18.5448 C.2     1  UNL1        0.0863
      9 C         -15.5609   -6.8908   19.0020 C.3     1  UNL1        0.1112
     10 C         -18.5263   -7.3770   19.8574 C.3     1  UNL1        0.2520
     11 O         -18.1092   -6.9054   18.4960 O.2     1  UNL1       -0.4753
     12 S         -10.2671   -7.2509   18.5764 S.3     1  UNL1       -0.0709
     13 C          -9.5902   -5.9750   18.9815 C.3     1  UNL1        0.0913
     14 C          -9.8704   -4.7065   18.2317 C.ar    1  UNL1       -0.0108
     15 C         -10.8128   -3.6895   18.8040 C.ar    1  UNL1       -0.0025
     16 C         -11.0929   -2.4210   18.0541 C.ar    1  UNL1        0.0111
     17 C         -10.4307   -2.1694   16.7319 C.ar    1  UNL1        0.0577
     18 CL        -10.7109   -0.9009   15.9820 Cl      1  UNL1       -0.0822
     19 C          -9.4883   -3.1865   16.1596 C.ar    1  UNL1        0.0111
     20 C          -9.2082   -4.4550   16.9095 C.ar    1  UNL1       -0.0025
@<TRIPOS>BOND
     1    10    11    1
     2    11     1    1
     3     1     2    2
     4     2     3    1
     5     3     4    2
     6     4     5    1
     7     5     6    2
     8     6    12    1
     9    12    13    1
    10    13    14    1
    11    14    15   ar
    12    15    16   ar
    13    16    17   ar
    14    17    18    1
    15    17    19   ar
    16    19    20   ar
    17     6     7    1
    18     7     8    2
    19     8     9    1
    20     9     1    1
    21     8     4    1
    22    20    14   ar
@<TRIPOS>MOLECULE
*****
 20 22 0 0 0
SMALL
GASTEIGER

@<TRIPOS>ATOM
      1 C         -10.6865   -5.4166   18.7934 C.2     1  UNL1        0.1223
      2 C         -10.6477   -3.9172   18.7817 C.2     1  UNL1        0.0343
      3 C         -11.9103   -3.1326   18.9821 C.2     1  UNL1        0.0232
      4 C         -13.2118   -3.8475   19.1942 C.2     1  UNL1        0.0975
      5 N         -14.6078   -3.3460   19.4170 N.2     1  UNL1       -0.2200
      6 C         -15.5094   -4.5355   19.5665 C.2     1  UNL1        0.1901
      7 N         -14.6706   -5.7722   19.4360 N.2     1  UNL1       -0.2236
      8 C         -13.2506   -5.3470   19.2059 C.2     1  UNL1        0.0863
      9 C         -11.9879   -6.1315   19.0055 C.3     1  UNL1        0.1112
     10 C          -9.3721   -7.6501   18.9774 C.3     1  UNL1        0.2520
     11 O          -9.4238   -6.2011   18.5930 O.2     1  UNL1       -0.4753
     12 S         -16.9899   -4.4952   19.8047 S.3     1  UNL1       -0.0709
     13 C         -17.9078   -5.3318   18.9635 C.3     1  UNL1        0.0913
     14 C         -17.7029   -6.8153   18.8778 C.ar    1  UNL1       -0.0108
     15 C         -17.8393   -7.6635   20.1075 C.ar    1  UNL1       -0.0025
     16 C         -17.6344   -9.1469   20.0218 C.ar    1  UNL1        0.0111
     17 C         -17.2931   -9.7822   18.7065 C.ar    1  UNL1        0.0577
     18 CL        -17.0882  -11.2657   18.6208 Cl      1  UNL1       -0.0822
     19 C         -17.1568   -8.9340   17.4769 C.ar    1  UNL1        0.0111
     20 C         -17.3617   -7.4505   17.5626 C.ar    1  UNL1       -0.0025
@<TRIPOS>BOND
     1    10    11    1
     2    11     1    1
     3     1     2    2
     4     2     3    1
     5     3     4    2
     6     4     5    1
     7     5     6    2
     8     6    12    1
     9    12    13    1
    10    13    14    1
    11    14    15   ar
    12    15    16   ar
    13    16    17   ar
    14    17    18    1
    15    17    19   ar
    16    19    20   ar
    17     6     7    1
    18     7     8    2
    19     8     9    1
    20     9     1    1
    21     8     4    1
    22    20    14   ar
@<TRIPOS>MOLECULE
*****
 20 22 0 0 0
SMALL
GASTEIGER

@<TRIPOS>ATOM
      1 C         -10.9321  -18.4382   22.1745 C.2     1  UNL1        0.1223
      2 C         -10.7752  -19.6830   22.9964 C.2     1  UNL1        0.0343
      3 C          -9.4152  -20.2836   23.1959 C.2     1  UNL1        0.0232
      4 C          -8.2121  -19.6392   22.5735 C.2     1  UNL1        0.0975
      5 N          -6.7563  -19.9998   22.5952 N.2     1  UNL1       -0.2200
      6 C          -6.0135  -18.9777   21.7867 C.2     1  UNL1        0.1901
      7 N          -7.0102  -17.9855   21.2653 N.2     1  UNL1       -0.2236
      8 C          -8.3691  -18.3943   21.7516 C.2     1  UNL1        0.0863
      9 C          -9.7291  -17.7938   21.5521 C.3     1  UNL1        0.1112
     10 C         -13.2244  -17.6885   23.1406 C.3     1  UNL1        0.2520
     11 O         -12.2921  -17.8376   21.9750 O.2     1  UNL1       -0.4753
     12 S          -4.5336  -18.9524   21.5425 S.3     1  UNL1       -0.0709
     13 C          -3.6672  -17.9801   22.2868 C.3     1  UNL1        0.0913
     14 C          -4.2288  -17.2084   23.4439 C.ar    1  UNL1       -0.0108
     15 C          -3.9568  -17.6587   24.8486 C.ar    1  UNL1       -0.0025
     16 C          -4.5184  -16.8870   26.0057 C.ar    1  UNL1        0.0111
     17 C          -5.3521  -15.6648   25.7581 C.ar    1  UNL1        0.0577
     18 CL         -5.9137  -14.8930   26.9152 Cl      1  UNL1       -0.0822
     19 C          -5.6242  -15.2144   24.3534 C.ar    1  UNL1        0.0111
     20 C          -5.0625  -15.9862   23.1963 C.ar    1  UNL1       -0.0025
@<TRIPOS>BOND
     1    10    11    1
     2    11     1    1
     3     1     2    2
     4     2     3    1
     5     3     4    2
     6     4     5    1
     7     5     6    2
     8     6    12    1
     9    12    13    1
    10    13    14    1
    11    14    15   ar
    12    15    16   ar
    13    16    17   ar
    14    17    18    1
    15    17    19   ar
    16    19    20   ar
    17     6     7    1
    18     7     8    2
    19     8     9    1
    20     9     1    1
    21     8     4    1
    22    20    14   ar
