@<TRIPOS>MOLECULE
*****
 21 23 0 0 0
SMALL
GASTEIGER

@<TRIPOS>ATOM
      1 C          -4.9752  -18.8851   22.2623 C.3     1  UNL1        0.0766
      2 C          -5.9246  -19.9508   21.8011 C.3     1  UNL1        0.0209
      3 C          -7.3980  -19.7956   22.0362 C.3     1  UNL1        0.0104
      4 C          -7.9218  -18.5747   22.7324 C.3     1  UNL1        0.0444
      5 C          -6.9724  -17.5089   23.1937 C.ar    1  UNL1       -0.0211
      6 C          -7.4963  -16.2880   23.8900 C.ar    1  UNL1       -0.0042
      7 C          -6.5468  -15.2222   24.3512 C.ar    1  UNL1       -0.0003
      8 C          -5.0735  -15.3774   24.1162 C.ar    1  UNL1       -0.0003
      9 C          -4.5496  -16.5984   23.4199 C.ar    1  UNL1       -0.0033
     10 C          -5.4991  -17.6641   22.9587 C.ar    1  UNL1       -0.0117
     11 C          -9.3952  -18.4195   22.9675 C.ar    1  UNL1       -0.0175
     12 C         -10.0115  -18.9379   24.2329 C.ar    1  UNL1       -0.0030
     13 C         -11.4848  -18.7827   24.4680 C.ar    1  UNL1        0.0119
     14 C         -12.3418  -18.1091   23.4376 C.ar    1  UNL1        0.0682
     15 CL        -13.8151  -17.9539   23.6727 Cl      1  UNL1       -0.0814
     16 C         -11.7255  -17.5906   22.1721 C.ar    1  UNL1        0.0679
     17 CL        -12.5825  -16.9170   21.1417 Cl      1  UNL1       -0.0814
     18 C         -10.2522  -17.7458   21.9370 C.ar    1  UNL1        0.0083
     19 C          -3.0080  -19.9241   20.9206 C.3     1  UNL1        0.0861
     20 N          -3.5019  -19.0403   22.0273 N.3     1  UNL1       -0.2940
     21 H          -3.1328  -18.1069   21.8457 H       1  UNL1        0.1235
@<TRIPOS>BOND
     1    19    20    1
     2     1    20    1
     3     1     2    1
     4     2     3    1
     5     3     4    1
     6     4    11    1
     7    11    12   ar
     8    12    13   ar
     9    13    14   ar
    10    14    15    1
    11    14    16   ar
    12    16    17    1
    13    16    18   ar
    14     4     5    1
    15     5     6   ar
    16     6     7   ar
    17     7     8   ar
    18     8     9   ar
    19     9    10   ar
    20    10     1    1
    21    18    11   ar
    22    10     5   ar
    23    20    21    1
@<TRIPOS>MOLECULE
*****
 21 23 0 0 0
SMALL
GASTEIGER

@<TRIPOS>ATOM
      1 C          -4.3013  -17.4154   22.8882 C.3     1  UNL1        0.0766
      2 C          -5.0633  -16.4337   23.7282 C.3     1  UNL1        0.0209
      3 C          -6.5612  -16.4939   23.7792 C.3     1  UNL1        0.0104
      4 C          -7.2972  -17.5358   22.9901 C.3     1  UNL1        0.0444
      5 C          -6.5353  -18.5176   22.1500 C.ar    1  UNL1       -0.0211
      6 C          -7.2713  -19.5595   21.3610 C.ar    1  UNL1       -0.0042
      7 C          -6.5094  -20.5413   20.5210 C.ar    1  UNL1       -0.0003
      8 C          -5.0115  -20.4811   20.4700 C.ar    1  UNL1       -0.0003
      9 C          -4.2755  -19.4391   21.2590 C.ar    1  UNL1       -0.0033
     10 C          -5.0374  -18.4574   22.0991 C.ar    1  UNL1       -0.0117
     11 C          -8.7951  -17.5960   23.0411 C.ar    1  UNL1       -0.0175
     12 C          -9.4777  -18.3916   24.1139 C.ar    1  UNL1       -0.0030
     13 C         -10.9756  -18.4518   24.1649 C.ar    1  UNL1        0.0119
     14 C         -11.7910  -17.7164   23.1430 C.ar    1  UNL1        0.0682
     15 CL        -13.2889  -17.7766   23.1940 Cl      1  UNL1       -0.0814
     16 C         -11.1084  -16.9207   22.0701 C.ar    1  UNL1        0.0679
     17 CL        -11.9238  -16.1852   21.0482 Cl      1  UNL1       -0.0814
     18 C          -9.6105  -16.8605   22.0191 C.ar    1  UNL1        0.0083
     19 C          -2.1225  -16.4106   21.8917 C.3     1  UNL1        0.0861
     20 N          -2.8034  -17.3552   22.8372 N.3     1  UNL1       -0.2940
     21 H          -2.4864  -17.1120   23.7757 H       1  UNL1        0.1235
@<TRIPOS>BOND
     1    19    20    1
     2     1    20    1
     3     1     2    1
     4     2     3    1
     5     3     4    1
     6     4    11    1
     7    11    12   ar
     8    12    13   ar
     9    13    14   ar
    10    14    15    1
    11    14    16   ar
    12    16    17    1
    13    16    18   ar
    14     4     5    1
    15     5     6   ar
    16     6     7   ar
    17     7     8   ar
    18     8     9   ar
    19     9    10   ar
    20    10     1    1
    21    18    11   ar
    22    10     5   ar
    23    20    21    1
@<TRIPOS>MOLECULE
*****
 21 23 0 0 0
SMALL
GASTEIGER

@<TRIPOS>ATOM
      1 C          -9.9392  -18.6478   23.6761 C.3     1  UNL1        0.0766
      2 C          -9.5306  -19.8371   22.8584 C.3     1  UNL1        0.0209
      3 C          -8.1773  -19.8740   22.2125 C.3     1  UNL1        0.0104
      4 C          -7.2326  -18.7216   22.3842 C.3     1  UNL1        0.0444
      5 C          -7.6412  -17.5323   23.2019 C.ar    1  UNL1       -0.0211
      6 C          -6.6965  -16.3799   23.3736 C.ar    1  UNL1       -0.0042
      7 C          -7.1051  -15.1906   24.1913 C.ar    1  UNL1       -0.0003
      8 C          -8.4583  -15.1537   24.8373 C.ar    1  UNL1       -0.0003
      9 C          -9.4030  -16.3061   24.6656 C.ar    1  UNL1       -0.0033
     10 C          -8.9944  -17.4954   23.8479 C.ar    1  UNL1       -0.0117
     11 C          -5.8794  -18.7585   21.7382 C.ar    1  UNL1       -0.0175
     12 C          -5.7544  -19.0703   20.2763 C.ar    1  UNL1       -0.0030
     13 C          -4.4011  -19.1072   19.6303 C.ar    1  UNL1        0.0119
     14 C          -3.1728  -18.8322   20.4462 C.ar    1  UNL1        0.0682
     15 CL         -1.8196  -18.8691   19.8002 Cl      1  UNL1       -0.0814
     16 C          -3.2978  -18.5204   21.9081 C.ar    1  UNL1        0.0679
     17 CL         -2.0695  -18.2455   22.7240 Cl      1  UNL1       -0.0814
     18 C          -4.6510  -18.4835   22.5541 C.ar    1  UNL1        0.0083
     19 C         -12.4864  -18.1559   23.5365 C.3     1  UNL1        0.0861
     20 N         -11.2924  -18.6110   24.3221 N.3     1  UNL1       -0.2940
     21 H         -11.4930  -19.5592   24.6399 H       1  UNL1        0.1235
@<TRIPOS>BOND
     1    19    20    1
     2     1    20    1
     3     1     2    1
     4     2     3    1
     5     3     4    1
     6     4    11    1
     7    11    12   ar
     8    12    13   ar
     9    13    14   ar
    10    14    15    1
    11    14    16   ar
    12    16    17    1
    13    16    18   ar
    14     4     5    1
    15     5     6   ar
    16     6     7   ar
    17     7     8   ar
    18     8     9   ar
    19     9    10   ar
    20    10     1    1
    21    18    11   ar
    22    10     5   ar
    23    20    21    1
@<TRIPOS>MOLECULE
*****
 21 23 0 0 0
SMALL
GASTEIGER

@<TRIPOS>ATOM
      1 C          -9.4702  -19.0395   20.3444 C.3     1  UNL1        0.0766
      2 C          -8.1243  -19.3403   20.9343 C.3     1  UNL1        0.0209
      3 C          -7.6835  -18.6468   22.1892 C.3     1  UNL1        0.0104
      4 C          -8.5886  -17.6525   22.8542 C.3     1  UNL1        0.0444
      5 C          -9.9346  -17.3517   22.2643 C.ar    1  UNL1       -0.0211
      6 C         -10.8397  -16.3575   22.9292 C.ar    1  UNL1       -0.0042
      7 C         -12.1856  -16.0567   22.3393 C.ar    1  UNL1       -0.0003
      8 C         -12.6264  -16.7503   21.0845 C.ar    1  UNL1       -0.0003
      9 C         -11.7213  -17.7445   20.4195 C.ar    1  UNL1       -0.0033
     10 C         -10.3754  -18.0452   21.0094 C.ar    1  UNL1       -0.0117
     11 C          -8.1478  -16.9590   24.1091 C.ar    1  UNL1       -0.0175
     12 C          -8.9963  -17.0317   25.3438 C.ar    1  UNL1       -0.0030
     13 C          -8.5555  -16.3381   26.5987 C.ar    1  UNL1        0.0119
     14 C          -7.2661  -15.5720   26.6188 C.ar    1  UNL1        0.0682
     15 CL         -6.8253  -14.8784   27.8737 Cl      1  UNL1       -0.0814
     16 C          -6.4175  -15.4993   25.3840 C.ar    1  UNL1        0.0679
     17 CL         -5.1281  -14.7331   25.4041 Cl      1  UNL1       -0.0814
     18 C          -6.8583  -16.1928   24.1291 C.ar    1  UNL1        0.0083
     19 C          -8.9615  -20.6344   18.3576 C.3     1  UNL1        0.0861
     20 N          -9.9111  -19.7331   19.0896 N.3     1  UNL1       -0.2940
     21 H         -10.7234  -20.2987   19.3356 H       1  UNL1        0.1235
@<TRIPOS>BOND
     1    19    20    1
     2     1    20    1
     3     1     2    1
     4     2     3    1
     5     3     4    1
     6     4    11    1
     7    11    12   ar
     8    12    13   ar
     9    13    14   ar
    10    14    15    1
    11    14    16   ar
    12    16    17    1
    13    16    18   ar
    14     4     5    1
    15     5     6   ar
    16     6     7   ar
    17     7     8   ar
    18     8     9   ar
    19     9    10   ar
    20    10     1    1
    21    18    11   ar
    22    10     5   ar
    23    20    21    1
@<TRIPOS>MOLECULE
*****
 21 23 0 0 0
SMALL
GASTEIGER

@<TRIPOS>ATOM
      1 C         -12.2758   -3.3016   19.2326 C.3     1  UNL1        0.0766
      2 C         -13.7744   -3.2454   19.2631 C.3     1  UNL1        0.0209
      3 C         -14.5751   -4.5077   19.1377 C.3     1  UNL1        0.0104
      4 C         -13.8771   -5.8261   18.9817 C.3     1  UNL1        0.0444
      5 C         -12.3784   -5.8824   18.9512 C.ar    1  UNL1       -0.0211
      6 C         -11.6804   -7.2009   18.7952 C.ar    1  UNL1       -0.0042
      7 C         -10.1818   -7.2571   18.7647 C.ar    1  UNL1       -0.0003
      8 C          -9.3812   -5.9948   18.8902 C.ar    1  UNL1       -0.0003
      9 C         -10.0792   -4.6764   19.0462 C.ar    1  UNL1       -0.0033
     10 C         -11.5778   -4.6202   19.0767 C.ar    1  UNL1       -0.0117
     11 C         -14.6777   -7.0884   18.8562 C.ar    1  UNL1       -0.0175
     12 C         -14.1900   -8.2016   17.9771 C.ar    1  UNL1       -0.0030
     13 C         -14.9906   -9.4638   17.8517 C.ar    1  UNL1        0.0119
     14 C         -16.2789   -9.6129   18.6053 C.ar    1  UNL1        0.0682
     15 CL        -17.0795  -10.8752   18.4799 Cl      1  UNL1       -0.0814
     16 C         -16.7666   -8.4997   19.4845 C.ar    1  UNL1        0.0679
     17 CL        -18.0549   -8.6487   20.2382 Cl      1  UNL1       -0.0814
     18 C         -15.9660   -7.2374   19.6100 C.ar    1  UNL1        0.0083
     19 C         -11.3985   -1.0822   18.2058 C.3     1  UNL1        0.0861
     20 N         -11.4752   -2.0394   19.3581 N.3     1  UNL1       -0.2940
     21 H         -11.8641   -1.5211   20.1459 H       1  UNL1        0.1235
@<TRIPOS>BOND
     1    19    20    1
     2     1    20    1
     3     1     2    1
     4     2     3    1
     5     3     4    1
     6     4    11    1
     7    11    12   ar
     8    12    13   ar
     9    13    14   ar
    10    14    15    1
    11    14    16   ar
    12    16    17    1
    13    16    18   ar
    14     4     5    1
    15     5     6   ar
    16     6     7   ar
    17     7     8   ar
    18     8     9   ar
    19     9    10   ar
    20    10     1    1
    21    18    11   ar
    22    10     5   ar
    23    20    21    1
@<TRIPOS>MOLECULE
*****
 21 23 0 0 0
SMALL
GASTEIGER

@<TRIPOS>ATOM
      1 C         -10.5794  -18.2004   20.9996 C.3     1  UNL1        0.0766
      2 C          -9.9588  -19.1090   19.9803 C.3     1  UNL1        0.0209
      3 C          -8.4835  -19.3780   20.0145 C.3     1  UNL1        0.0104
      4 C          -7.6288  -18.7382   21.0681 C.3     1  UNL1        0.0444
      5 C          -8.2494  -17.8295   22.0876 C.ar    1  UNL1       -0.0211
      6 C          -7.3946  -17.1898   23.1412 C.ar    1  UNL1       -0.0042
      7 C          -8.0152  -16.2811   24.1605 C.ar    1  UNL1       -0.0003
      8 C          -9.4905  -16.0122   24.1263 C.ar    1  UNL1       -0.0003
      9 C         -10.3452  -16.6519   23.0727 C.ar    1  UNL1       -0.0033
     10 C          -9.7247  -17.5606   22.0533 C.ar    1  UNL1       -0.0117
     11 C          -6.1535  -19.0072   21.1023 C.ar    1  UNL1       -0.0175
     12 C          -5.5135  -19.5193   22.3585 C.ar    1  UNL1       -0.0030
     13 C          -4.0382  -19.7883   22.3928 C.ar    1  UNL1        0.0119
     14 C          -3.2029  -19.5451   21.1708 C.ar    1  UNL1        0.0682
     15 CL         -1.7276  -19.8140   21.2051 Cl      1  UNL1       -0.0814
     16 C          -3.8430  -19.0329   19.9146 C.ar    1  UNL1        0.0679
     17 CL         -3.0077  -18.7897   18.6926 Cl      1  UNL1       -0.0814
     18 C          -5.3183  -18.7639   19.8803 C.ar    1  UNL1        0.0083
     19 C         -12.5612  -16.5783   20.5624 C.3     1  UNL1        0.0861
     20 N         -12.0547  -17.9314   20.9654 N.3     1  UNL1       -0.2940
     21 H         -12.4616  -18.6038   20.3152 H       1  UNL1        0.1235
@<TRIPOS>BOND
     1    19    20    1
     2     1    20    1
     3     1     2    1
     4     2     3    1
     5     3     4    1
     6     4    11    1
     7    11    12   ar
     8    12    13   ar
     9    13    14   ar
    10    14    15    1
    11    14    16   ar
    12    16    17    1
    13    16    18   ar
    14     4     5    1
    15     5     6   ar
    16     6     7   ar
    17     7     8   ar
    18     8     9   ar
    19     9    10   ar
    20    10     1    1
    21    18    11   ar
    22    10     5   ar
    23    20    21    1
@<TRIPOS>MOLECULE
*****
 21 23 0 0 0
SMALL
GASTEIGER

@<TRIPOS>ATOM
      1 C         -11.6770   -5.4881   19.0197 C.3     1  UNL1        0.0766
      2 C         -11.6423   -6.8853   18.4751 C.3     1  UNL1        0.0209
      3 C         -12.9133   -7.6713   18.3450 C.3     1  UNL1        0.0104
      4 C         -14.2189   -7.0601   18.7593 C.3     1  UNL1        0.0444
      5 C         -14.2536   -5.6628   19.3039 C.ar    1  UNL1       -0.0211
      6 C         -15.5592   -5.0516   19.7183 C.ar    1  UNL1       -0.0042
      7 C         -15.5939   -3.6544   20.2629 C.ar    1  UNL1       -0.0003
      8 C         -14.3230   -2.8684   20.3931 C.ar    1  UNL1       -0.0003
      9 C         -13.0174   -3.4796   19.9787 C.ar    1  UNL1       -0.0033
     10 C         -12.9827   -4.8768   19.4341 C.ar    1  UNL1       -0.0117
     11 C         -15.4898   -7.8461   18.6292 C.ar    1  UNL1       -0.0175
     12 C         -15.9409   -8.7338   19.7510 C.ar    1  UNL1       -0.0030
     13 C         -17.2118   -9.5198   19.6208 C.ar    1  UNL1        0.0119
     14 C         -18.0317   -9.4181   18.3688 C.ar    1  UNL1        0.0682
     15 CL        -19.3026  -10.2041   18.2387 Cl      1  UNL1       -0.0814
     16 C         -17.5806   -8.5303   17.2470 C.ar    1  UNL1        0.0679
     17 CL        -18.4005   -8.4286   15.9950 Cl      1  UNL1       -0.0814
     18 C         -16.3097   -7.7443   17.3771 C.ar    1  UNL1        0.0083
     19 C          -9.6060   -4.3621   17.9275 C.3     1  UNL1        0.0861
     20 N         -10.4061   -4.7021   19.1498 N.3     1  UNL1       -0.2940
     21 H         -10.6508   -3.8184   19.5967 H       1  UNL1        0.1235
@<TRIPOS>BOND
     1    19    20    1
     2     1    20    1
     3     1     2    1
     4     2     3    1
     5     3     4    1
     6     4    11    1
     7    11    12   ar
     8    12    13   ar
     9    13    14   ar
    10    14    15    1
    11    14    16   ar
    12    16    17    1
    13    16    18   ar
    14     4     5    1
    15     5     6   ar
    16     6     7   ar
    17     7     8   ar
    18     8     9   ar
    19     9    10   ar
    20    10     1    1
    21    18    11   ar
    22    10     5   ar
    23    20    21    1
@<TRIPOS>MOLECULE
*****
 21 23 0 0 0
SMALL
GASTEIGER

@<TRIPOS>ATOM
      1 C         -13.1289    0.2709   18.1621 C.3     1  UNL1        0.0766
      2 C         -11.7809   -0.0232   17.5734 C.3     1  UNL1        0.0209
      3 C         -11.2939   -1.4391   17.4848 C.3     1  UNL1        0.0104
      4 C         -12.1549   -2.5611   17.9848 C.3     1  UNL1        0.0444
      5 C         -13.5029   -2.2670   18.5736 C.ar    1  UNL1       -0.0211
      6 C         -14.3638   -3.3889   19.0736 C.ar    1  UNL1       -0.0042
      7 C         -15.7117   -3.0949   19.6623 C.ar    1  UNL1       -0.0003
      8 C         -16.1987   -1.6789   19.7509 C.ar    1  UNL1       -0.0003
      9 C         -15.3378   -0.5570   19.2509 C.ar    1  UNL1       -0.0033
     10 C         -13.9899   -0.8511   18.6622 C.ar    1  UNL1       -0.0117
     11 C         -11.6678   -3.9770   17.8962 C.ar    1  UNL1       -0.0175
     12 C         -12.2550   -4.9098   16.8788 C.ar    1  UNL1       -0.0030
     13 C         -11.7680   -6.3258   16.7901 C.ar    1  UNL1        0.0119
     14 C         -10.6938   -6.8090   17.7189 C.ar    1  UNL1        0.0682
     15 CL        -10.2068   -8.2249   17.6303 Cl      1  UNL1       -0.0814
     16 C         -10.1066   -5.8762   18.7364 C.ar    1  UNL1        0.0679
     17 CL         -9.0325   -6.3594   19.6651 Cl      1  UNL1       -0.0814
     18 C         -10.5936   -4.4602   18.8250 C.ar    1  UNL1        0.0083
     19 C         -13.7447    2.5149   17.0067 C.3     1  UNL1        0.0861
     20 N         -13.6159    1.6869   18.2508 N.3     1  UNL1       -0.2940
     21 H         -14.5408    1.6538   18.6796 H       1  UNL1        0.1235
@<TRIPOS>BOND
     1    19    20    1
     2     1    20    1
     3     1     2    1
     4     2     3    1
     5     3     4    1
     6     4    11    1
     7    11    12   ar
     8    12    13   ar
     9    13    14   ar
    10    14    15    1
    11    14    16   ar
    12    16    17    1
    13    16    18   ar
    14     4     5    1
    15     5     6   ar
    16     6     7   ar
    17     7     8   ar
    18     8     9   ar
    19     9    10   ar
    20    10     1    1
    21    18    11   ar
    22    10     5   ar
    23    20    21    1
@<TRIPOS>MOLECULE
*****
 21 23 0 0 0
SMALL
GASTEIGER

@<TRIPOS>ATOM
      1 C           4.5141   -2.4160   23.4175 C.3     1  UNL1        0.0766
      2 C           4.0032   -1.1373   24.0124 C.3     1  UNL1        0.0209
      3 C           3.2062   -0.1846   23.1713 C.3     1  UNL1        0.0104
      4 C           2.9202   -0.5107   21.7354 C.3     1  UNL1        0.0444
      5 C           3.4311   -1.7895   21.1405 C.ar    1  UNL1       -0.0211
      6 C           3.1450   -2.1155   19.7046 C.ar    1  UNL1       -0.0042
      7 C           3.6559   -3.3942   19.1098 C.ar    1  UNL1       -0.0003
      8 C           4.4529   -4.3469   19.9509 C.ar    1  UNL1       -0.0003
      9 C           4.7389   -4.0208   21.3868 C.ar    1  UNL1       -0.0033
     10 C           4.2280   -2.7421   21.9816 C.ar    1  UNL1       -0.0117
     11 C           2.1232    0.4419   20.8944 C.ar    1  UNL1       -0.0175
     12 C           0.6243    0.4089   20.9396 C.ar    1  UNL1       -0.0030
     13 C          -0.1726    1.3615   20.0985 C.ar    1  UNL1        0.0119
     14 C           0.5294    2.3472   19.2122 C.ar    1  UNL1        0.0682
     15 CL         -0.2676    3.2998   18.3712 Cl      1  UNL1       -0.0814
     16 C           2.0284    2.3803   19.1669 C.ar    1  UNL1        0.0679
     17 CL          2.7303    3.3660   18.2806 Cl      1  UNL1       -0.0814
     18 C           2.8253    1.4277   20.0080 C.ar    1  UNL1        0.0083
     19 C           6.7688   -3.1139   24.5033 C.3     1  UNL1        0.0861
     20 N           5.3110   -3.3686   24.2586 N.3     1  UNL1       -0.2940
     21 H           4.8604   -3.4019   25.1730 H       1  UNL1        0.1235
@<TRIPOS>BOND
     1    19    20    1
     2     1    20    1
     3     1     2    1
     4     2     3    1
     5     3     4    1
     6     4    11    1
     7    11    12   ar
     8    12    13   ar
     9    13    14   ar
    10    14    15    1
    11    14    16   ar
    12    16    17    1
    13    16    18   ar
    14     4     5    1
    15     5     6   ar
    16     6     7   ar
    17     7     8   ar
    18     8     9   ar
    19     9    10   ar
    20    10     1    1
    21    18    11   ar
    22    10     5   ar
    23    20    21    1
