@<TRIPOS>MOLECULE
*****
 31 32 0 0 0
SMALL
GASTEIGER

@<TRIPOS>ATOM
      1 N          -3.2754  -18.3476   20.7697 N.3     1  UNL1       -0.2670
      2 C          -2.8203  -19.2958   19.7002 C.3     1  UNL1        0.1047
      3 C          -3.6240  -20.5254   19.3965 C.3     1  UNL1        0.1595
      4 O          -4.8827  -20.8068   20.1622 O.3     1  UNL1       -0.3516
      5 C          -5.3378  -19.8586   21.2317 C.3     1  UNL1        0.1507
      6 C          -4.5341  -18.6290   21.5354 C.3     1  UNL1        0.1039
      7 C          -2.4717  -17.1181   21.0734 C.3     1  UNL1        0.0938
      8 C          -2.5782  -16.4661   22.4201 C.3     1  UNL1        0.1082
      9 N          -5.8711  -15.0473   24.1213 N.am    1  UNL1       -0.2921
     10 C          -4.7090  -15.9439   23.8119 C.2     1  UNL1        0.3007
     11 O          -4.5157  -17.2148   24.5847 O.2     1  UNL1       -0.2528
     12 N          -3.7403  -15.5695   22.7295 N.am    1  UNL1       -0.2875
     13 H          -5.9980  -14.2132   23.6140 H       1  UNL1        0.1508
     14 H          -3.8672  -14.7354   22.2222 H       1  UNL1        0.1510
     15 C          -7.8239  -15.8745   24.1661 C.3     1  UNL1        0.0197
     16 C          -6.8398  -15.4216   25.2036 C.3     1  UNL1        0.0583
     17 C          -5.8557  -14.9688   26.2411 C.3     1  UNL1        0.0197
     18 C          -7.8085  -15.7959   26.2860 C.3     1  UNL1        0.0197
     19 C          -6.5966  -20.1399   21.9975 C.3     1  UNL1        0.1207
     20 N          -7.8298  -19.3264   21.7383 N.am    1  UNL1       -0.2985
     21 C          -9.0473  -19.5167   22.5937 C.2     1  UNL1        0.2460
     22 O          -9.0315  -20.5206   23.7081 O.2     1  UNL1       -0.2701
     23 H          -7.8402  -18.6676   21.0069 H       1  UNL1        0.1498
     24 C         -10.2806  -18.7032   22.3345 C.ar    1  UNL1        0.0550
     25 C         -10.3557  -17.8195   21.1247 C.ar    1  UNL1        0.0160
     26 C         -11.5889  -17.0060   20.8656 C.ar    1  UNL1        0.0587
     27 CL        -11.6640  -16.1223   19.6558 Cl      1  UNL1       -0.0822
     28 C         -12.7472  -17.0761   21.8162 C.ar    1  UNL1        0.0228
     29 C         -12.6721  -17.9598   23.0259 C.ar    1  UNL1        0.0587
     30 CL        -13.8303  -18.0299   23.9765 Cl      1  UNL1       -0.0822
     31 C         -11.4388  -18.7733   23.2851 C.ar    1  UNL1        0.0160
@<TRIPOS>BOND
     1    15    16    1
     2    16    17    1
     3    16    18    1
     4    16     9    1
     5     9    10   am
     6    10    11    2
     7    10    12   am
     8    12     8    1
     9     8     7    1
    10     7     1    1
    11     1     2    1
    12     2     3    1
    13     3     4    1
    14     4     5    1
    15     5    19    1
    16    19    20    1
    17    20    21   am
    18    21    22    2
    19    21    24    1
    20    24    25   ar
    21    25    26   ar
    22    26    27    1
    23    26    28   ar
    24    28    29   ar
    25    29    30    1
    26    29    31   ar
    27     5     6    1
    28     6     1    1
    29    31    24   ar
    30     9    13    1
    31    12    14    1
    32    20    23    1
@<TRIPOS>MOLECULE
*****
 31 32 0 0 0
SMALL
GASTEIGER

@<TRIPOS>ATOM
      1 N         -11.1829  -18.9203   21.9790 N.3     1  UNL1       -0.2670
      2 C         -11.9916  -17.9083   21.2228 C.3     1  UNL1        0.1047
      3 C         -11.5501  -17.4617   19.8606 C.3     1  UNL1        0.1595
      4 O         -10.2999  -18.0270   19.2546 O.3     1  UNL1       -0.3516
      5 C          -9.4912  -19.0390   20.0108 C.3     1  UNL1        0.1507
      6 C          -9.9327  -19.4856   21.3730 C.3     1  UNL1        0.1039
      7 C         -11.6244  -19.3669   23.3412 C.3     1  UNL1        0.0938
      8 C         -11.1218  -18.6565   24.5629 C.3     1  UNL1        0.1082
      9 N          -8.4634  -15.7932   25.2592 N.am    1  UNL1       -0.2921
     10 C          -9.2469  -17.0645   25.4000 C.2     1  UNL1        0.3007
     11 O          -8.9391  -18.0152   26.5186 O.2     1  UNL1       -0.2528
     12 N         -10.3383  -17.3851   24.4221 N.am    1  UNL1       -0.2875
     13 H          -8.6655  -15.1692   24.5250 H       1  UNL1        0.1508
     14 H         -10.5404  -16.7611   23.6879 H       1  UNL1        0.1510
     15 C          -8.3996  -15.2121   27.2984 C.3     1  UNL1        0.0197
     16 C          -7.3721  -15.4725   26.2370 C.3     1  UNL1        0.0583
     17 C          -6.3447  -15.7330   25.1757 C.3     1  UNL1        0.0197
     18 C          -6.2807  -15.1519   27.2148 C.3     1  UNL1        0.0197
     19 C          -8.2409  -19.6043   19.4048 C.3     1  UNL1        0.1207
     20 N          -6.9138  -18.9666   19.6912 N.am    1  UNL1       -0.2985
     21 C          -5.7932  -19.7882   20.2563 C.2     1  UNL1        0.2460
     22 O          -5.9997  -21.2475   20.5349 O.2     1  UNL1       -0.2701
     23 H          -6.7783  -18.0087   19.5084 H       1  UNL1        0.1498
     24 C          -4.4661  -19.1504   20.5428 C.ar    1  UNL1        0.0550
     25 C          -4.0903  -18.8015   21.9524 C.ar    1  UNL1        0.0160
     26 C          -2.7633  -18.1637   22.2389 C.ar    1  UNL1        0.0587
     27 CL         -2.3875  -17.8149   23.6485 Cl      1  UNL1       -0.0822
     28 C          -1.8119  -17.8748   21.1157 C.ar    1  UNL1        0.0228
     29 C          -2.1877  -18.2237   19.7061 C.ar    1  UNL1        0.0587
     30 CL         -1.2364  -17.9347   18.5829 Cl      1  UNL1       -0.0822
     31 C          -3.5149  -18.8615   19.4196 C.ar    1  UNL1        0.0160
@<TRIPOS>BOND
     1    15    16    1
     2    16    17    1
     3    16    18    1
     4    16     9    1
     5     9    10   am
     6    10    11    2
     7    10    12   am
     8    12     8    1
     9     8     7    1
    10     7     1    1
    11     1     2    1
    12     2     3    1
    13     3     4    1
    14     4     5    1
    15     5    19    1
    16    19    20    1
    17    20    21   am
    18    21    22    2
    19    21    24    1
    20    24    25   ar
    21    25    26   ar
    22    26    27    1
    23    26    28   ar
    24    28    29   ar
    25    29    30    1
    26    29    31   ar
    27     5     6    1
    28     6     1    1
    29    31    24   ar
    30     9    13    1
    31    12    14    1
    32    20    23    1
@<TRIPOS>MOLECULE
*****
 31 32 0 0 0
SMALL
GASTEIGER

@<TRIPOS>ATOM
      1 N         -11.0606  -19.0763   22.0212 N.3     1  UNL1       -0.2670
      2 C         -11.9302  -18.0796   21.3139 C.3     1  UNL1        0.1047
      3 C         -11.5528  -17.5920   19.9465 C.3     1  UNL1        0.1595
      4 O         -10.3059  -18.1012   19.2863 O.3     1  UNL1       -0.3516
      5 C          -9.4363  -19.0978   19.9937 C.3     1  UNL1        0.1507
      6 C          -9.8136  -19.5854   21.3611 C.3     1  UNL1        0.1039
      7 C         -11.4379  -19.5638   23.3887 C.3     1  UNL1        0.0938
      8 C         -11.1532  -18.7154   24.5924 C.3     1  UNL1        0.1082
      9 N          -8.5174  -15.8174   25.2284 N.am    1  UNL1       -0.2921
     10 C          -9.2730  -17.1044   25.3796 C.2     1  UNL1        0.3007
     11 O          -8.9041  -18.0672   26.4690 O.2     1  UNL1       -0.2528
     12 N         -10.3976  -17.4285   24.4413 N.am    1  UNL1       -0.2875
     13 H          -8.7596  -15.1855   24.5134 H       1  UNL1        0.1508
     14 H         -10.6398  -16.7965   23.7262 H       1  UNL1        0.1510
     15 C          -8.3823  -15.2426   27.2658 C.3     1  UNL1        0.0197
     16 C          -7.3929  -15.4933   26.1666 C.3     1  UNL1        0.0583
     17 C          -6.4036  -15.7440   25.0675 C.3     1  UNL1        0.0197
     18 C          -6.2683  -15.1691   27.1049 C.3     1  UNL1        0.0197
     19 C          -8.1892  -19.6070   19.3335 C.3     1  UNL1        0.1207
     20 N          -6.8657  -18.9704   19.6384 N.am    1  UNL1       -0.2985
     21 C          -5.7589  -19.7893   20.2338 C.2     1  UNL1        0.2460
     22 O          -5.9757  -21.2448   20.5243 O.2     1  UNL1       -0.2701
     23 H          -6.7235  -18.0150   19.4477 H       1  UNL1        0.1498
     24 C          -4.4354  -19.1526   20.5387 C.ar    1  UNL1        0.0550
     25 C          -3.4623  -18.8780   19.4307 C.ar    1  UNL1        0.0160
     26 C          -2.1388  -18.2414   19.7356 C.ar    1  UNL1        0.0587
     27 CL         -1.1656  -17.9667   18.6276 Cl      1  UNL1       -0.0822
     28 C          -1.7884  -17.8793   21.1485 C.ar    1  UNL1        0.0228
     29 C          -2.7615  -18.1539   22.2564 C.ar    1  UNL1        0.0587
     30 CL         -2.4112  -17.7919   23.6693 Cl      1  UNL1       -0.0822
     31 C          -4.0851  -18.7906   21.9515 C.ar    1  UNL1        0.0160
@<TRIPOS>BOND
     1    15    16    1
     2    16    17    1
     3    16    18    1
     4    16     9    1
     5     9    10   am
     6    10    11    2
     7    10    12   am
     8    12     8    1
     9     8     7    1
    10     7     1    1
    11     1     2    1
    12     2     3    1
    13     3     4    1
    14     4     5    1
    15     5    19    1
    16    19    20    1
    17    20    21   am
    18    21    22    2
    19    21    24    1
    20    24    25   ar
    21    25    26   ar
    22    26    27    1
    23    26    28   ar
    24    28    29   ar
    25    29    30    1
    26    29    31   ar
    27     5     6    1
    28     6     1    1
    29    31    24   ar
    30     9    13    1
    31    12    14    1
    32    20    23    1
@<TRIPOS>MOLECULE
*****
 31 32 0 0 0
SMALL
GASTEIGER

@<TRIPOS>ATOM
      1 N         -12.3459  -17.8216   21.5657 N.3     1  UNL1       -0.2670
      2 C         -12.4756  -16.4846   20.8980 C.3     1  UNL1        0.1047
      3 C         -11.5892  -16.1358   19.7393 C.3     1  UNL1        0.1595
      4 O         -10.5731  -17.1239   19.2483 O.3     1  UNL1       -0.3516
      5 C         -10.4434  -18.4608   19.9159 C.3     1  UNL1        0.1507
      6 C         -11.3298  -18.8096   21.0746 C.3     1  UNL1        0.1039
      7 C         -13.2323  -18.1704   22.7244 C.3     1  UNL1        0.0938
      8 C         -12.6547  -18.2790   24.1044 C.3     1  UNL1        0.1082
      9 N          -8.8029  -17.3457   24.3100 N.am    1  UNL1       -0.2921
     10 C         -10.2856  -17.2128   24.1258 C.2     1  UNL1        0.3007
     11 O         -10.8818  -15.8809   23.7787 O.2     1  UNL1       -0.2528
     12 N         -11.1720  -18.4119   24.2886 N.am    1  UNL1       -0.2875
     13 H          -8.4116  -18.2199   24.5378 H       1  UNL1        0.1508
     14 H         -10.7807  -19.2861   24.5164 H       1  UNL1        0.1510
     15 C          -7.9746  -16.3061   22.6568 C.3     1  UNL1        0.0197
     16 C          -7.9164  -16.1467   24.1472 C.3     1  UNL1        0.0583
     17 C          -7.8583  -15.9873   25.6375 C.3     1  UNL1        0.0197
     18 C          -7.0299  -14.9476   23.9844 C.3     1  UNL1        0.0197
     19 C          -9.4272  -19.4490   19.4248 C.3     1  UNL1        0.1207
     20 N          -7.9640  -19.1715   19.6033 N.am    1  UNL1       -0.2985
     21 C          -7.3298  -19.3298   20.9535 C.2     1  UNL1        0.2460
     22 O          -8.1589  -19.7656   22.1251 O.2     1  UNL1       -0.2701
     23 H          -7.4198  -18.8855   18.8344 H       1  UNL1        0.1498
     24 C          -5.8666  -19.0524   21.1320 C.ar    1  UNL1        0.0550
     25 C          -4.9351  -19.1563   19.9608 C.ar    1  UNL1        0.0160
     26 C          -3.4719  -18.8789   20.1393 C.ar    1  UNL1        0.0587
     27 CL         -2.5405  -18.9828   18.9682 Cl      1  UNL1       -0.0822
     28 C          -2.9400  -18.4974   21.4891 C.ar    1  UNL1        0.0228
     29 C          -3.8715  -18.3934   22.6602 C.ar    1  UNL1        0.0587
     30 CL         -3.3397  -18.0120   24.0099 Cl      1  UNL1       -0.0822
     31 C          -5.3348  -18.6709   22.4817 C.ar    1  UNL1        0.0160
@<TRIPOS>BOND
     1    15    16    1
     2    16    17    1
     3    16    18    1
     4    16     9    1
     5     9    10   am
     6    10    11    2
     7    10    12   am
     8    12     8    1
     9     8     7    1
    10     7     1    1
    11     1     2    1
    12     2     3    1
    13     3     4    1
    14     4     5    1
    15     5    19    1
    16    19    20    1
    17    20    21   am
    18    21    22    2
    19    21    24    1
    20    24    25   ar
    21    25    26   ar
    22    26    27    1
    23    26    28   ar
    24    28    29   ar
    25    29    30    1
    26    29    31   ar
    27     5     6    1
    28     6     1    1
    29    31    24   ar
    30     9    13    1
    31    12    14    1
    32    20    23    1
@<TRIPOS>MOLECULE
*****
 31 32 0 0 0
SMALL
GASTEIGER

@<TRIPOS>ATOM
      1 N          -3.1484  -17.7814   21.5179 N.3     1  UNL1       -0.2670
      2 C          -2.1602  -17.8868   20.3944 C.3     1  UNL1        0.1047
      3 C          -2.3881  -18.8703   19.2850 C.3     1  UNL1        0.1595
      4 O          -3.6041  -19.7483   19.2991 O.3     1  UNL1       -0.3516
      5 C          -4.5923  -19.6429   20.4226 C.3     1  UNL1        0.1507
      6 C          -4.3644  -18.6594   21.5320 C.3     1  UNL1        0.1039
      7 C          -2.9205  -16.7979   22.6274 C.3     1  UNL1        0.0938
      8 C          -4.0836  -16.0750   23.2395 C.3     1  UNL1        0.1082
      9 N          -6.3338  -16.2364   26.5045 N.am    1  UNL1       -0.2921
     10 C          -5.8035  -15.8080   25.1684 C.2     1  UNL1        0.3007
     11 O          -6.4627  -14.6842   24.4251 O.2     1  UNL1       -0.2528
     12 N          -4.6139  -16.5034   24.5756 N.am    1  UNL1       -0.2875
     13 H          -5.9012  -16.9740   26.9924 H       1  UNL1        0.1508
     14 H          -4.1813  -17.2410   25.0635 H       1  UNL1        0.1510
     15 C          -8.4314  -16.5494   26.4582 C.3     1  UNL1        0.0197
     16 C          -7.5233  -15.5410   27.0973 C.3     1  UNL1        0.0583
     17 C          -6.6153  -14.5326   27.7365 C.3     1  UNL1        0.0197
     18 C          -8.7129  -14.8456   27.6902 C.3     1  UNL1        0.0197
     19 C          -5.8084  -20.5210   20.4368 C.3     1  UNL1        0.1207
     20 N          -7.0249  -20.1049   21.2093 N.am    1  UNL1       -0.2985
     21 C          -8.1718  -19.4440   20.5036 C.2     1  UNL1        0.2460
     22 O          -8.1020  -19.1992   19.0254 O.2     1  UNL1       -0.2701
     23 H          -7.0707  -20.2657   22.1795 H       1  UNL1        0.1498
     24 C          -9.3883  -19.0279   21.2761 C.ar    1  UNL1        0.0550
     25 C          -9.5947  -19.5263   22.6758 C.ar    1  UNL1        0.0160
     26 C         -10.8113  -19.1102   23.4483 C.ar    1  UNL1        0.0587
     27 CL        -11.0176  -19.6086   24.8480 Cl      1  UNL1       -0.0822
     28 C         -11.8215  -18.1958   22.8212 C.ar    1  UNL1        0.0228
     29 C         -11.6151  -17.6974   21.4216 C.ar    1  UNL1        0.0587
     30 CL        -12.6253  -16.7830   20.7944 Cl      1  UNL1       -0.0822
     31 C         -10.3985  -18.1135   20.6490 C.ar    1  UNL1        0.0160
@<TRIPOS>BOND
     1    15    16    1
     2    16    17    1
     3    16    18    1
     4    16     9    1
     5     9    10   am
     6    10    11    2
     7    10    12   am
     8    12     8    1
     9     8     7    1
    10     7     1    1
    11     1     2    1
    12     2     3    1
    13     3     4    1
    14     4     5    1
    15     5    19    1
    16    19    20    1
    17    20    21   am
    18    21    22    2
    19    21    24    1
    20    24    25   ar
    21    25    26   ar
    22    26    27    1
    23    26    28   ar
    24    28    29   ar
    25    29    30    1
    26    29    31   ar
    27     5     6    1
    28     6     1    1
    29    31    24   ar
    30     9    13    1
    31    12    14    1
    32    20    23    1
@<TRIPOS>MOLECULE
*****
 31 32 0 0 0
SMALL
GASTEIGER

@<TRIPOS>ATOM
      1 N          -8.7517  -16.9771   25.3355 N.3     1  UNL1       -0.2670
      2 C          -8.7529  -16.8530   26.8303 C.3     1  UNL1        0.1047
      3 C          -7.6538  -16.1017   27.5214 C.3     1  UNL1        0.1595
      4 O          -6.5536  -15.4746   26.7176 O.3     1  UNL1       -0.3516
      5 C          -6.5524  -15.5986   25.2228 C.3     1  UNL1        0.1507
      6 C          -7.6515  -16.3499   24.5317 C.3     1  UNL1        0.1039
      7 C          -9.8508  -17.7284   24.6444 C.3     1  UNL1        0.0938
      8 C         -10.6385  -17.0684   23.5518 C.3     1  UNL1        0.1082
      9 N          -9.3080  -18.3171   20.0275 N.am    1  UNL1       -0.2921
     10 C          -9.8411  -18.3372   21.4294 C.2     1  UNL1        0.3007
     11 O         -10.1100  -19.6461   22.1109 O.2     1  UNL1       -0.2528
     12 N         -10.1054  -17.0483   22.1499 N.am    1  UNL1       -0.2875
     13 H          -9.1315  -17.4580   19.5803 H       1  UNL1        0.1508
     14 H          -9.9289  -16.1892   21.7026 H       1  UNL1        0.1510
     15 C          -7.6013  -19.5369   19.7127 C.3     1  UNL1        0.0197
     16 C          -9.0437  -19.6059   19.3071 C.3     1  UNL1        0.0583
     17 C         -10.4861  -19.6749   18.9014 C.3     1  UNL1        0.0197
     18 C          -8.7795  -20.8948   18.5865 C.3     1  UNL1        0.0197
     19 C          -5.4521  -14.9714   24.4190 C.3     1  UNL1        0.1207
     20 N          -4.8499  -15.7147   23.2637 N.am    1  UNL1       -0.2985
     21 C          -4.0745  -16.9758   23.5054 C.2     1  UNL1        0.2460
     22 O          -3.9012  -17.4935   24.9026 O.2     1  UNL1       -0.2701
     23 H          -4.9637  -15.3749   22.3467 H       1  UNL1        0.1498
     24 C          -3.4723  -17.7191   22.3501 C.ar    1  UNL1        0.0550
     25 C          -4.1852  -18.9027   21.7662 C.ar    1  UNL1        0.0160
     26 C          -3.5830  -19.6460   20.6109 C.ar    1  UNL1        0.0587
     27 CL         -4.2960  -20.8296   20.0270 Cl      1  UNL1       -0.0822
     28 C          -2.2679  -19.2058   20.0394 C.ar    1  UNL1        0.0228
     29 C          -1.5549  -18.0222   20.6233 C.ar    1  UNL1        0.0587
     30 CL         -0.2398  -17.5819   20.0518 Cl      1  UNL1       -0.0822
     31 C          -2.1572  -17.2789   21.7786 C.ar    1  UNL1        0.0160
@<TRIPOS>BOND
     1    15    16    1
     2    16    17    1
     3    16    18    1
     4    16     9    1
     5     9    10   am
     6    10    11    2
     7    10    12   am
     8    12     8    1
     9     8     7    1
    10     7     1    1
    11     1     2    1
    12     2     3    1
    13     3     4    1
    14     4     5    1
    15     5    19    1
    16    19    20    1
    17    20    21   am
    18    21    22    2
    19    21    24    1
    20    24    25   ar
    21    25    26   ar
    22    26    27    1
    23    26    28   ar
    24    28    29   ar
    25    29    30    1
    26    29    31   ar
    27     5     6    1
    28     6     1    1
    29    31    24   ar
    30     9    13    1
    31    12    14    1
    32    20    23    1
@<TRIPOS>MOLECULE
*****
 31 32 0 0 0
SMALL
GASTEIGER

@<TRIPOS>ATOM
      1 N         -10.2504  -17.2756   21.4286 N.3     1  UNL1       -0.2670
      2 C         -11.5647  -17.9691   21.6326 C.3     1  UNL1        0.1047
      3 C         -11.7579  -19.3711   21.1357 C.3     1  UNL1        0.1595
      4 O         -10.6369  -20.0797   20.4348 O.3     1  UNL1       -0.3516
      5 C          -9.3226  -19.3862   20.2309 C.3     1  UNL1        0.1507
      6 C          -9.1293  -17.9841   20.7278 C.3     1  UNL1        0.1039
      7 C         -10.0571  -15.8735   21.9256 C.3     1  UNL1        0.0938
      8 C          -8.7292  -15.1957   21.7607 C.3     1  UNL1        0.1082
      9 N          -7.0942  -14.7005   25.3428 N.am    1  UNL1       -0.2921
     10 C          -7.7554  -15.3516   24.1643 C.2     1  UNL1        0.3007
     11 O          -8.1039  -16.8098   24.2109 O.2     1  UNL1       -0.2528
     12 N          -8.0681  -14.5446   22.9392 N.am    1  UNL1       -0.2875
     13 H          -6.8655  -13.7434   25.3122 H       1  UNL1        0.1508
     14 H          -7.8393  -13.5875   22.9086 H       1  UNL1        0.1510
     15 C          -5.3681  -15.6770   26.0955 C.3     1  UNL1        0.0197
     16 C          -6.7815  -15.5075   26.5679 C.3     1  UNL1        0.0583
     17 C          -8.1950  -15.3379   27.0404 C.3     1  UNL1        0.0197
     18 C          -6.4689  -16.3145   27.7931 C.3     1  UNL1        0.0197
     19 C          -8.2015  -20.0947   19.5301 C.3     1  UNL1        0.1207
     20 N          -6.8173  -19.5174   19.5554 N.am    1  UNL1       -0.2985
     21 C          -5.9423  -19.7192   20.7570 C.2     1  UNL1        0.2460
     22 O          -6.4516  -20.4983   21.9332 O.2     1  UNL1       -0.2701
     23 H          -6.4830  -19.0060   18.7834 H       1  UNL1        0.1498
     24 C          -4.5581  -19.1418   20.7823 C.ar    1  UNL1        0.0550
     25 C          -3.9046  -18.8176   22.0929 C.ar    1  UNL1        0.0160
     26 C          -2.5204  -18.2402   22.1182 C.ar    1  UNL1        0.0587
     27 CL         -1.8669  -17.9160   23.4288 Cl      1  UNL1       -0.0822
     28 C          -1.7897  -17.9871   20.8329 C.ar    1  UNL1        0.0228
     29 C          -2.4432  -18.3114   19.5222 C.ar    1  UNL1        0.0587
     30 CL         -1.7126  -18.0583   18.2369 Cl      1  UNL1       -0.0822
     31 C          -3.8275  -18.8888   19.4970 C.ar    1  UNL1        0.0160
@<TRIPOS>BOND
     1    15    16    1
     2    16    17    1
     3    16    18    1
     4    16     9    1
     5     9    10   am
     6    10    11    2
     7    10    12   am
     8    12     8    1
     9     8     7    1
    10     7     1    1
    11     1     2    1
    12     2     3    1
    13     3     4    1
    14     4     5    1
    15     5    19    1
    16    19    20    1
    17    20    21   am
    18    21    22    2
    19    21    24    1
    20    24    25   ar
    21    25    26   ar
    22    26    27    1
    23    26    28   ar
    24    28    29   ar
    25    29    30    1
    26    29    31   ar
    27     5     6    1
    28     6     1    1
    29    31    24   ar
    30     9    13    1
    31    12    14    1
    32    20    23    1
@<TRIPOS>MOLECULE
*****
 31 32 0 0 0
SMALL
GASTEIGER

@<TRIPOS>ATOM
      1 N          -8.4623  -16.8634   26.1685 N.3     1  UNL1       -0.2670
      2 C          -8.3290  -16.3381   27.5672 C.3     1  UNL1        0.1047
      3 C          -7.1903  -15.4281   27.9212 C.3     1  UNL1        0.1595
      4 O          -6.1850  -15.0434   26.8766 O.3     1  UNL1       -0.3516
      5 C          -6.3183  -15.5687   25.4780 C.3     1  UNL1        0.1507
      6 C          -7.4569  -16.4787   25.1240 C.3     1  UNL1        0.1039
      7 C          -9.6010  -17.7734   25.8145 C.3     1  UNL1        0.0938
      8 C          -9.4447  -18.7751   24.7091 C.3     1  UNL1        0.1082
      9 N         -11.6726  -18.0095   21.5153 N.am    1  UNL1       -0.2921
     10 C         -10.6102  -17.8805   22.5664 C.2     1  UNL1        0.3007
     11 O          -9.6511  -16.7280   22.5258 O.2     1  UNL1       -0.2528
     12 N         -10.5071  -18.9041   23.6580 N.am    1  UNL1       -0.2875
     13 H         -12.3022  -18.7659   21.5420 H       1  UNL1        0.1508
     14 H         -11.1366  -19.6605   23.6847 H       1  UNL1        0.1510
     15 C         -12.5916  -16.1071   21.3248 C.3     1  UNL1        0.0197
     16 C         -11.7759  -16.9859   20.4237 C.3     1  UNL1        0.0583
     17 C         -10.9601  -17.8648   19.5226 C.3     1  UNL1        0.0197
     18 C         -11.8790  -15.9624   19.3320 C.3     1  UNL1        0.0197
     19 C          -5.3129  -15.1840   24.4333 C.3     1  UNL1        0.1207
     20 N          -5.1057  -16.0598   23.2333 N.am    1  UNL1       -0.2985
     21 C          -4.3536  -17.3507   23.3677 C.2     1  UNL1        0.2460
     22 O          -3.8087  -17.7657   24.7022 O.2     1  UNL1       -0.2701
     23 H          -5.4634  -15.7873   22.3575 H       1  UNL1        0.1498
     24 C          -4.1464  -18.2264   22.1677 C.ar    1  UNL1        0.0550
     25 C          -2.9646  -18.0032   21.2714 C.ar    1  UNL1        0.0160
     26 C          -2.7574  -18.8790   20.0714 C.ar    1  UNL1        0.0587
     27 CL         -1.5756  -18.6558   19.1750 Cl      1  UNL1       -0.0822
     28 C          -3.7321  -19.9780   19.7676 C.ar    1  UNL1        0.0228
     29 C          -4.9140  -20.2012   20.6639 C.ar    1  UNL1        0.0587
     30 CL         -5.8887  -21.3001   20.3603 Cl      1  UNL1       -0.0822
     31 C          -5.1211  -19.3254   21.8640 C.ar    1  UNL1        0.0160
@<TRIPOS>BOND
     1    15    16    1
     2    16    17    1
     3    16    18    1
     4    16     9    1
     5     9    10   am
     6    10    11    2
     7    10    12   am
     8    12     8    1
     9     8     7    1
    10     7     1    1
    11     1     2    1
    12     2     3    1
    13     3     4    1
    14     4     5    1
    15     5    19    1
    16    19    20    1
    17    20    21   am
    18    21    22    2
    19    21    24    1
    20    24    25   ar
    21    25    26   ar
    22    26    27    1
    23    26    28   ar
    24    28    29   ar
    25    29    30    1
    26    29    31   ar
    27     5     6    1
    28     6     1    1
    29    31    24   ar
    30     9    13    1
    31    12    14    1
    32    20    23    1
@<TRIPOS>MOLECULE
*****
 31 32 0 0 0
SMALL
GASTEIGER

@<TRIPOS>ATOM
      1 N         -10.6934  -17.0759   21.6688 N.3     1  UNL1       -0.2670
      2 C         -12.0194  -17.4462   22.2643 C.3     1  UNL1        0.1047
      3 C         -12.1898  -18.7685   22.9516 C.3     1  UNL1        0.1595
      4 O         -11.0343  -19.7205   23.0434 O.3     1  UNL1       -0.3516
      5 C          -9.7084  -19.3502   22.4479 C.3     1  UNL1        0.1507
      6 C          -9.5379  -18.0279   21.7606 C.3     1  UNL1        0.1039
      7 C         -10.5230  -15.7536   20.9815 C.3     1  UNL1        0.0938
      8 C          -9.1654  -15.1212   20.8979 C.3     1  UNL1        0.1082
      9 N          -6.9956  -14.5988   24.1796 N.am    1  UNL1       -0.2921
     10 C          -7.5986  -15.2435   22.9668 C.2     1  UNL1        0.3007
     11 O          -7.2379  -16.6551   22.6102 O.2     1  UNL1       -0.2528
     12 N          -8.5624  -14.4765   22.1107 N.am    1  UNL1       -0.2875
     13 H          -7.2324  -13.6723   24.4136 H       1  UNL1        0.1508
     14 H          -8.7991  -13.5500   22.3447 H       1  UNL1        0.1510
     15 C          -4.9991  -15.2782   23.9514 C.3     1  UNL1        0.0197
     16 C          -6.0319  -15.3657   25.0357 C.3     1  UNL1        0.0583
     17 C          -7.0647  -15.4532   26.1199 C.3     1  UNL1        0.0197
     18 C          -5.0681  -16.1327   25.8919 C.3     1  UNL1        0.0197
     19 C          -8.5528  -20.3022   22.5397 C.3     1  UNL1        0.1207
     20 N          -7.1468  -19.7809   22.5027 N.am    1  UNL1       -0.2985
     21 C          -6.4012  -19.7259   21.2022 C.2     1  UNL1        0.2460
     22 O          -7.0617  -20.1923   19.9388 O.2     1  UNL1       -0.2701
     23 H          -6.7133  -19.4748   23.3319 H       1  UNL1        0.1498
     24 C          -4.9952  -19.2046   21.1652 C.ar    1  UNL1        0.0550
     25 C          -4.2680  -19.1009   19.8575 C.ar    1  UNL1        0.0160
     26 C          -2.8620  -18.5796   19.8205 C.ar    1  UNL1        0.0587
     27 CL         -2.1347  -18.4758   18.5127 Cl      1  UNL1       -0.0822
     28 C          -2.1832  -18.1619   21.0913 C.ar    1  UNL1        0.0228
     29 C          -2.9105  -18.2657   22.3991 C.ar    1  UNL1        0.0587
     30 CL         -2.2318  -17.8481   23.6699 Cl      1  UNL1       -0.0822
     31 C          -4.3166  -18.7870   22.4360 C.ar    1  UNL1        0.0160
@<TRIPOS>BOND
     1    15    16    1
     2    16    17    1
     3    16    18    1
     4    16     9    1
     5     9    10   am
     6    10    11    2
     7    10    12   am
     8    12     8    1
     9     8     7    1
    10     7     1    1
    11     1     2    1
    12     2     3    1
    13     3     4    1
    14     4     5    1
    15     5    19    1
    16    19    20    1
    17    20    21   am
    18    21    22    2
    19    21    24    1
    20    24    25   ar
    21    25    26   ar
    22    26    27    1
    23    26    28   ar
    24    28    29   ar
    25    29    30    1
    26    29    31   ar
    27     5     6    1
    28     6     1    1
    29    31    24   ar
    30     9    13    1
    31    12    14    1
    32    20    23    1
