@<TRIPOS>MOLECULE
*****
 12 12 0 0 0
SMALL
GASTEIGER

@<TRIPOS>ATOM
      1 C         -12.7917  -18.3000   24.0680 C.1     1  UNL1       -0.0689
      2 C         -11.4139  -18.3369   23.4761 C.1     1  UNL1       -0.0614
      3 C         -10.0362  -18.3737   22.8841 C.ar    1  UNL1        0.0608
      4 C          -9.2154  -19.6262   22.9719 C.ar    1  UNL1        0.0114
      5 C          -7.8377  -19.6630   22.3799 C.ar    1  UNL1        0.0213
      6 C          -7.2807  -18.4475   21.7002 C.ar    1  UNL1        0.0989
      7 N          -8.1014  -17.1950   21.6124 N.ar    1  UNL1       -0.2417
      8 C          -9.4792  -17.1582   22.2044 C.ar    1  UNL1        0.1071
      9 N         -14.3800  -18.6480   26.0944 N.3     1  UNL1       -0.3102
     10 C         -14.1694  -18.2632   24.6600 C.3     1  UNL1        0.1432
     11 H         -15.3697  -18.5655   26.3268 H       1  UNL1        0.1198
     12 H         -13.8367  -18.0288   26.6958 H       1  UNL1        0.1198
@<TRIPOS>BOND
     1     9    10    1
     2    10     1    1
     3     1     2    3
     4     2     3    1
     5     3     4   ar
     6     4     5   ar
     7     5     6   ar
     8     6     7   ar
     9     7     8   ar
    10     8     3   ar
    11     9    11    1
    12     9    12    1
@<TRIPOS>MOLECULE
*****
 12 12 0 0 0
SMALL
GASTEIGER

@<TRIPOS>ATOM
      1 C          -5.0295  -16.0677   24.1737 C.1     1  UNL1       -0.0689
      2 C          -3.9882  -16.6263   23.2498 C.1     1  UNL1       -0.0614
      3 C          -2.9468  -17.1848   22.3259 C.ar    1  UNL1        0.0608
      4 C          -2.0654  -16.2586   21.5417 C.ar    1  UNL1        0.0114
      5 C          -1.0240  -16.8171   20.6178 C.ar    1  UNL1        0.0213
      6 C          -0.8642  -18.3020   20.4781 C.ar    1  UNL1        0.0989
      7 N          -1.7457  -19.2283   21.2622 N.ar    1  UNL1       -0.2417
      8 C          -2.7870  -18.6697   22.1861 C.ar    1  UNL1        0.1071
      9 N          -7.0157  -14.4509   24.6105 N.3     1  UNL1       -0.3102
     10 C          -6.0708  -15.5091   25.0976 C.3     1  UNL1        0.1432
     11 H          -7.6510  -14.1892   25.3644 H       1  UNL1        0.1198
     12 H          -7.5535  -14.8118   23.8226 H       1  UNL1        0.1198
@<TRIPOS>BOND
     1     9    10    1
     2    10     1    1
     3     1     2    3
     4     2     3    1
     5     3     4   ar
     6     4     5   ar
     7     5     6   ar
     8     6     7   ar
     9     7     8   ar
    10     8     3   ar
    11     9    11    1
    12     9    12    1
@<TRIPOS>MOLECULE
*****
 12 12 0 0 0
SMALL
GASTEIGER

@<TRIPOS>ATOM
      1 C         -10.7153  -16.6028   23.2374 C.1     1  UNL1       -0.0689
      2 C          -9.4934  -16.2367   24.0267 C.1     1  UNL1       -0.0614
      3 C          -8.2716  -15.8706   24.8160 C.ar    1  UNL1        0.0608
      4 C          -8.2572  -16.0548   26.3046 C.ar    1  UNL1        0.0114
      5 C          -7.0353  -15.6887   27.0938 C.ar    1  UNL1        0.0213
      6 C          -5.8278  -15.1383   26.3946 C.ar    1  UNL1        0.0989
      7 N          -5.8422  -14.9541   24.9061 N.ar    1  UNL1       -0.2417
      8 C          -7.0641  -15.3202   24.1168 C.ar    1  UNL1        0.1071
      9 N         -12.1749  -16.3488   21.1032 N.3     1  UNL1       -0.3102
     10 C         -11.9372  -16.9689   22.4481 C.3     1  UNL1        0.1432
     11 H         -13.0454  -16.7088   20.7119 H       1  UNL1        0.1198
     12 H         -11.4009  -16.5800   20.4805 H       1  UNL1        0.1198
@<TRIPOS>BOND
     1     9    10    1
     2    10     1    1
     3     1     2    3
     4     2     3    1
     5     3     4   ar
     6     4     5   ar
     7     5     6   ar
     8     6     7   ar
     9     7     8   ar
    10     8     3   ar
    11     9    11    1
    12     9    12    1
@<TRIPOS>MOLECULE
*****
 12 12 0 0 0
SMALL
GASTEIGER

@<TRIPOS>ATOM
      1 C          -7.6554  -15.7709   23.6398 C.1     1  UNL1       -0.0689
      2 C          -8.9740  -16.2510   23.1100 C.1     1  UNL1       -0.0614
      3 C         -10.2927  -16.7310   22.5802 C.ar    1  UNL1        0.0608
      4 C         -11.1807  -17.5825   23.4383 C.ar    1  UNL1        0.0114
      5 C         -12.4993  -18.0625   22.9085 C.ar    1  UNL1        0.0213
      6 C         -12.9300  -17.6910   21.5205 C.ar    1  UNL1        0.0989
      7 N         -12.0421  -16.8395   20.6624 N.ar    1  UNL1       -0.2417
      8 C         -10.7234  -16.3595   21.1922 C.ar    1  UNL1        0.1071
      9 N          -5.2863  -14.7890   23.2238 N.3     1  UNL1       -0.3102
     10 C          -6.3367  -15.2909   24.1696 C.3     1  UNL1        0.1432
     11 H          -4.4608  -14.5057   23.7517 H       1  UNL1        0.1198
     12 H          -5.6495  -13.9891   22.7056 H       1  UNL1        0.1198
@<TRIPOS>BOND
     1     9    10    1
     2    10     1    1
     3     1     2    3
     4     2     3    1
     5     3     4   ar
     6     4     5   ar
     7     5     6   ar
     8     6     7   ar
     9     7     8   ar
    10     8     3   ar
    11     9    11    1
    12     9    12    1
@<TRIPOS>MOLECULE
*****
 12 12 0 0 0
SMALL
GASTEIGER

@<TRIPOS>ATOM
      1 C          -8.4822  -16.1577   25.8083 C.1     1  UNL1       -0.0689
      2 C          -9.2528  -16.5212   24.5738 C.1     1  UNL1       -0.0614
      3 C         -10.0233  -16.8846   23.3392 C.ar    1  UNL1        0.0608
      4 C         -11.3135  -17.6408   23.4558 C.ar    1  UNL1        0.0114
      5 C         -12.0840  -18.0043   22.2212 C.ar    1  UNL1        0.0213
      6 C         -11.5644  -17.6115   20.8700 C.ar    1  UNL1        0.0989
      7 N         -10.2742  -16.8553   20.7534 N.ar    1  UNL1       -0.2417
      8 C          -9.5037  -16.4919   21.9880 C.ar    1  UNL1        0.1071
      9 N          -6.5712  -14.8239   26.9567 N.3     1  UNL1       -0.3102
     10 C          -7.7117  -15.7943   27.0429 C.3     1  UNL1        0.1432
     11 H          -6.1645  -14.6940   27.8830 H       1  UNL1        0.1198
     12 H          -6.9123  -13.9286   26.6066 H       1  UNL1        0.1198
@<TRIPOS>BOND
     1     9    10    1
     2    10     1    1
     3     1     2    3
     4     2     3    1
     5     3     4   ar
     6     4     5   ar
     7     5     6   ar
     8     6     7   ar
     9     7     8   ar
    10     8     3   ar
    11     9    11    1
    12     9    12    1
@<TRIPOS>MOLECULE
*****
 12 12 0 0 0
SMALL
GASTEIGER

@<TRIPOS>ATOM
      1 C          -4.5091  -19.7808   20.3751 C.1     1  UNL1       -0.0689
      2 C          -6.0046  -19.7032   20.4624 C.1     1  UNL1       -0.0614
      3 C          -7.5000  -19.6255   20.5497 C.ar    1  UNL1        0.0608
      4 C          -8.3288  -19.6969   19.3015 C.ar    1  UNL1        0.0114
      5 C          -9.8243  -19.6193   19.3888 C.ar    1  UNL1        0.0213
      6 C         -10.4909  -19.4702   20.7243 C.ar    1  UNL1        0.0989
      7 N          -9.6620  -19.3988   21.9724 N.ar    1  UNL1       -0.2417
      8 C          -8.1666  -19.4765   21.8851 C.ar    1  UNL1        0.1071
      9 N          -2.2032  -20.1244   21.5216 N.3     1  UNL1       -0.3102
     10 C          -3.0137  -19.8585   20.2878 C.3     1  UNL1        0.1432
     11 H          -1.2124  -20.1437   21.2799 H       1  UNL1        0.1198
     12 H          -2.4738  -21.0240   21.9188 H       1  UNL1        0.1198
@<TRIPOS>BOND
     1     9    10    1
     2    10     1    1
     3     1     2    3
     4     2     3    1
     5     3     4   ar
     6     4     5   ar
     7     5     6   ar
     8     6     7   ar
     9     7     8   ar
    10     8     3   ar
    11     9    11    1
    12     9    12    1
@<TRIPOS>MOLECULE
*****
 12 12 0 0 0
SMALL
GASTEIGER

@<TRIPOS>ATOM
      1 C          -6.1200  -19.3020   21.2534 C.1     1  UNL1       -0.0689
      2 C          -7.3785  -19.1956   22.0627 C.1     1  UNL1       -0.0614
      3 C          -8.6370  -19.0892   22.8720 C.ar    1  UNL1        0.0608
      4 C          -9.1574  -20.2867   23.6103 C.ar    1  UNL1        0.0114
      5 C         -10.4158  -20.1803   24.4196 C.ar    1  UNL1        0.0213
      6 C         -11.1539  -18.8764   24.4906 C.ar    1  UNL1        0.0989
      7 N         -10.6335  -17.6789   23.7523 N.ar    1  UNL1       -0.2417
      8 C          -9.3750  -17.7853   22.9430 C.ar    1  UNL1        0.1071
      9 N          -4.5670  -18.3945   19.3788 N.3     1  UNL1       -0.3102
     10 C          -4.8616  -19.4084   20.4442 C.3     1  UNL1        0.1432
     11 H          -3.6777  -18.6188   18.9325 H       1  UNL1        0.1198
     12 H          -4.5124  -17.4664   19.7984 H       1  UNL1        0.1198
@<TRIPOS>BOND
     1     9    10    1
     2    10     1    1
     3     1     2    3
     4     2     3    1
     5     3     4   ar
     6     4     5   ar
     7     5     6   ar
     8     6     7   ar
     9     7     8   ar
    10     8     3   ar
    11     9    11    1
    12     9    12    1
@<TRIPOS>MOLECULE
*****
 12 12 0 0 0
SMALL
GASTEIGER

@<TRIPOS>ATOM
      1 C         -14.3739   -8.5955   18.2835 C.1     1  UNL1       -0.0689
      2 C         -13.2427   -7.6307   18.4822 C.1     1  UNL1       -0.0614
      3 C         -12.1115   -6.6658   18.6809 C.ar    1  UNL1        0.0608
      4 C         -10.6942   -7.1561   18.6550 C.ar    1  UNL1        0.0114
      5 C          -9.5630   -6.1913   18.8538 C.ar    1  UNL1        0.0213
      6 C          -9.8492   -4.7361   19.0784 C.ar    1  UNL1        0.0989
      7 N         -11.2665   -4.2458   19.1042 N.ar    1  UNL1       -0.2417
      8 C         -12.3977   -5.2106   18.9055 C.ar    1  UNL1        0.1071
      9 N         -15.2445  -11.0373   18.1115 N.3     1  UNL1       -0.3102
     10 C         -15.5050   -9.5604   18.0847 C.3     1  UNL1        0.1432
     11 H         -16.1193  -11.5397   17.9605 H       1  UNL1        0.1198
     12 H         -14.8550  -11.2975   19.0175 H       1  UNL1        0.1198
@<TRIPOS>BOND
     1     9    10    1
     2    10     1    1
     3     1     2    3
     4     2     3    1
     5     3     4   ar
     6     4     5   ar
     7     5     6   ar
     8     6     7   ar
     9     7     8   ar
    10     8     3   ar
    11     9    11    1
    12     9    12    1
@<TRIPOS>MOLECULE
*****
 12 12 0 0 0
SMALL
GASTEIGER

@<TRIPOS>ATOM
      1 C         -10.0850   -6.3813   18.8629 C.1     1  UNL1       -0.0689
      2 C         -10.7916   -5.0587   18.8250 C.1     1  UNL1       -0.0614
      3 C         -11.4982   -3.7361   18.7870 C.ar    1  UNL1        0.0608
      4 C         -12.8283   -3.5768   19.4618 C.ar    1  UNL1        0.0114
      5 C         -13.5349   -2.2542   19.4238 C.ar    1  UNL1        0.0213
      6 C         -12.9114   -1.0910   18.7110 C.ar    1  UNL1        0.0989
      7 N         -11.5813   -1.2503   18.0363 N.ar    1  UNL1       -0.2417
      8 C         -10.8747   -2.5729   18.0742 C.ar    1  UNL1        0.1071
      9 N          -9.7692   -8.7908   17.9439 N.3     1  UNL1       -0.3102
     10 C          -9.3783   -7.7039   18.9009 C.3     1  UNL1        0.1432
     11 H          -9.1900   -9.6140   18.1094 H       1  UNL1        0.1198
     12 H          -9.6331   -8.4661   16.9866 H       1  UNL1        0.1198
@<TRIPOS>BOND
     1     9    10    1
     2    10     1    1
     3     1     2    3
     4     2     3    1
     5     3     4   ar
     6     4     5   ar
     7     5     6   ar
     8     6     7   ar
     9     7     8   ar
    10     8     3   ar
    11     9    11    1
    12     9    12    1
