@<TRIPOS>MOLECULE
*****
 51 56 0 0 0
SMALL
GASTEIGER

@<TRIPOS>ATOM
      1 C           2.8160    0.3882   18.6605 C.ar    1  UNL1        0.0818
      2 N           3.4364   -0.1710   17.4145 N.ar    1  UNL1       -0.2441
      3 C           3.9782   -1.5697   17.4091 C.ar    1  UNL1        0.1026
      4 C           3.8997   -2.4091   18.6497 C.ar    1  UNL1        0.0903
      5 C           3.2793   -1.8500   19.8958 C.ar    1  UNL1        0.0042
      6 C           2.7375   -0.4513   19.9011 C.ar    1  UNL1        0.0136
      7 C           2.1171    0.1080   21.1471 C.3     1  UNL1        0.1026
      8 C           0.6938    0.5565   21.2985 C.3     1  UNL1        0.0264
      9 C           0.5082    1.0426   22.7054 C.3     1  UNL1        0.0260
     10 C           1.8168    0.8945   23.4234 C.3     1  UNL1        0.1232
     11 C           2.5109    1.1033   24.7367 C.3     1  UNL1        0.2107
     12 O           3.9342    0.6548   24.5852 O.3     1  UNL1       -0.4320
     13 C           4.1198    0.1687   23.1784 C.2     1  UNL1        0.4054
     14 O           5.3909   -0.3708   22.5924 O.2     1  UNL1       -0.2262
     15 N           2.8112    0.3168   22.4603 N.am    1  UNL1       -0.2416
     16 C           1.8906    1.6626   25.9826 C.ar    1  UNL1        0.0189
     17 C           0.7535    0.9410   26.6433 C.ar    1  UNL1        0.0031
     18 C           0.1332    1.5003   27.8893 C.ar    1  UNL1        0.0712
     19 C           0.6498    2.7811   28.4746 C.ar    1  UNL1        0.0077
     20 C           1.7869    3.5026   27.8139 C.ar    1  UNL1        0.0712
     21 C           2.4072    2.9434   26.5679 C.ar    1  UNL1        0.0031
     22 C          -1.0039    0.7786   28.5499 C.3     1  UNL1        0.4186
     23 F          -2.1410    0.0570   29.2104 F       1  UNL1       -0.1659
     24 F          -0.0318   -0.1689   29.1880 F       1  UNL1       -0.1659
     25 F          -1.9760    1.7262   27.9116 F       1  UNL1       -0.1659
     26 C           2.3035    4.7834   28.3992 C.3     1  UNL1        0.4186
     27 F           2.8202    6.0642   28.9845 F       1  UNL1       -0.1659
     28 F           3.2803    4.9066   27.2675 F       1  UNL1       -0.1659
     29 F           1.3268    4.6603   29.5309 F       1  UNL1       -0.1659
     30 C           3.2030    2.9504   18.8493 C.ar    1  UNL1        0.1401
     31 C           2.6612    4.3491   18.8546 C.ar    1  UNL1        0.0369
     32 C           1.1904    4.5843   18.6765 C.ar    1  UNL1        0.0031
     33 C           0.2616    3.4209   18.4932 C.ar    1  UNL1       -0.0001
     34 C           0.8035    2.0222   18.4878 C.ar    1  UNL1        0.0045
     35 C           2.2742    1.7869   18.6659 C.ar    1  UNL1        0.0513
     36 C          -1.2091    3.6562   18.3151 C.ar    1  UNL1       -0.0039
     37 C          -1.7776    3.8426   16.9396 C.ar    1  UNL1       -0.0003
     38 C          -3.2484    4.0779   16.7615 C.ar    1  UNL1        0.0011
     39 C          -4.1505    4.1267   17.9589 C.ar    1  UNL1        0.0137
     40 C          -3.5819    3.9403   19.3344 C.ar    1  UNL1       -0.0031
     41 C          -2.1112    3.7050   19.5125 C.ar    1  UNL1       -0.0218
     42 C          -1.5427    3.5185   20.8880 C.3     1  UNL1        0.0310
     43 C          -5.6212    4.3620   17.7808 C.2     1  UNL1        0.0729
     44 O          -6.1020    5.4174   16.8295 O.co2   1  UNL1       -0.5446
     45 O          -6.6109    3.5420   18.5541 O.co2   1  UNL1       -0.5446
     46 C           5.2322    2.4606   20.3960 C.3     1  UNL1        0.2525
     47 O           4.6737    2.7151   19.0273 O.3     1  UNL1       -0.4714
     48 C           4.4415   -3.8078   18.6444 C.3     1  UNL1        0.4200
     49 F           4.9833   -5.2065   18.6391 F       1  UNL1       -0.1658
     50 F           5.7870   -3.2851   18.2366 F       1  UNL1       -0.1658
     51 F           3.0960   -4.3307   19.0522 F       1  UNL1       -0.1658
@<TRIPOS>UNITY_ATOM_ATTR
44 1
charge -1
@<TRIPOS>BOND
     1    46    47    1
     2    47    30    1
     3    30    31   ar
     4    31    32   ar
     5    32    33   ar
     6    33    36    1
     7    36    37   ar
     8    37    38   ar
     9    38    39   ar
    10    39    43    1
    11    43    44   ar
    12    43    45   ar
    13    39    40   ar
    14    40    41   ar
    15    41    42    1
    16    33    34   ar
    17    34    35   ar
    18    35     1    1
    19     1     2   ar
    20     2     3   ar
    21     3     4   ar
    22     4    48    1
    23    48    49    1
    24    48    50    1
    25    48    51    1
    26     4     5   ar
    27     5     6   ar
    28     7     6    1
    29     7     8    1
    30     8     9    1
    31    10     9    1
    32    10    11    1
    33    11    16    1
    34    16    17   ar
    35    17    18   ar
    36    18    22    1
    37    22    23    1
    38    22    24    1
    39    22    25    1
    40    18    19   ar
    41    19    20   ar
    42    20    26    1
    43    26    27    1
    44    26    28    1
    45    26    29    1
    46    20    21   ar
    47    11    12    1
    48    12    13    1
    49    13    14    2
    50    13    15   am
    51    35    30   ar
    52     6     1   ar
    53    15     7    1
    54    41    36   ar
    55    15    10    1
    56    21    16   ar
@<TRIPOS>MOLECULE
*****
 51 56 0 0 0
SMALL
GASTEIGER

@<TRIPOS>ATOM
      1 C           2.8232    0.4198   18.6557 C.ar    1  UNL1        0.0818
      2 N           3.4366   -0.1363   17.4049 N.ar    1  UNL1       -0.2441
      3 C           3.9797   -1.5344   17.3934 C.ar    1  UNL1        0.1026
      4 C           3.9093   -2.3765   18.6328 C.ar    1  UNL1        0.0903
      5 C           3.2959   -1.8204   19.8836 C.ar    1  UNL1        0.0042
      6 C           2.7528   -0.4222   19.8950 C.ar    1  UNL1        0.0136
      7 C           2.1394    0.1340   21.1458 C.3     1  UNL1        0.1026
      8 C           0.7157    0.5775   21.3077 C.3     1  UNL1        0.0264
      9 C           0.5384    1.0619   22.7162 C.3     1  UNL1        0.0260
     10 C           1.8526    0.9177   23.4249 C.3     1  UNL1        0.1232
     11 C           2.5553    1.1279   24.7333 C.3     1  UNL1        0.2107
     12 O           3.9789    0.6843   24.5714 O.3     1  UNL1       -0.4320
     13 C           4.1563    0.2000   23.1629 C.2     1  UNL1        0.4054
     14 O           5.4249   -0.3348   22.5675 O.2     1  UNL1       -0.2262
     15 N           2.8421    0.3442   22.4543 N.am    1  UNL1       -0.2416
     16 C           1.9419    1.6841   25.9841 C.ar    1  UNL1        0.0189
     17 C           2.4811    2.9477   26.5861 C.ar    1  UNL1        0.0031
     18 C           1.8677    3.5038   27.8369 C.ar    1  UNL1        0.0712
     19 C           0.7150    2.7964   28.4856 C.ar    1  UNL1        0.0077
     20 C           0.1758    1.5328   27.8836 C.ar    1  UNL1        0.0712
     21 C           0.7892    0.9766   26.6328 C.ar    1  UNL1        0.0031
     22 C           2.4070    4.7675   28.4389 C.3     1  UNL1        0.4186
     23 F           2.9465    6.0311   29.0408 F       1  UNL1       -0.1659
     24 F           1.1958    4.8656   29.3183 F       1  UNL1       -0.1659
     25 F           3.6183    4.6694   27.5594 F       1  UNL1       -0.1659
     26 C          -0.9769    0.8253   28.5323 C.3     1  UNL1        0.4186
     27 F          -2.1296    0.1179   29.1810 F       1  UNL1       -0.1659
     28 F          -0.0173   -0.0492   29.2836 F       1  UNL1       -0.1659
     29 F          -1.9365    1.6999   27.7811 F       1  UNL1       -0.1659
     30 C           3.2057    2.9806   18.8720 C.ar    1  UNL1        0.1401
     31 C           2.6627    4.3788   18.8834 C.ar    1  UNL1        0.0369
     32 C           1.1940    4.6145   18.6899 C.ar    1  UNL1        0.0031
     33 C           0.2684    3.4520   18.4850 C.ar    1  UNL1       -0.0001
     34 C           0.8115    2.0538   18.4736 C.ar    1  UNL1        0.0045
     35 C           2.2802    1.8180   18.6671 C.ar    1  UNL1        0.0513
     36 C          -1.2002    3.6878   18.2916 C.ar    1  UNL1       -0.0039
     37 C          -1.7541    3.8758   16.9103 C.ar    1  UNL1       -0.0003
     38 C          -3.2228    4.1116   16.7168 C.ar    1  UNL1        0.0011
     39 C          -4.1376    4.1593   17.9045 C.ar    1  UNL1        0.0137
     40 C          -3.5837    3.9712   19.2859 C.ar    1  UNL1       -0.0031
     41 C          -2.1151    3.7355   19.4793 C.ar    1  UNL1       -0.0218
     42 C          -1.5613    3.5474   20.8606 C.3     1  UNL1        0.0310
     43 C          -5.6063    4.3951   17.7110 C.2     1  UNL1        0.0729
     44 O          -6.6018    3.6612   18.5597 O.co2   1  UNL1       -0.5446
     45 O          -6.0793    5.3648   16.6690 O.co2   1  UNL1       -0.5446
     46 C           5.2329    2.5872   20.4487 C.3     1  UNL1        0.2525
     47 O           4.6744    2.7448   19.0655 O.3     1  UNL1       -0.4714
     48 C           4.4524   -3.7747   18.6214 C.3     1  UNL1        0.4200
     49 F           4.9954   -5.1728   18.6100 F       1  UNL1       -0.1658
     50 F           5.7988   -3.2485   18.2210 F       1  UNL1       -0.1658
     51 F           3.1059   -4.3010   19.0218 F       1  UNL1       -0.1658
@<TRIPOS>UNITY_ATOM_ATTR
44 1
charge -1
@<TRIPOS>BOND
     1    46    47    1
     2    47    30    1
     3    30    31   ar
     4    31    32   ar
     5    32    33   ar
     6    33    36    1
     7    36    37   ar
     8    37    38   ar
     9    38    39   ar
    10    39    43    1
    11    43    44   ar
    12    43    45   ar
    13    39    40   ar
    14    40    41   ar
    15    41    42    1
    16    33    34   ar
    17    34    35   ar
    18    35     1    1
    19     1     2   ar
    20     2     3   ar
    21     3     4   ar
    22     4    48    1
    23    48    49    1
    24    48    50    1
    25    48    51    1
    26     4     5   ar
    27     5     6   ar
    28     7     6    1
    29     7     8    1
    30     8     9    1
    31    10     9    1
    32    10    11    1
    33    11    16    1
    34    16    17   ar
    35    17    18   ar
    36    18    22    1
    37    22    23    1
    38    22    24    1
    39    22    25    1
    40    18    19   ar
    41    19    20   ar
    42    20    26    1
    43    26    27    1
    44    26    28    1
    45    26    29    1
    46    20    21   ar
    47    11    12    1
    48    12    13    1
    49    13    14    2
    50    13    15   am
    51    35    30   ar
    52     6     1   ar
    53    15     7    1
    54    41    36   ar
    55    15    10    1
    56    21    16   ar
@<TRIPOS>MOLECULE
*****
 51 56 0 0 0
SMALL
GASTEIGER

@<TRIPOS>ATOM
      1 C           0.5280    3.7091   28.4384 C.ar    1  UNL1        0.0818
      2 N           0.5705    4.2641   29.8313 N.ar    1  UNL1       -0.2441
      3 C           1.1275    3.4367   30.9516 C.ar    1  UNL1        0.1026
      4 C           1.6419    2.0543   30.6790 C.ar    1  UNL1        0.0903
      5 C           1.5994    1.4993   29.2860 C.ar    1  UNL1        0.0042
      6 C           1.0425    2.3268   28.1657 C.ar    1  UNL1        0.0136
      7 C           1.0000    1.7719   26.7728 C.3     1  UNL1        0.1026
      8 C          -0.2263    1.6147   25.9234 C.3     1  UNL1        0.0264
      9 C           0.1922    1.0224   24.6104 C.3     1  UNL1        0.0260
     10 C           1.6771    0.8135   24.6483 C.3     1  UNL1        0.1232
     11 C           2.8534    0.3183   23.8603 C.3     1  UNL1        0.2107
     12 O           4.0796    0.4755   24.7097 O.3     1  UNL1       -0.4320
     13 C           3.6612    1.0677   26.0227 C.2     1  UNL1        0.4054
     14 O           4.5684    1.3939   27.1719 O.2     1  UNL1       -0.2262
     15 N           2.1763    1.2767   25.9848 N.am    1  UNL1       -0.2416
     16 C           2.8109   -0.2366   22.4673 C.ar    1  UNL1        0.0189
     17 C           2.0393    0.4787   21.3983 C.ar    1  UNL1        0.0031
     18 C           1.9968   -0.0762   20.0053 C.ar    1  UNL1        0.0712
     19 C           2.7259   -1.3464   19.6814 C.ar    1  UNL1        0.0077
     20 C           3.4976   -2.0617   20.7505 C.ar    1  UNL1        0.0712
     21 C           3.5401   -1.5068   22.1434 C.ar    1  UNL1        0.0031
     22 C           1.2251    0.6392   18.9363 C.3     1  UNL1        0.4186
     23 F           0.4533    1.3546   17.8674 F       1  UNL1       -0.1659
     24 F           2.3701    0.4533   17.9853 F       1  UNL1       -0.1659
     25 F           0.0801    0.8251   19.8874 F       1  UNL1       -0.1659
     26 C           4.2267   -3.3319   20.4266 C.3     1  UNL1        0.4186
     27 F           4.9558   -4.6021   20.1027 F       1  UNL1       -0.1659
     28 F           4.1763   -2.9888   18.9673 F       1  UNL1       -0.1659
     29 F           4.2771   -3.6751   21.8859 F       1  UNL1       -0.1659
     30 C           0.8938    5.3298   26.4409 C.ar    1  UNL1        0.1401
     31 C           0.3369    6.1573   25.3206 C.ar    1  UNL1        0.0369
     32 C          -1.1429    6.1916   25.0775 C.ar    1  UNL1        0.0031
     33 C          -2.0656    5.3984   25.9546 C.ar    1  UNL1       -0.0001
     34 C          -1.5087    4.5709   27.0749 C.ar    1  UNL1        0.0045
     35 C          -0.0289    4.5366   27.3181 C.ar    1  UNL1        0.0513
     36 C          -3.5454    5.4327   25.7114 C.ar    1  UNL1       -0.0039
     37 C          -4.3933    6.4669   26.3908 C.ar    1  UNL1       -0.0003
     38 C          -5.8731    6.5013   26.1476 C.ar    1  UNL1        0.0011
     39 C          -6.5050    5.5014   25.2251 C.ar    1  UNL1        0.0137
     40 C          -5.6570    4.4672   24.5456 C.ar    1  UNL1       -0.0031
     41 C          -4.1772    4.4329   24.7888 C.ar    1  UNL1       -0.0218
     42 C          -3.3294    3.3988   24.1094 C.3     1  UNL1        0.0310
     43 C          -7.9847    5.5358   24.9819 C.2     1  UNL1        0.0729
     44 O          -8.8730    6.3490   25.8761 O.co2   1  UNL1       -0.5446
     45 O          -8.5761    4.7569   23.8445 O.co2   1  UNL1       -0.5446
     46 C           3.2945    4.7550   25.6306 C.3     1  UNL1        0.2525
     47 O           2.3736    5.2955   26.6841 O.3     1  UNL1       -0.4714
     48 C           2.1989    1.2268   31.7993 C.3     1  UNL1        0.4200
     49 F           2.7558    0.3994   32.9196 F       1  UNL1       -0.1658
     50 F           1.2460    1.8804   32.7558 F       1  UNL1       -0.1658
     51 F           3.1518    0.5732   30.8428 F       1  UNL1       -0.1658
@<TRIPOS>UNITY_ATOM_ATTR
44 1
charge -1
@<TRIPOS>BOND
     1    46    47    1
     2    47    30    1
     3    30    31   ar
     4    31    32   ar
     5    32    33   ar
     6    33    36    1
     7    36    37   ar
     8    37    38   ar
     9    38    39   ar
    10    39    43    1
    11    43    44   ar
    12    43    45   ar
    13    39    40   ar
    14    40    41   ar
    15    41    42    1
    16    33    34   ar
    17    34    35   ar
    18    35     1    1
    19     1     2   ar
    20     2     3   ar
    21     3     4   ar
    22     4    48    1
    23    48    49    1
    24    48    50    1
    25    48    51    1
    26     4     5   ar
    27     5     6   ar
    28     7     6    1
    29     7     8    1
    30     8     9    1
    31    10     9    1
    32    10    11    1
    33    11    16    1
    34    16    17   ar
    35    17    18   ar
    36    18    22    1
    37    22    23    1
    38    22    24    1
    39    22    25    1
    40    18    19   ar
    41    19    20   ar
    42    20    26    1
    43    26    27    1
    44    26    28    1
    45    26    29    1
    46    20    21   ar
    47    11    12    1
    48    12    13    1
    49    13    14    2
    50    13    15   am
    51    35    30   ar
    52     6     1   ar
    53    15     7    1
    54    41    36   ar
    55    15    10    1
    56    21    16   ar
@<TRIPOS>MOLECULE
*****
 51 56 0 0 0
SMALL
GASTEIGER

@<TRIPOS>ATOM
      1 C           0.4940    3.7583   28.4437 C.ar    1  UNL1        0.0818
      2 N           0.5316    4.3232   29.8328 N.ar    1  UNL1       -0.2441
      3 C           1.0872    3.5048   30.9604 C.ar    1  UNL1        0.1026
      4 C           1.6052    2.1216   30.6989 C.ar    1  UNL1        0.0903
      5 C           1.5676    1.5567   29.3098 C.ar    1  UNL1        0.0042
      6 C           1.0119    2.3751   28.1822 C.ar    1  UNL1        0.0136
      7 C           0.9743    1.8102   26.7931 C.3     1  UNL1        0.1026
      8 C          -0.2512    1.6327   25.9465 C.3     1  UNL1        0.0264
      9 C           0.1727    1.0365   24.6369 C.3     1  UNL1        0.0260
     10 C           1.6600    0.8456   24.6742 C.3     1  UNL1        0.1232
     11 C           2.8412    0.3591   23.8880 C.3     1  UNL1        0.2107
     12 O           4.0665    0.5366   24.7347 O.3     1  UNL1       -0.4320
     13 C           3.6428    1.1328   26.0442 C.2     1  UNL1        0.4054
     14 O           4.5474    1.4775   27.1899 O.2     1  UNL1       -0.2262
     15 N           2.1554    1.3238   26.0069 N.am    1  UNL1       -0.2416
     16 C           2.8035   -0.2057   22.4989 C.ar    1  UNL1        0.0189
     17 C           3.5361   -1.4767   22.1859 C.ar    1  UNL1        0.0031
     18 C           3.4985   -2.0415   20.7968 C.ar    1  UNL1        0.0712
     19 C           2.7282   -1.3354   19.7207 C.ar    1  UNL1        0.0077
     20 C           1.9955   -0.0645   20.0337 C.ar    1  UNL1        0.0712
     21 C           2.0332    0.5004   21.4228 C.ar    1  UNL1        0.0031
     22 C           4.2312   -3.3125   20.4840 C.3     1  UNL1        0.4186
     23 F           4.9638   -4.5834   20.1710 F       1  UNL1       -0.1659
     24 F           4.3320   -3.6152   21.9496 F       1  UNL1       -0.1659
     25 F           4.1303   -3.0097   19.0182 F       1  UNL1       -0.1659
     26 C           1.2252    0.6416   18.9576 C.3     1  UNL1        0.4186
     27 F           0.4549    1.3477   17.8814 F       1  UNL1       -0.1659
     28 F           0.0128    0.6646   19.8405 F       1  UNL1       -0.1659
     29 F           2.4376    0.6187   18.0747 F       1  UNL1       -0.1659
     30 C           0.8624    5.3599   26.4313 C.ar    1  UNL1        0.1401
     31 C           0.3067    6.1783   25.3037 C.ar    1  UNL1        0.0369
     32 C          -1.1731    6.2134   25.0609 C.ar    1  UNL1        0.0031
     33 C          -2.0971    5.4303   25.9456 C.ar    1  UNL1       -0.0001
     34 C          -1.5415    4.6119   27.0732 C.ar    1  UNL1        0.0045
     35 C          -0.0617    4.5766   27.3161 C.ar    1  UNL1        0.0513
     36 C          -3.5769    5.4655   25.7026 C.ar    1  UNL1       -0.0039
     37 C          -4.4275    6.4849   26.4007 C.ar    1  UNL1       -0.0003
     38 C          -5.9073    6.5202   26.1578 C.ar    1  UNL1        0.0011
     39 C          -6.5365    5.5360   25.2168 C.ar    1  UNL1        0.0137
     40 C          -5.6859    4.5166   24.5187 C.ar    1  UNL1       -0.0031
     41 C          -4.2061    4.4813   24.7616 C.ar    1  UNL1       -0.0218
     42 C          -3.3556    3.4619   24.0636 C.3     1  UNL1        0.0310
     43 C          -8.0163    5.5713   24.9739 C.2     1  UNL1        0.0729
     44 O          -8.6087    4.7897   23.8389 O.co2   1  UNL1       -0.5446
     45 O          -8.9035    6.3881   25.8658 O.co2   1  UNL1       -0.5446
     46 C           3.2672    4.8351   25.5997 C.3     1  UNL1        0.2525
     47 O           2.3422    5.3246   26.6743 O.3     1  UNL1       -0.4714
     48 C           2.1609    1.3032   31.8265 C.3     1  UNL1        0.4200
     49 F           2.7165    0.4848   32.9541 F       1  UNL1       -0.1658
     50 F           1.2200    1.9782   32.7800 F       1  UNL1       -0.1658
     51 F           3.1018    0.6282   30.8730 F       1  UNL1       -0.1658
@<TRIPOS>UNITY_ATOM_ATTR
44 1
charge -1
@<TRIPOS>BOND
     1    46    47    1
     2    47    30    1
     3    30    31   ar
     4    31    32   ar
     5    32    33   ar
     6    33    36    1
     7    36    37   ar
     8    37    38   ar
     9    38    39   ar
    10    39    43    1
    11    43    44   ar
    12    43    45   ar
    13    39    40   ar
    14    40    41   ar
    15    41    42    1
    16    33    34   ar
    17    34    35   ar
    18    35     1    1
    19     1     2   ar
    20     2     3   ar
    21     3     4   ar
    22     4    48    1
    23    48    49    1
    24    48    50    1
    25    48    51    1
    26     4     5   ar
    27     5     6   ar
    28     7     6    1
    29     7     8    1
    30     8     9    1
    31    10     9    1
    32    10    11    1
    33    11    16    1
    34    16    17   ar
    35    17    18   ar
    36    18    22    1
    37    22    23    1
    38    22    24    1
    39    22    25    1
    40    18    19   ar
    41    19    20   ar
    42    20    26    1
    43    26    27    1
    44    26    28    1
    45    26    29    1
    46    20    21   ar
    47    11    12    1
    48    12    13    1
    49    13    14    2
    50    13    15   am
    51    35    30   ar
    52     6     1   ar
    53    15     7    1
    54    41    36   ar
    55    15    10    1
    56    21    16   ar
@<TRIPOS>MOLECULE
*****
 51 56 0 0 0
SMALL
GASTEIGER

@<TRIPOS>ATOM
      1 C           2.6301    1.6211   27.3425 C.ar    1  UNL1        0.0818
      2 N           1.9566    2.4050   28.4297 N.ar    1  UNL1       -0.2441
      3 C           0.5181    2.8048   28.2850 C.ar    1  UNL1        0.1026
      4 C          -0.2468    2.4206   27.0532 C.ar    1  UNL1        0.0903
      5 C           0.4267    1.6367   25.9661 C.ar    1  UNL1        0.0042
      6 C           1.8652    1.2369   26.1107 C.ar    1  UNL1        0.0136
      7 C           2.5388    0.4530   25.0236 C.3     1  UNL1        0.1026
      8 C           3.3352   -0.8047   25.2075 C.3     1  UNL1        0.0264
      9 C           3.8228   -1.2458   23.8593 C.3     1  UNL1        0.0260
     10 C           3.3278   -0.2607   22.8422 C.3     1  UNL1        0.1232
     11 C           3.3231    0.0756   21.3804 C.3     1  UNL1        0.2107
     12 O           2.5267    1.3333   21.1966 O.3     1  UNL1       -0.4320
     13 C           2.0391    1.7744   22.5447 C.2     1  UNL1        0.4054
     14 O           1.2031    2.9876   22.8264 O.2     1  UNL1       -0.2262
     15 N           2.5342    0.7893   23.5618 N.am    1  UNL1       -0.2416
     16 C           3.9967   -0.7083   20.2933 C.ar    1  UNL1        0.0189
     17 C           3.8594   -2.2014   20.2500 C.ar    1  UNL1        0.0031
     18 C           4.5330   -2.9853   19.1628 C.ar    1  UNL1        0.0712
     19 C           5.3439   -2.2761   18.1190 C.ar    1  UNL1        0.0077
     20 C           5.4812   -0.7831   18.1623 C.ar    1  UNL1        0.0712
     21 C           4.8076    0.0008   19.2494 C.ar    1  UNL1        0.0031
     22 C           4.3956   -4.4784   19.1196 C.3     1  UNL1        0.4186
     23 F           4.2583   -5.9715   19.0765 F       1  UNL1       -0.1659
     24 F           2.9661   -4.3344   18.6888 F       1  UNL1       -0.1659
     25 F           5.8252   -4.6223   19.5506 F       1  UNL1       -0.1659
     26 C           6.2920   -0.0739   17.1185 C.3     1  UNL1        0.4186
     27 F           7.1029    0.6353   16.0747 F       1  UNL1       -0.1659
     28 F           5.0581    0.1117   16.2860 F       1  UNL1       -0.1659
     29 F           7.5259   -0.2595   17.9510 F       1  UNL1       -0.1659
     30 C           5.1545    2.1459   27.0224 C.ar    1  UNL1        0.1401
     31 C           6.5930    1.7462   27.1671 C.ar    1  UNL1        0.0369
     32 C           6.9456    0.4217   27.7767 C.ar    1  UNL1        0.0031
     33 C           5.8598   -0.5029   28.2414 C.ar    1  UNL1       -0.0001
     34 C           4.4213   -0.1031   28.0967 C.ar    1  UNL1        0.0045
     35 C           4.0686    1.2213   27.4872 C.ar    1  UNL1        0.0513
     36 C           6.2125   -1.8273   28.8509 C.ar    1  UNL1       -0.0039
     37 C           6.3325   -1.9594   30.3403 C.ar    1  UNL1       -0.0003
     38 C           6.6852   -3.2838   30.9499 C.ar    1  UNL1        0.0011
     39 C           6.9179   -4.4762   30.0701 C.ar    1  UNL1        0.0137
     40 C           6.7978   -4.3441   28.5806 C.ar    1  UNL1       -0.0031
     41 C           6.4451   -3.0197   27.9711 C.ar    1  UNL1       -0.0218
     42 C           6.3251   -2.8877   26.4818 C.3     1  UNL1        0.0310
     43 C           7.2706   -5.8006   30.6796 C.2     1  UNL1        0.0729
     44 O           8.2263   -6.7188   29.9770 O.co2   1  UNL1       -0.5446
     45 O           6.6676   -6.2069   31.9916 O.co2   1  UNL1       -0.5446
     46 C           4.6966    3.6060   24.9228 C.3     1  UNL1        0.2525
     47 O           4.8018    3.4704   26.4129 O.3     1  UNL1       -0.4714
     48 C          -1.6853    2.8204   26.9085 C.3     1  UNL1        0.4200
     49 F          -3.1237    3.2202   26.7638 F       1  UNL1       -0.1658
     50 F          -2.0908    1.6837   27.7992 F       1  UNL1       -0.1658
     51 F          -1.2798    3.9572   26.0178 F       1  UNL1       -0.1658
@<TRIPOS>UNITY_ATOM_ATTR
44 1
charge -1
@<TRIPOS>BOND
     1    46    47    1
     2    47    30    1
     3    30    31   ar
     4    31    32   ar
     5    32    33   ar
     6    33    36    1
     7    36    37   ar
     8    37    38   ar
     9    38    39   ar
    10    39    43    1
    11    43    44   ar
    12    43    45   ar
    13    39    40   ar
    14    40    41   ar
    15    41    42    1
    16    33    34   ar
    17    34    35   ar
    18    35     1    1
    19     1     2   ar
    20     2     3   ar
    21     3     4   ar
    22     4    48    1
    23    48    49    1
    24    48    50    1
    25    48    51    1
    26     4     5   ar
    27     5     6   ar
    28     7     6    1
    29     7     8    1
    30     8     9    1
    31    10     9    1
    32    10    11    1
    33    11    16    1
    34    16    17   ar
    35    17    18   ar
    36    18    22    1
    37    22    23    1
    38    22    24    1
    39    22    25    1
    40    18    19   ar
    41    19    20   ar
    42    20    26    1
    43    26    27    1
    44    26    28    1
    45    26    29    1
    46    20    21   ar
    47    11    12    1
    48    12    13    1
    49    13    14    2
    50    13    15   am
    51    35    30   ar
    52     6     1   ar
    53    15     7    1
    54    41    36   ar
    55    15    10    1
    56    21    16   ar
@<TRIPOS>MOLECULE
*****
 51 56 0 0 0
SMALL
GASTEIGER

@<TRIPOS>ATOM
      1 C           2.6304    1.5895   27.3816 C.ar    1  UNL1        0.0818
      2 N           1.9536    2.3705   28.4689 N.ar    1  UNL1       -0.2441
      3 C           0.5152    2.7698   28.3214 C.ar    1  UNL1        0.1026
      4 C          -0.2462    2.3881   27.0868 C.ar    1  UNL1        0.0903
      5 C           0.4306    1.6071   25.9995 C.ar    1  UNL1        0.0042
      6 C           1.8689    1.2078   26.1470 C.ar    1  UNL1        0.0136
      7 C           2.5457    0.4269   25.0598 C.3     1  UNL1        0.1026
      8 C           3.3948   -0.7950   25.2496 C.3     1  UNL1        0.0264
      9 C           3.8662   -1.2463   23.8990 C.3     1  UNL1        0.0260
     10 C           3.3084   -0.3033   22.8744 C.3     1  UNL1        0.1232
     11 C           3.2550    0.0005   21.4065 C.3     1  UNL1        0.2107
     12 O           2.4059    1.2224   21.2167 O.3     1  UNL1       -0.4320
     13 C           1.9346    1.6737   22.5673 C.2     1  UNL1        0.4054
     14 O           1.0591    2.8597   22.8446 O.2     1  UNL1       -0.2262
     15 N           2.4923    0.7308   23.5918 N.am    1  UNL1       -0.2416
     16 C           3.9318   -0.7804   20.3193 C.ar    1  UNL1        0.0189
     17 C           4.7563   -0.0697   19.2873 C.ar    1  UNL1        0.0031
     18 C           5.4331   -0.8506   18.2001 C.ar    1  UNL1        0.0712
     19 C           5.2855   -2.3423   18.1449 C.ar    1  UNL1        0.0077
     20 C           4.4611   -3.0531   19.1769 C.ar    1  UNL1        0.0712
     21 C           3.7842   -2.2721   20.2641 C.ar    1  UNL1        0.0031
     22 C           6.2576   -0.1398   17.1680 C.3     1  UNL1        0.4186
     23 F           7.0819    0.5711   16.1360 F       1  UNL1       -0.1659
     24 F           7.5020   -0.4591   17.9422 F       1  UNL1       -0.1659
     25 F           5.0130    0.1796   16.3939 F       1  UNL1       -0.1659
     26 C           4.3135   -4.5448   19.1218 C.3     1  UNL1        0.4186
     27 F           4.1659   -6.0364   19.0666 F       1  UNL1       -0.1659
     28 F           5.7803   -4.7000   19.3945 F       1  UNL1       -0.1659
     29 F           2.8467   -4.3895   18.8490 F       1  UNL1       -0.1659
     30 C           5.1541    2.0989   27.0328 C.ar    1  UNL1        0.1401
     31 C           6.5924    1.6997   27.1803 C.ar    1  UNL1        0.0369
     32 C           6.9454    0.3916   27.8241 C.ar    1  UNL1        0.0031
     33 C           5.8601   -0.5171   28.3204 C.ar    1  UNL1       -0.0001
     34 C           4.4218   -0.1178   28.1729 C.ar    1  UNL1        0.0045
     35 C           4.0687    1.1902   27.5291 C.ar    1  UNL1        0.0513
     36 C           6.2131   -1.8251   28.9642 C.ar    1  UNL1       -0.0039
     37 C           6.3104   -1.9238   30.4577 C.ar    1  UNL1       -0.0003
     38 C           6.6634   -3.2318   31.1016 C.ar    1  UNL1        0.0011
     39 C           6.9192   -4.4411   30.2518 C.ar    1  UNL1        0.0137
     40 C           6.8220   -4.3424   28.7582 C.ar    1  UNL1       -0.0031
     41 C           6.4690   -3.0344   28.1144 C.ar    1  UNL1       -0.0218
     42 C           6.3717   -2.9357   26.6208 C.3     1  UNL1        0.0310
     43 C           7.2723   -5.7491   30.8956 C.2     1  UNL1        0.0729
     44 O           6.5133   -6.2211   32.1002 O.co2   1  UNL1       -0.5446
     45 O           8.3843   -6.5851   30.3348 O.co2   1  UNL1       -0.5446
     46 C           4.6899    3.5023   24.8962 C.3     1  UNL1        0.2525
     47 O           4.8011    3.4070   26.3891 O.3     1  UNL1       -0.4714
     48 C          -1.6846    2.7874   26.9393 C.3     1  UNL1        0.4200
     49 F          -3.1229    3.1866   26.7918 F       1  UNL1       -0.1658
     50 F          -1.2840    3.8815   25.9946 F       1  UNL1       -0.1658
     51 F          -2.0852    1.6932   27.8840 F       1  UNL1       -0.1658
@<TRIPOS>UNITY_ATOM_ATTR
44 1
charge -1
@<TRIPOS>BOND
     1    46    47    1
     2    47    30    1
     3    30    31   ar
     4    31    32   ar
     5    32    33   ar
     6    33    36    1
     7    36    37   ar
     8    37    38   ar
     9    38    39   ar
    10    39    43    1
    11    43    44   ar
    12    43    45   ar
    13    39    40   ar
    14    40    41   ar
    15    41    42    1
    16    33    34   ar
    17    34    35   ar
    18    35     1    1
    19     1     2   ar
    20     2     3   ar
    21     3     4   ar
    22     4    48    1
    23    48    49    1
    24    48    50    1
    25    48    51    1
    26     4     5   ar
    27     5     6   ar
    28     7     6    1
    29     7     8    1
    30     8     9    1
    31    10     9    1
    32    10    11    1
    33    11    16    1
    34    16    17   ar
    35    17    18   ar
    36    18    22    1
    37    22    23    1
    38    22    24    1
    39    22    25    1
    40    18    19   ar
    41    19    20   ar
    42    20    26    1
    43    26    27    1
    44    26    28    1
    45    26    29    1
    46    20    21   ar
    47    11    12    1
    48    12    13    1
    49    13    14    2
    50    13    15   am
    51    35    30   ar
    52     6     1   ar
    53    15     7    1
    54    41    36   ar
    55    15    10    1
    56    21    16   ar
@<TRIPOS>MOLECULE
*****
 51 56 0 0 0
SMALL
GASTEIGER

@<TRIPOS>ATOM
      1 C          -0.1820    2.7619   25.0291 C.ar    1  UNL1        0.0818
      2 N          -0.9392    3.4331   23.9217 N.ar    1  UNL1       -0.2441
      3 C          -2.3661    3.8453   24.1313 C.ar    1  UNL1        0.1026
      4 C          -3.0358    3.5862   25.4483 C.ar    1  UNL1        0.0903
      5 C          -2.2787    2.9150   26.5556 C.ar    1  UNL1        0.0042
      6 C          -0.8518    2.5028   26.3460 C.ar    1  UNL1        0.0136
      7 C          -0.0945    1.8316   27.4533 C.3     1  UNL1        0.1026
      8 C           0.2682    0.3776   27.5182 C.3     1  UNL1        0.0264
      9 C           1.0198    0.1440   28.7951 C.3     1  UNL1        0.0260
     10 C           1.1216    1.4536   29.5194 C.3     1  UNL1        0.1232
     11 C           1.6490    2.1186   30.7561 C.3     1  UNL1        0.2107
     12 O           1.2863    3.5726   30.6911 O.3     1  UNL1       -0.4320
     13 C           0.5347    3.8063   29.4143 C.2     1  UNL1        0.4054
     14 O          -0.0181    5.1190   28.9441 O.2     1  UNL1       -0.2262
     15 N           0.4329    2.4966   28.6900 N.am    1  UNL1       -0.2416
     16 C           2.4062    1.4474   31.8634 C.ar    1  UNL1        0.0189
     17 C           3.1127    0.1489   31.6091 C.ar    1  UNL1        0.0031
     18 C           3.8699   -0.5224   32.7164 C.ar    1  UNL1        0.0712
     19 C           3.9206    0.1049   34.0780 C.ar    1  UNL1        0.0077
     20 C           3.2141    1.4034   34.3323 C.ar    1  UNL1        0.0712
     21 C           2.4569    2.0747   33.2250 C.ar    1  UNL1        0.0031
     22 C           4.5765   -1.8209   32.4620 C.3     1  UNL1        0.4186
     23 F           5.2830   -3.1194   32.2075 F       1  UNL1       -0.1659
     24 F           4.3462   -2.2256   33.8879 F       1  UNL1       -0.1659
     25 F           4.8067   -1.4162   31.0360 F       1  UNL1       -0.1659
     26 C           3.2648    2.0307   35.6939 C.3     1  UNL1        0.4186
     27 F           3.3155    2.6580   37.0555 F       1  UNL1       -0.1659
     28 F           2.0423    2.8365   35.3682 F       1  UNL1       -0.1659
     29 F           4.4874    1.2249   36.0196 F       1  UNL1       -0.1659
     30 C           2.3527    3.1246   25.4694 C.ar    1  UNL1        0.1401
     31 C           3.7797    2.7124   25.2597 C.ar    1  UNL1        0.0369
     32 C           4.0988    1.5253   24.4001 C.ar    1  UNL1        0.0031
     33 C           2.9911    0.7505   23.7501 C.ar    1  UNL1       -0.0001
     34 C           1.5641    1.1627   23.9598 C.ar    1  UNL1        0.0045
     35 C           1.2449    2.3497   24.8194 C.ar    1  UNL1        0.0513
     36 C           3.3103   -0.4366   22.8905 C.ar    1  UNL1       -0.0039
     37 C           2.9736   -0.4164   21.4289 C.ar    1  UNL1       -0.0003
     38 C           3.2928   -1.6035   20.5692 C.ar    1  UNL1        0.0011
     39 C           3.9488   -2.8107   21.1711 C.ar    1  UNL1        0.0137
     40 C           4.2855   -2.8308   22.6328 C.ar    1  UNL1       -0.0031
     41 C           3.9663   -1.6438   23.4924 C.ar    1  UNL1       -0.0218
     42 C           4.3030   -1.6640   24.9540 C.3     1  UNL1        0.0310
     43 C           4.2680   -3.9978   20.3115 C.2     1  UNL1        0.0729
     44 O           5.6144   -4.6520   20.4065 O.co2   1  UNL1       -0.5446
     45 O           3.2408   -4.5305   19.3570 O.co2   1  UNL1       -0.5446
     46 C           3.1377    5.0578   27.0175 C.3     1  UNL1        0.2525
     47 O           2.0335    4.3117   26.3290 O.3     1  UNL1       -0.4714
     48 C          -4.4628    3.9984   25.6579 C.3     1  UNL1        0.4200
     49 F          -5.8897    4.4106   25.8675 F       1  UNL1       -0.1658
     50 F          -4.2650    3.9276   27.1431 F       1  UNL1       -0.1658
     51 F          -4.6606    4.0692   24.1726 F       1  UNL1       -0.1658
@<TRIPOS>UNITY_ATOM_ATTR
44 1
charge -1
@<TRIPOS>BOND
     1    46    47    1
     2    47    30    1
     3    30    31   ar
     4    31    32   ar
     5    32    33   ar
     6    33    36    1
     7    36    37   ar
     8    37    38   ar
     9    38    39   ar
    10    39    43    1
    11    43    44   ar
    12    43    45   ar
    13    39    40   ar
    14    40    41   ar
    15    41    42    1
    16    33    34   ar
    17    34    35   ar
    18    35     1    1
    19     1     2   ar
    20     2     3   ar
    21     3     4   ar
    22     4    48    1
    23    48    49    1
    24    48    50    1
    25    48    51    1
    26     4     5   ar
    27     5     6   ar
    28     7     6    1
    29     7     8    1
    30     8     9    1
    31    10     9    1
    32    10    11    1
    33    11    16    1
    34    16    17   ar
    35    17    18   ar
    36    18    22    1
    37    22    23    1
    38    22    24    1
    39    22    25    1
    40    18    19   ar
    41    19    20   ar
    42    20    26    1
    43    26    27    1
    44    26    28    1
    45    26    29    1
    46    20    21   ar
    47    11    12    1
    48    12    13    1
    49    13    14    2
    50    13    15   am
    51    35    30   ar
    52     6     1   ar
    53    15     7    1
    54    41    36   ar
    55    15    10    1
    56    21    16   ar
@<TRIPOS>MOLECULE
*****
 51 56 0 0 0
SMALL
GASTEIGER

@<TRIPOS>ATOM
      1 C          -0.1680    2.7661   25.0929 C.ar    1  UNL1        0.0818
      2 N          -0.9293    3.4435   23.9922 N.ar    1  UNL1       -0.2441
      3 C          -2.3567    3.8508   24.2081 C.ar    1  UNL1        0.1026
      4 C          -3.0228    3.5807   25.5246 C.ar    1  UNL1        0.0903
      5 C          -2.2615    2.9033   26.6254 C.ar    1  UNL1        0.0042
      6 C          -0.8341    2.4960   26.4095 C.ar    1  UNL1        0.0136
      7 C          -0.0727    1.8186   27.5102 C.3     1  UNL1        0.1026
      8 C           0.2876    0.3637   27.5670 C.3     1  UNL1        0.0264
      9 C           1.0450    0.1231   28.8392 C.3     1  UNL1        0.0260
     10 C           1.1527    1.4294   29.5687 C.3     1  UNL1        0.1232
     11 C           1.6873    2.0881   30.8058 C.3     1  UNL1        0.2107
     12 O           1.3269    3.5430   30.7489 O.3     1  UNL1       -0.4320
     13 C           0.5696    3.7836   29.4767 C.2     1  UNL1        0.4054
     14 O           0.0169    5.0994   29.0149 O.2     1  UNL1       -0.2262
     15 N           0.4619    2.4773   28.7473 N.am    1  UNL1       -0.2416
     16 C           2.4486    1.4107   31.9064 C.ar    1  UNL1        0.0189
     17 C           2.5077    2.0323   33.2703 C.ar    1  UNL1        0.0031
     18 C           3.2690    1.3549   34.3710 C.ar    1  UNL1        0.0712
     19 C           3.9713    0.0559   34.1078 C.ar    1  UNL1        0.0077
     20 C           3.9123   -0.5657   32.7440 C.ar    1  UNL1        0.0712
     21 C           3.1510    0.1117   31.6433 C.ar    1  UNL1        0.0031
     22 C           3.3280    1.9767   35.7348 C.3     1  UNL1        0.4186
     23 F           3.3870    2.5983   37.0987 F       1  UNL1       -0.1659
     24 F           2.1018    2.7816   35.4209 F       1  UNL1       -0.1659
     25 F           4.5542    1.1716   36.0487 F       1  UNL1       -0.1659
     26 C           4.6146   -1.8648   32.4808 C.3     1  UNL1        0.4186
     27 F           5.3169   -3.1638   32.2176 F       1  UNL1       -0.1659
     28 F           4.9810   -1.3883   31.1065 F       1  UNL1       -0.1659
     29 F           4.2483   -2.3412   33.8551 F       1  UNL1       -0.1659
     30 C           2.3672    3.1358   25.5245 C.ar    1  UNL1        0.1401
     31 C           3.7946    2.7285   25.3086 C.ar    1  UNL1        0.0369
     32 C           4.1142    1.5442   24.4452 C.ar    1  UNL1        0.0031
     33 C           3.0064    0.7673   23.7978 C.ar    1  UNL1       -0.0001
     34 C           1.5790    1.1746   24.0137 C.ar    1  UNL1        0.0045
     35 C           1.2594    2.3589   24.8770 C.ar    1  UNL1        0.0513
     36 C           3.3261   -0.4169   22.9344 C.ar    1  UNL1       -0.0039
     37 C           3.0056   -0.3853   21.4694 C.ar    1  UNL1       -0.0003
     38 C           3.3252   -1.5695   20.6059 C.ar    1  UNL1        0.0011
     39 C           3.9654   -2.7853   21.2075 C.ar    1  UNL1        0.0137
     40 C           4.2860   -2.8169   22.6726 C.ar    1  UNL1       -0.0031
     41 C           3.9663   -1.6327   23.5360 C.ar    1  UNL1       -0.0218
     42 C           4.2869   -1.6643   25.0010 C.3     1  UNL1        0.0310
     43 C           4.2851   -3.9695   20.3441 C.2     1  UNL1        0.0729
     44 O           3.2753   -4.4705   19.3545 O.co2   1  UNL1       -0.5446
     45 O           5.6145   -4.6527   20.4704 O.co2   1  UNL1       -0.5446
     46 C           1.9928    5.6933   25.7871 C.3     1  UNL1        0.2525
     47 O           2.0476    4.3200   26.3879 O.3     1  UNL1       -0.4714
     48 C          -4.4502    3.9880   25.7405 C.3     1  UNL1        0.4200
     49 F          -5.8776    4.3953   25.9564 F       1  UNL1       -0.1658
     50 F          -4.6667    4.0157   24.2565 F       1  UNL1       -0.1658
     51 F          -4.2337    3.9604   27.2246 F       1  UNL1       -0.1658
@<TRIPOS>UNITY_ATOM_ATTR
44 1
charge -1
@<TRIPOS>BOND
     1    46    47    1
     2    47    30    1
     3    30    31   ar
     4    31    32   ar
     5    32    33   ar
     6    33    36    1
     7    36    37   ar
     8    37    38   ar
     9    38    39   ar
    10    39    43    1
    11    43    44   ar
    12    43    45   ar
    13    39    40   ar
    14    40    41   ar
    15    41    42    1
    16    33    34   ar
    17    34    35   ar
    18    35     1    1
    19     1     2   ar
    20     2     3   ar
    21     3     4   ar
    22     4    48    1
    23    48    49    1
    24    48    50    1
    25    48    51    1
    26     4     5   ar
    27     5     6   ar
    28     7     6    1
    29     7     8    1
    30     8     9    1
    31    10     9    1
    32    10    11    1
    33    11    16    1
    34    16    17   ar
    35    17    18   ar
    36    18    22    1
    37    22    23    1
    38    22    24    1
    39    22    25    1
    40    18    19   ar
    41    19    20   ar
    42    20    26    1
    43    26    27    1
    44    26    28    1
    45    26    29    1
    46    20    21   ar
    47    11    12    1
    48    12    13    1
    49    13    14    2
    50    13    15   am
    51    35    30   ar
    52     6     1   ar
    53    15     7    1
    54    41    36   ar
    55    15    10    1
    56    21    16   ar
@<TRIPOS>MOLECULE
*****
 51 56 0 0 0
SMALL
GASTEIGER

@<TRIPOS>ATOM
      1 C          -1.0955    4.3201   26.7282 C.ar    1  UNL1        0.0818
      2 N          -2.0574    5.2955   27.3395 N.ar    1  UNL1       -0.2441
      3 C          -3.4856    5.3270   26.8821 C.ar    1  UNL1        0.1026
      4 C          -3.9519    4.3832   25.8136 C.ar    1  UNL1        0.0903
      5 C          -2.9901    3.4078   25.2023 C.ar    1  UNL1        0.0042
      6 C          -1.5619    3.3763   25.6597 C.ar    1  UNL1        0.0136
      7 C          -0.6000    2.4009   25.0486 C.3     1  UNL1        0.1026
      8 C           0.1656    1.3402   25.7825 C.3     1  UNL1        0.0264
      9 C           1.0039    0.5988   24.7837 C.3     1  UNL1        0.0260
     10 C           0.7564    1.2014   23.4325 C.3     1  UNL1        0.1232
     11 C           1.1216    1.1156   21.9801 C.3     1  UNL1        0.2107
     12 O           0.3560    2.1764   21.2463 O.3     1  UNL1       -0.4320
     13 C          -0.4823    2.9178   22.2450 C.2     1  UNL1        0.4054
     14 O          -1.4060    4.0610   21.9453 O.2     1  UNL1       -0.2262
     15 N          -0.2348    2.3152   23.5962 N.am    1  UNL1       -0.2416
     16 C           2.0835    0.1403   21.3690 C.ar    1  UNL1        0.0189
     17 C           2.3534    0.1773   19.8940 C.ar    1  UNL1        0.0031
     18 C           3.3153   -0.7981   19.2828 C.ar    1  UNL1        0.0712
     19 C           4.0072   -1.8104   20.1467 C.ar    1  UNL1        0.0077
     20 C           3.7373   -1.8474   21.6217 C.ar    1  UNL1        0.0712
     21 C           2.7754   -0.8721   22.2329 C.ar    1  UNL1        0.0031
     22 C           3.5851   -0.7610   17.8077 C.3     1  UNL1        0.4186
     23 F           3.8549   -0.7238   16.3326 F       1  UNL1       -0.1659
     24 F           4.5658   -1.8858   17.9588 F       1  UNL1       -0.1659
     25 F           2.6044    0.3640   17.6567 F       1  UNL1       -0.1659
     26 C           4.4293   -2.8597   22.4856 C.3     1  UNL1        0.4186
     27 F           5.1212   -3.8721   23.3495 F       1  UNL1       -0.1659
     28 F           4.8548   -3.6140   21.2609 F       1  UNL1       -0.1659
     29 F           4.0037   -2.1055   23.7104 F       1  UNL1       -0.1659
     30 C           1.3360    5.2230   26.5770 C.ar    1  UNL1        0.1401
     31 C           2.7642    5.1914   27.0344 C.ar    1  UNL1        0.0369
     32 C           3.1892    4.2254   28.1004 C.ar    1  UNL1        0.0031
     33 C           2.1859    3.2911   28.7090 C.ar    1  UNL1       -0.0001
     34 C           0.7577    3.3226   28.2516 C.ar    1  UNL1        0.0045
     35 C           0.3327    4.2886   27.1856 C.ar    1  UNL1        0.0513
     36 C           2.6109    2.3251   29.7750 C.ar    1  UNL1       -0.0039
     37 C           2.3998    2.6634   31.2210 C.ar    1  UNL1       -0.0003
     38 C           2.8248    1.6974   32.2871 C.ar    1  UNL1        0.0011
     39 C           3.4609    0.3932   31.9070 C.ar    1  UNL1        0.0137
     40 C           3.6720    0.0549   30.4609 C.ar    1  UNL1       -0.0031
     41 C           3.2470    1.0209   29.3949 C.ar    1  UNL1       -0.0218
     42 C           3.4581    0.6826   27.9489 C.3     1  UNL1        0.0310
     43 C           3.8859   -0.5727   32.9730 C.2     1  UNL1        0.0729
     44 O           4.5771   -0.0719   34.2064 O.co2   1  UNL1       -0.5446
     45 O           3.6197   -2.0394   32.8055 O.co2   1  UNL1       -0.5446
     46 C           1.1274    5.8532   24.0652 C.3     1  UNL1        0.2525
     47 O           0.9110    6.1889   25.5111 O.3     1  UNL1       -0.4714
     48 C          -5.3801    4.4148   25.3562 C.3     1  UNL1        0.4200
     49 F          -6.8083    4.4463   24.8988 F       1  UNL1       -0.1658
     50 F          -5.1150    3.2508   24.4480 F       1  UNL1       -0.1658
     51 F          -5.6453    5.5788   26.2644 F       1  UNL1       -0.1658
@<TRIPOS>UNITY_ATOM_ATTR
44 1
charge -1
@<TRIPOS>BOND
     1    46    47    1
     2    47    30    1
     3    30    31   ar
     4    31    32   ar
     5    32    33   ar
     6    33    36    1
     7    36    37   ar
     8    37    38   ar
     9    38    39   ar
    10    39    43    1
    11    43    44   ar
    12    43    45   ar
    13    39    40   ar
    14    40    41   ar
    15    41    42    1
    16    33    34   ar
    17    34    35   ar
    18    35     1    1
    19     1     2   ar
    20     2     3   ar
    21     3     4   ar
    22     4    48    1
    23    48    49    1
    24    48    50    1
    25    48    51    1
    26     4     5   ar
    27     5     6   ar
    28     7     6    1
    29     7     8    1
    30     8     9    1
    31    10     9    1
    32    10    11    1
    33    11    16    1
    34    16    17   ar
    35    17    18   ar
    36    18    22    1
    37    22    23    1
    38    22    24    1
    39    22    25    1
    40    18    19   ar
    41    19    20   ar
    42    20    26    1
    43    26    27    1
    44    26    28    1
    45    26    29    1
    46    20    21   ar
    47    11    12    1
    48    12    13    1
    49    13    14    2
    50    13    15   am
    51    35    30   ar
    52     6     1   ar
    53    15     7    1
    54    41    36   ar
    55    15    10    1
    56    21    16   ar
