@<TRIPOS>MOLECULE
*****
 25 28 0 0 0
SMALL
GASTEIGER

@<TRIPOS>ATOM
      1 C         -10.9652  -17.3693   22.6974 C.3     1  UNL1        0.0750
      2 C         -11.8417  -18.5263   23.0761 C.3     1  UNL1        0.0260
      3 C         -13.2444  -18.0162   23.2239 C.3     1  UNL1        0.0691
      4 N         -13.2350  -16.5441   22.9365 N.3     1  UNL1       -0.2971
      5 C         -11.8265  -16.1442   22.6111 C.3     1  UNL1        0.0762
      6 H         -13.5606  -16.0296   23.7548 H       1  UNL1        0.1233
      7 O          -9.8150  -15.8385   20.9415 O.2     1  UNL1       -0.2916
      8 C          -9.8605  -16.4273   22.3202 C.2     1  UNL1        0.1703
      9 C          -8.8014  -16.0741   23.3220 C.2     1  UNL1        0.0192
     10 C          -7.4056  -15.7726   22.8630 C.2     1  UNL1        0.0301
     11 C          -6.3464  -15.4194   23.8648 C.2     1  UNL1        0.1571
     12 F          -4.9505  -15.1179   23.4057 F       1  UNL1       -0.2026
     13 C          -6.6832  -15.3678   25.3256 C.2     1  UNL1        0.1050
     14 N          -5.8552  -15.0524   26.5359 N.2     1  UNL1       -0.2419
     15 C          -6.7393  -15.1589   27.7429 C.2     1  UNL1        0.0986
     16 C          -8.1137  -15.5402   27.2786 C.2     1  UNL1        0.0183
     17 C          -8.0790  -15.6693   25.7846 C.2     1  UNL1        0.0037
     18 C          -9.1381  -16.0225   24.7828 C.3     1  UNL1        0.0572
     19 C          -9.8731  -18.3975   22.7048 C.3     1  UNL1        0.0350
     20 C          -9.3728  -18.9696   21.4116 C.ar    1  UNL1       -0.0217
     21 C          -7.8996  -19.1418   21.1877 C.ar    1  UNL1       -0.0043
     22 C          -7.3993  -19.7139   19.8945 C.ar    1  UNL1       -0.0003
     23 C          -8.3721  -20.1138   18.8251 C.ar    1  UNL1       -0.0000
     24 C          -9.8453  -19.9416   19.0490 C.ar    1  UNL1       -0.0003
     25 C         -10.3457  -19.3695   20.3422 C.ar    1  UNL1       -0.0043
@<TRIPOS>BOND
     1     7     8    2
     2     8     9    1
     3     9    10    2
     4    10    11    1
     5    11    12    1
     6    11    13    2
     7    13    14    1
     8    14    15    2
     9    15    16    1
    10    16    17    2
    11    17    18    1
    12     8     1    1
    13     1    19    1
    14    19    20    1
    15    20    21   ar
    16    21    22   ar
    17    22    23   ar
    18    23    24   ar
    19    24    25   ar
    20     1     2    1
    21     2     3    1
    22     3     4    1
    23     4     5    1
    24    18     9    1
    25     5     1    1
    26    17    13    1
    27    25    20   ar
    28     4     6    1
@<TRIPOS>MOLECULE
*****
 25 28 0 0 0
SMALL
GASTEIGER

@<TRIPOS>ATOM
      1 C          -9.2289  -18.1627   23.5029 C.3     1  UNL1        0.0750
      2 C          -9.9176  -18.2295   24.8339 C.3     1  UNL1        0.0260
      3 C         -10.2855  -19.6602   25.0940 C.3     1  UNL1        0.0691
      4 N          -9.8242  -20.4776   23.9240 N.3     1  UNL1       -0.2971
      5 C          -9.1712  -19.5521   22.9406 C.3     1  UNL1        0.0762
      6 H         -10.6225  -20.9388   23.4878 H       1  UNL1        0.1233
      7 O          -9.0635  -16.6905   21.3687 O.2     1  UNL1       -0.2916
      8 C          -8.5214  -17.7891   22.2341 C.2     1  UNL1        0.1703
      9 C          -7.2718  -18.5143   21.8308 C.2     1  UNL1        0.0192
     10 C          -7.3474  -19.6580   20.8635 C.2     1  UNL1        0.0301
     11 C          -6.0977  -20.3832   20.4602 C.2     1  UNL1        0.1571
     12 F          -6.1734  -21.5271   19.4927 F       1  UNL1       -0.2026
     13 C          -4.7725  -19.9645   21.0244 C.2     1  UNL1        0.1050
     14 N          -3.3820  -20.4862   20.8138 N.2     1  UNL1       -0.2419
     15 C          -2.4470  -19.6647   21.6510 C.2     1  UNL1        0.0986
     16 C          -3.2596  -18.6354   22.3791 C.2     1  UNL1        0.0183
     17 C          -4.6969  -18.8206   21.9918 C.2     1  UNL1        0.0037
     18 C          -5.9465  -18.0955   22.3950 C.3     1  UNL1        0.0572
     19 C          -9.1388  -16.6951   23.8000 C.3     1  UNL1        0.0350
     20 C          -8.1949  -16.2002   24.8555 C.ar    1  UNL1       -0.0217
     21 C          -6.8548  -15.6506   24.4653 C.ar    1  UNL1       -0.0043
     22 C          -5.9109  -15.1557   25.5208 C.ar    1  UNL1       -0.0003
     23 C          -6.3070  -15.2103   26.9665 C.ar    1  UNL1       -0.0000
     24 C          -7.6471  -15.7599   27.3567 C.ar    1  UNL1       -0.0003
     25 C          -8.5911  -16.2548   26.3012 C.ar    1  UNL1       -0.0043
@<TRIPOS>BOND
     1     7     8    2
     2     8     9    1
     3     9    10    2
     4    10    11    1
     5    11    12    1
     6    11    13    2
     7    13    14    1
     8    14    15    2
     9    15    16    1
    10    16    17    2
    11    17    18    1
    12     8     1    1
    13     1    19    1
    14    19    20    1
    15    20    21   ar
    16    21    22   ar
    17    22    23   ar
    18    23    24   ar
    19    24    25   ar
    20     1     2    1
    21     2     3    1
    22     3     4    1
    23     4     5    1
    24    18     9    1
    25     5     1    1
    26    17    13    1
    27    25    20   ar
    28     4     6    1
@<TRIPOS>MOLECULE
*****
 25 28 0 0 0
SMALL
GASTEIGER

@<TRIPOS>ATOM
      1 C          -8.5181  -16.6777   23.5451 C.3     1  UNL1        0.0750
      2 C          -8.8694  -16.4693   24.9885 C.3     1  UNL1        0.0260
      3 C          -8.2979  -15.1510   25.4190 C.3     1  UNL1        0.0691
      4 N          -7.5934  -14.5446   24.2418 N.3     1  UNL1       -0.2971
      5 C          -7.7294  -15.4881   23.0837 C.3     1  UNL1        0.0762
      6 H          -6.6071  -14.4068   24.4620 H       1  UNL1        0.1233
      7 O          -9.2871  -16.7427   21.0644 O.2     1  UNL1       -0.2916
      8 C          -8.3230  -17.1555   22.1367 C.2     1  UNL1        0.1703
      9 C          -7.1638  -18.0464   21.8008 C.2     1  UNL1        0.0192
     10 C          -7.3612  -19.2237   20.8927 C.2     1  UNL1        0.0301
     11 C          -6.2020  -20.1145   20.5567 C.2     1  UNL1        0.1571
     12 F          -6.3995  -21.2919   19.6485 F       1  UNL1       -0.2026
     13 C          -4.8455  -19.8278   21.1290 C.2     1  UNL1        0.1050
     14 N          -3.5251  -20.5234   20.9781 N.2     1  UNL1       -0.2419
     15 C          -2.5116  -19.7759   21.7930 C.2     1  UNL1        0.0986
     16 C          -3.2057  -18.6183   22.4475 C.2     1  UNL1        0.0183
     17 C          -4.6481  -18.6504   22.0371 C.2     1  UNL1        0.0037
     18 C          -5.8073  -17.7597   22.3730 C.3     1  UNL1        0.0572
     19 C          -9.2659  -17.9672   23.7122 C.3     1  UNL1        0.0350
     20 C         -10.7643  -17.9617   23.7808 C.ar    1  UNL1       -0.0217
     21 C         -11.5527  -17.0496   22.8884 C.ar    1  UNL1       -0.0043
     22 C         -13.0511  -17.0441   22.9570 C.ar    1  UNL1       -0.0003
     23 C         -13.7612  -17.9508   23.9181 C.ar    1  UNL1       -0.0000
     24 C         -12.9728  -18.8629   24.8105 C.ar    1  UNL1       -0.0003
     25 C         -11.4744  -18.8684   24.7419 C.ar    1  UNL1       -0.0043
@<TRIPOS>BOND
     1     7     8    2
     2     8     9    1
     3     9    10    2
     4    10    11    1
     5    11    12    1
     6    11    13    2
     7    13    14    1
     8    14    15    2
     9    15    16    1
    10    16    17    2
    11    17    18    1
    12     8     1    1
    13     1    19    1
    14    19    20    1
    15    20    21   ar
    16    21    22   ar
    17    22    23   ar
    18    23    24   ar
    19    24    25   ar
    20     1     2    1
    21     2     3    1
    22     3     4    1
    23     4     5    1
    24    18     9    1
    25     5     1    1
    26    17    13    1
    27    25    20   ar
    28     4     6    1
@<TRIPOS>MOLECULE
*****
 25 28 0 0 0
SMALL
GASTEIGER

@<TRIPOS>ATOM
      1 C          -8.1747  -16.5358   24.1989 C.3     1  UNL1        0.0750
      2 C          -8.8805  -16.7763   25.5005 C.3     1  UNL1        0.0260
      3 C          -8.4627  -15.7016   26.4597 C.3     1  UNL1        0.0691
      4 N          -7.4987  -14.7969   25.7511 N.3     1  UNL1       -0.2971
      5 C          -7.3207  -15.3124   24.3538 C.3     1  UNL1        0.0762
      6 H          -6.6020  -14.7977   26.2372 H       1  UNL1        0.1233
      7 O          -8.2513  -15.7018   21.7396 O.2     1  UNL1       -0.2916
      8 C          -7.6234  -16.5517   22.8040 C.2     1  UNL1        0.1703
      9 C          -6.4440  -17.4178   22.4735 C.2     1  UNL1        0.0192
     10 C          -5.1579  -17.2531   23.2276 C.2     1  UNL1        0.0301
     11 C          -3.9785  -18.1192   22.8972 C.2     1  UNL1        0.1571
     12 F          -2.6923  -17.9544   23.6514 F       1  UNL1       -0.2026
     13 C          -4.0853  -19.1498   21.8126 C.2     1  UNL1        0.1050
     14 N          -3.0990  -20.1404   21.2687 N.2     1  UNL1       -0.2419
     15 C          -3.7755  -20.9172   20.1785 C.2     1  UNL1        0.0986
     16 C          -5.1800  -20.4068   20.0485 C.2     1  UNL1        0.0183
     17 C          -5.3715  -19.3145   21.0585 C.2     1  UNL1        0.0037
     18 C          -6.5508  -18.4484   21.3890 C.3     1  UNL1        0.0572
     19 C          -8.9134  -17.7626   23.7523 C.3     1  UNL1        0.0350
     20 C         -10.4124  -17.7570   23.6973 C.ar    1  UNL1       -0.0217
     21 C         -11.1970  -18.7311   24.5253 C.ar    1  UNL1       -0.0043
     22 C         -12.6959  -18.7255   24.4703 C.ar    1  UNL1       -0.0003
     23 C         -13.4104  -17.7458   23.5873 C.ar    1  UNL1       -0.0000
     24 C         -12.6259  -16.7717   22.7593 C.ar    1  UNL1       -0.0003
     25 C         -11.1268  -16.7773   22.8143 C.ar    1  UNL1       -0.0043
@<TRIPOS>BOND
     1     7     8    2
     2     8     9    1
     3     9    10    2
     4    10    11    1
     5    11    12    1
     6    11    13    2
     7    13    14    1
     8    14    15    2
     9    15    16    1
    10    16    17    2
    11    17    18    1
    12     8     1    1
    13     1    19    1
    14    19    20    1
    15    20    21   ar
    16    21    22   ar
    17    22    23   ar
    18    23    24   ar
    19    24    25   ar
    20     1     2    1
    21     2     3    1
    22     3     4    1
    23     4     5    1
    24    18     9    1
    25     5     1    1
    26    17    13    1
    27    25    20   ar
    28     4     6    1
@<TRIPOS>MOLECULE
*****
 25 28 0 0 0
SMALL
GASTEIGER

@<TRIPOS>ATOM
      1 C          -7.8285  -15.8020   25.0255 C.3     1  UNL1        0.0750
      2 C          -8.5430  -15.7894   26.3445 C.3     1  UNL1        0.0260
      3 C          -7.5148  -15.6477   27.4273 C.3     1  UNL1        0.0691
      4 N          -6.1648  -15.5728   26.7777 N.3     1  UNL1       -0.2971
      5 C          -6.3587  -15.6681   25.2934 C.3     1  UNL1        0.0762
      6 H          -5.5818  -16.3448   27.1009 H       1  UNL1        0.1233
      7 O          -7.9727  -14.8627   22.6076 O.2     1  UNL1       -0.2916
      8 C          -7.4026  -15.8444   23.5879 C.2     1  UNL1        0.1703
      9 C          -6.4066  -16.8687   23.1307 C.2     1  UNL1        0.0192
     10 C          -6.8799  -18.1694   22.5530 C.2     1  UNL1        0.0301
     11 C          -5.8839  -19.1937   22.0958 C.2     1  UNL1        0.1571
     12 F          -6.3573  -20.4945   21.5180 F       1  UNL1       -0.2026
     13 C          -4.4146  -18.9170   22.2164 C.2     1  UNL1        0.1050
     14 N          -3.2071  -19.7295   21.8531 N.2     1  UNL1       -0.2419
     15 C          -1.9876  -18.9308   22.2063 C.2     1  UNL1        0.0986
     16 C          -2.4413  -17.6247   22.7879 C.2     1  UNL1        0.0183
     17 C          -3.9413  -17.6162   22.7942 C.2     1  UNL1        0.0037
     18 C          -4.9373  -16.5920   23.2513 C.3     1  UNL1        0.0572
     19 C          -9.2093  -15.9447   24.4572 C.3     1  UNL1        0.0350
     20 C          -9.7613  -17.3077   24.1612 C.ar    1  UNL1       -0.0217
     21 C          -9.5873  -18.4190   25.1535 C.ar    1  UNL1       -0.0043
     22 C         -10.1394  -19.7820   24.8576 C.ar    1  UNL1       -0.0003
     23 C         -10.8654  -20.0337   23.5694 C.ar    1  UNL1       -0.0000
     24 C         -11.0394  -18.9223   22.5771 C.ar    1  UNL1       -0.0003
     25 C         -10.4873  -17.5593   22.8730 C.ar    1  UNL1       -0.0043
@<TRIPOS>BOND
     1     7     8    2
     2     8     9    1
     3     9    10    2
     4    10    11    1
     5    11    12    1
     6    11    13    2
     7    13    14    1
     8    14    15    2
     9    15    16    1
    10    16    17    2
    11    17    18    1
    12     8     1    1
    13     1    19    1
    14    19    20    1
    15    20    21   ar
    16    21    22   ar
    17    22    23   ar
    18    23    24   ar
    19    24    25   ar
    20     1     2    1
    21     2     3    1
    22     3     4    1
    23     4     5    1
    24    18     9    1
    25     5     1    1
    26    17    13    1
    27    25    20   ar
    28     4     6    1
@<TRIPOS>MOLECULE
*****
 25 28 0 0 0
SMALL
GASTEIGER

@<TRIPOS>ATOM
      1 C          -6.6998  -15.4745   24.5225 C.3     1  UNL1        0.0750
      2 C          -5.4748  -15.3523   25.3796 C.3     1  UNL1        0.0260
      3 C          -5.9183  -15.2290   26.8071 C.3     1  UNL1        0.0691
      4 N          -7.4173  -15.2750   26.8324 N.3     1  UNL1       -0.2971
      5 C          -7.9004  -15.4267   25.4205 C.3     1  UNL1        0.0762
      6 H          -7.7835  -14.4112   27.2325 H       1  UNL1        0.1233
      7 O          -7.5242  -14.8934   22.1283 O.2     1  UNL1       -0.2916
      8 C          -7.7183  -15.6127   23.4300 C.2     1  UNL1        0.1703
      9 C          -8.9310  -16.4704   23.6395 C.2     1  UNL1        0.0192
     10 C          -8.8311  -17.7236   24.4575 C.2     1  UNL1        0.0301
     11 C         -10.0439  -18.5813   24.6670 C.2     1  UNL1        0.1571
     12 F          -9.9439  -19.8346   25.4851 F       1  UNL1       -0.2026
     13 C         -11.3565  -18.1855   24.0583 C.2     1  UNL1        0.1050
     14 N         -12.7122  -18.8265   24.0919 N.2     1  UNL1       -0.2419
     15 C         -13.6500  -17.9693   23.2946 C.2     1  UNL1        0.0986
     16 C         -12.8739  -16.7985   22.7683 C.2     1  UNL1        0.0183
     17 C         -11.4563  -16.9322   23.2403 C.2     1  UNL1        0.0037
     18 C         -10.2436  -16.0746   23.0309 C.3     1  UNL1        0.0572
     19 C          -5.7121  -15.5512   23.3962 C.3     1  UNL1        0.0350
     20 C          -5.0435  -16.8542   23.0723 C.ar    1  UNL1       -0.0217
     21 C          -5.8669  -18.0361   22.6539 C.ar    1  UNL1       -0.0043
     22 C          -5.1983  -19.3392   22.3301 C.ar    1  UNL1       -0.0003
     23 C          -3.7062  -19.4605   22.4247 C.ar    1  UNL1       -0.0000
     24 C          -2.8828  -18.2786   22.8431 C.ar    1  UNL1       -0.0003
     25 C          -3.5514  -16.9755   23.1670 C.ar    1  UNL1       -0.0043
@<TRIPOS>BOND
     1     7     8    2
     2     8     9    1
     3     9    10    2
     4    10    11    1
     5    11    12    1
     6    11    13    2
     7    13    14    1
     8    14    15    2
     9    15    16    1
    10    16    17    2
    11    17    18    1
    12     8     1    1
    13     1    19    1
    14    19    20    1
    15    20    21   ar
    16    21    22   ar
    17    22    23   ar
    18    23    24   ar
    19    24    25   ar
    20     1     2    1
    21     2     3    1
    22     3     4    1
    23     4     5    1
    24    18     9    1
    25     5     1    1
    26    17    13    1
    27    25    20   ar
    28     4     6    1
