@<TRIPOS>MOLECULE
*****
 28 32 0 0 0
SMALL
GASTEIGER

@<TRIPOS>ATOM
      1 O          -7.0882  -19.0073   22.9865 O.3     1  UNL1       -0.4733
      2 C          -8.0783  -17.9272   22.6655 C.3     1  UNL1        0.2026
      3 C          -9.1382  -17.9893   21.6059 C.ar    1  UNL1        0.0146
      4 C          -9.5100  -19.0565   20.6196 C.ar    1  UNL1       -0.0011
      5 C         -10.6411  -18.8302   19.6607 C.ar    1  UNL1       -0.0002
      6 C         -11.4003  -17.5368   19.6881 C.ar    1  UNL1       -0.0003
      7 C         -11.0284  -16.4697   20.6744 C.ar    1  UNL1       -0.0044
      8 C          -9.8973  -16.6959   21.6333 C.ar    1  UNL1       -0.0213
      9 C          -9.3067  -15.8345   22.7099 C.3     1  UNL1        0.0461
     10 C          -8.1824  -16.5955   23.3478 C.3     1  UNL1        0.1066
     11 N          -7.3147  -16.1100   24.4709 N.3     1  UNL1       -0.2703
     12 C          -7.7596  -15.8491   25.8795 C.3     1  UNL1        0.0722
     13 C          -6.5696  -15.3780   26.6617 C.3     1  UNL1        0.0188
     14 C          -5.3892  -15.3477   25.7367 C.3     1  UNL1        0.0188
     15 C          -5.8497  -15.8001   24.3827 C.3     1  UNL1        0.0722
     16 C          -3.7498  -18.9962   20.8405 C.ar    1  UNL1        0.0713
     17 C          -3.9792  -20.1837   19.9532 C.ar    1  UNL1        0.0179
     18 C          -5.2449  -20.9791   20.0770 C.ar    1  UNL1        0.0046
     19 C          -6.2812  -20.5869   21.0881 C.ar    1  UNL1        0.0370
     20 C          -6.0519  -19.3994   21.9755 C.ar    1  UNL1        0.1404
     21 C          -4.7861  -18.6041   21.8516 C.ar    1  UNL1        0.0545
     22 O          -3.1198  -16.1522   22.3115 O.2     1  UNL1       -0.2462
     23 C          -2.1946  -16.8936   21.3928 C.ar    1  UNL1        0.3322
     24 N          -0.8172  -16.4579   20.9889 N.ar    1  UNL1       -0.3039
     25 C          -0.2555  -17.4959   20.0632 C.ar    1  UNL1        0.0953
     26 C          -1.2857  -18.5732   19.8949 C.ar    1  UNL1        0.1029
     27 N          -2.4841  -18.2009   20.7166 N.ar    1  UNL1       -0.2575
     28 H          -0.3618  -15.6351   21.2803 H       1  UNL1        0.1705
@<TRIPOS>BOND
     1    22    23    2
     2    23    24   ar
     3    24    25   ar
     4    25    26   ar
     5    26    27   ar
     6    27    16    1
     7    16    17   ar
     8    17    18   ar
     9    18    19   ar
    10    19    20   ar
    11    20     1    1
    12     2     1    1
    13     2     3    1
    14     3     4   ar
    15     4     5   ar
    16     5     6   ar
    17     6     7   ar
    18     7     8   ar
    19     8     9    1
    20     9    10    1
    21    10    11    1
    22    11    12    1
    23    12    13    1
    24    13    14    1
    25    14    15    1
    26    20    21   ar
    27    27    23   ar
    28    21    16   ar
    29    10     2    1
    30    15    11    1
    31     8     3   ar
    32    24    28    1
@<TRIPOS>MOLECULE
*****
 28 32 0 0 0
SMALL
GASTEIGER

@<TRIPOS>ATOM
      1 O          -7.9967  -17.2740   21.4242 O.3     1  UNL1       -0.4733
      2 C          -8.2278  -16.8133   22.8328 C.3     1  UNL1        0.2026
      3 C          -7.1731  -16.3475   23.7924 C.ar    1  UNL1        0.0146
      4 C          -5.6857  -16.2076   23.6585 C.ar    1  UNL1       -0.0011
      5 C          -4.8728  -15.7040   24.8141 C.ar    1  UNL1       -0.0002
      6 C          -5.5473  -15.3402   26.1036 C.ar    1  UNL1       -0.0003
      7 C          -7.0347  -15.4802   26.2374 C.ar    1  UNL1       -0.0044
      8 C          -7.8476  -15.9838   25.0818 C.ar    1  UNL1       -0.0213
      9 C          -9.3192  -16.2248   24.9192 C.3     1  UNL1        0.0461
     10 C          -9.5542  -16.7374   23.5293 C.3     1  UNL1        0.1066
     11 N         -10.8823  -17.1090   22.9393 N.3     1  UNL1       -0.2703
     12 C         -11.3913  -16.7033   21.5879 C.3     1  UNL1        0.0722
     13 C         -12.7582  -17.2951   21.4106 C.3     1  UNL1        0.0188
     14 C         -13.0940  -18.0665   22.6524 C.3     1  UNL1        0.0188
     15 C         -11.9346  -17.9514   23.5972 C.3     1  UNL1        0.0722
     16 C          -4.6248  -19.0991   20.3997 C.ar    1  UNL1        0.0713
     17 C          -5.0128  -20.5362   20.5846 C.ar    1  UNL1        0.0179
     18 C          -6.3955  -20.8859   21.0494 C.ar    1  UNL1        0.0046
     19 C          -7.3901  -19.7985   21.3292 C.ar    1  UNL1        0.0370
     20 C          -7.0021  -18.3613   21.1443 C.ar    1  UNL1        0.1404
     21 C          -5.6194  -18.0117   20.6795 C.ar    1  UNL1        0.0545
     22 O          -1.8360  -20.2686   21.6260 O.2     1  UNL1       -0.2462
     23 C          -1.9603  -19.2871   20.4986 C.ar    1  UNL1        0.3322
     24 N          -0.8245  -18.6707   19.7370 N.ar    1  UNL1       -0.3039
     25 C          -1.4044  -17.7522   18.7025 C.ar    1  UNL1        0.0953
     26 C          -2.8987  -17.8009   18.8249 C.ar    1  UNL1        0.1029
     27 N          -3.2422  -18.7495   19.9349 N.ar    1  UNL1       -0.2575
     28 H           0.1334  -18.8394   19.8893 H       1  UNL1        0.1705
@<TRIPOS>BOND
     1    22    23    2
     2    23    24   ar
     3    24    25   ar
     4    25    26   ar
     5    26    27   ar
     6    27    16    1
     7    16    17   ar
     8    17    18   ar
     9    18    19   ar
    10    19    20   ar
    11    20     1    1
    12     2     1    1
    13     2     3    1
    14     3     4   ar
    15     4     5   ar
    16     5     6   ar
    17     6     7   ar
    18     7     8   ar
    19     8     9    1
    20     9    10    1
    21    10    11    1
    22    11    12    1
    23    12    13    1
    24    13    14    1
    25    14    15    1
    26    20    21   ar
    27    27    23   ar
    28    21    16   ar
    29    10     2    1
    30    15    11    1
    31     8     3   ar
    32    24    28    1
@<TRIPOS>MOLECULE
*****
 28 32 0 0 0
SMALL
GASTEIGER

@<TRIPOS>ATOM
      1 O          -5.4532  -19.0941   22.7045 O.3     1  UNL1       -0.4733
      2 C          -4.3876  -18.0599   22.4926 C.3     1  UNL1        0.2026
      3 C          -3.2179  -18.1773   21.5609 C.ar    1  UNL1        0.0146
      4 C          -2.7825  -19.2692   20.6291 C.ar    1  UNL1       -0.0011
      5 C          -1.5412  -19.1005   19.8042 C.ar    1  UNL1       -0.0002
      6 C          -0.7353  -17.8399   19.9110 C.ar    1  UNL1       -0.0003
      7 C          -1.1706  -16.7480   20.8428 C.ar    1  UNL1       -0.0044
      8 C          -2.4119  -16.9168   21.6677 C.ar    1  UNL1       -0.0213
      9 C          -3.0835  -16.0203   22.6654 C.3     1  UNL1        0.0461
     10 C          -4.3046  -16.7268   23.1752 C.3     1  UNL1        0.1066
     11 N          -5.2726  -16.1939   24.1895 N.3     1  UNL1       -0.2703
     12 C          -5.0086  -16.0245   25.6564 C.3     1  UNL1        0.0722
     13 C          -6.2474  -15.4626   26.2885 C.3     1  UNL1        0.0188
     14 C          -7.2771  -15.2847   25.2123 C.3     1  UNL1        0.0188
     15 C          -6.6746  -15.7366   23.9151 C.3     1  UNL1        0.0722
     16 C          -9.1522  -18.5293   21.3824 C.ar    1  UNL1        0.0713
     17 C          -9.0723  -19.1762   20.0315 C.ar    1  UNL1        0.0179
     18 C          -7.7860  -19.7958   19.5715 C.ar    1  UNL1        0.0046
     19 C          -6.5797  -19.7684   20.4625 C.ar    1  UNL1        0.0370
     20 C          -6.6595  -19.1214   21.8135 C.ar    1  UNL1        0.1404
     21 C          -7.9459  -18.5019   22.2734 C.ar    1  UNL1        0.0545
     22 O         -10.1836  -15.5119   20.6889 O.2     1  UNL1       -0.2462
     23 C         -10.9126  -16.5227   21.5235 C.ar    1  UNL1        0.3322
     24 N         -12.2437  -16.3241   22.1859 N.ar    1  UNL1       -0.3039
     25 C         -12.5923  -17.5883   22.9141 C.ar    1  UNL1        0.0953
     26 C         -11.4766  -18.5683   22.7017 C.ar    1  UNL1        0.1029
     27 N         -10.4386  -17.9097   21.8423 N.ar    1  UNL1       -0.2575
     28 H         -12.7922  -15.5074   22.1491 H       1  UNL1        0.1705
@<TRIPOS>BOND
     1    22    23    2
     2    23    24   ar
     3    24    25   ar
     4    25    26   ar
     5    26    27   ar
     6    27    16    1
     7    16    17   ar
     8    17    18   ar
     9    18    19   ar
    10    19    20   ar
    11    20     1    1
    12     2     1    1
    13     2     3    1
    14     3     4   ar
    15     4     5   ar
    16     5     6   ar
    17     6     7   ar
    18     7     8   ar
    19     8     9    1
    20     9    10    1
    21    10    11    1
    22    11    12    1
    23    12    13    1
    24    13    14    1
    25    14    15    1
    26    20    21   ar
    27    27    23   ar
    28    21    16   ar
    29    10     2    1
    30    15    11    1
    31     8     3   ar
    32    24    28    1
@<TRIPOS>MOLECULE
*****
 28 32 0 0 0
SMALL
GASTEIGER

@<TRIPOS>ATOM
      1 O          -7.2014  -17.6307   20.8156 O.3     1  UNL1       -0.4733
      2 C          -6.7957  -18.9985   20.3524 C.3     1  UNL1        0.2026
      3 C          -7.6157  -19.9192   19.4980 C.ar    1  UNL1        0.0146
      4 C          -8.9796  -19.7759   18.8905 C.ar    1  UNL1       -0.0011
      5 C          -9.5535  -20.8890   18.0648 C.ar    1  UNL1       -0.0002
      6 C          -8.7635  -22.1453   17.8467 C.ar    1  UNL1       -0.0003
      7 C          -7.3996  -22.2885   18.4542 C.ar    1  UNL1       -0.0044
      8 C          -6.8257  -21.1755   19.2799 C.ar    1  UNL1       -0.0213
      9 C          -5.5175  -21.0312   19.9995 C.3     1  UNL1        0.0461
     10 C          -5.4989  -19.6858   20.6623 C.3     1  UNL1        0.1066
     11 N          -4.3801  -19.1259   21.4898 N.3     1  UNL1       -0.2703
     12 C          -2.9173  -19.2133   21.1695 C.3     1  UNL1        0.0722
     13 C          -2.1608  -18.5217   22.2646 C.3     1  UNL1        0.0188
     14 C          -3.1560  -18.0068   23.2618 C.3     1  UNL1        0.0188
     15 C          -4.5276  -18.3802   22.7830 C.3     1  UNL1        0.0722
     16 C          -8.2743  -16.5844   24.4904 C.ar    1  UNL1        0.0713
     17 C          -9.6586  -17.1583   24.5557 C.ar    1  UNL1        0.0179
     18 C         -10.2239  -17.8896   23.3743 C.ar    1  UNL1        0.0046
     19 C          -9.4048  -18.0471   22.1277 C.ar    1  UNL1        0.0370
     20 C          -8.0204  -17.4732   22.0623 C.ar    1  UNL1        0.1404
     21 C          -7.4552  -16.7419   23.2437 C.ar    1  UNL1        0.0545
     22 O          -5.4448  -14.9603   24.5667 O.2     1  UNL1       -0.2462
     23 C          -6.4085  -15.1066   25.7068 C.ar    1  UNL1        0.3322
     24 N          -6.2408  -14.5320   27.0822 N.ar    1  UNL1       -0.3039
     25 C          -7.4377  -14.9234   27.8973 C.ar    1  UNL1        0.0953
     26 C          -8.3452  -15.7399   27.0255 C.ar    1  UNL1        0.1029
     27 N          -7.7091  -15.8531   25.6718 N.ar    1  UNL1       -0.2575
     28 H          -5.4789  -13.9927   27.3951 H       1  UNL1        0.1705
@<TRIPOS>BOND
     1    22    23    2
     2    23    24   ar
     3    24    25   ar
     4    25    26   ar
     5    26    27   ar
     6    27    16    1
     7    16    17   ar
     8    17    18   ar
     9    18    19   ar
    10    19    20   ar
    11    20     1    1
    12     2     1    1
    13     2     3    1
    14     3     4   ar
    15     4     5   ar
    16     5     6   ar
    17     6     7   ar
    18     7     8   ar
    19     8     9    1
    20     9    10    1
    21    10    11    1
    22    11    12    1
    23    12    13    1
    24    13    14    1
    25    14    15    1
    26    20    21   ar
    27    27    23   ar
    28    21    16   ar
    29    10     2    1
    30    15    11    1
    31     8     3   ar
    32    24    28    1
@<TRIPOS>MOLECULE
*****
 28 32 0 0 0
SMALL
GASTEIGER

@<TRIPOS>ATOM
      1 O          -6.2280  -19.0394   22.7457 O.3     1  UNL1       -0.4733
      2 C          -7.4275  -18.1883   22.4509 C.3     1  UNL1        0.2026
      3 C          -8.4716  -18.4663   21.4105 C.ar    1  UNL1        0.0146
      4 C          -8.6322  -19.5842   20.4234 C.ar    1  UNL1       -0.0011
      5 C          -9.8041  -19.5954   19.4871 C.ar    1  UNL1       -0.0002
      6 C         -10.8152  -18.4886   19.5379 C.ar    1  UNL1       -0.0003
      7 C         -10.6546  -17.3707   20.5250 C.ar    1  UNL1       -0.0044
      8 C          -9.4828  -17.3595   21.4613 C.ar    1  UNL1       -0.0213
      9 C          -9.0635  -16.3975   22.5331 C.3     1  UNL1        0.0461
     10 C          -7.7933  -16.9097   23.1447 C.3     1  UNL1        0.1066
     11 N          -7.0240  -16.2578   24.2552 N.3     1  UNL1       -0.2703
     12 C          -5.7271  -15.5176   24.1132 C.3     1  UNL1        0.0722
     13 C          -5.3180  -15.0340   25.4729 C.3     1  UNL1        0.0188
     14 C          -6.3621  -15.4753   26.4553 C.3     1  UNL1        0.0188
     15 C          -7.4164  -16.2316   25.7027 C.3     1  UNL1        0.0722
     16 C          -2.9521  -17.8360   20.8564 C.ar    1  UNL1        0.0713
     17 C          -2.0906  -17.4280   22.0146 C.ar    1  UNL1        0.0179
     18 C          -2.6082  -17.5572   23.4165 C.ar    1  UNL1        0.0046
     19 C          -3.9874  -18.0943   23.6602 C.ar    1  UNL1        0.0370
     20 C          -4.8490  -18.5023   22.5020 C.ar    1  UNL1        0.1404
     21 C          -4.3312  -18.3731   21.1001 C.ar    1  UNL1        0.0545
     22 O          -0.0171  -18.7943   19.7996 O.2     1  UNL1       -0.2462
     23 C          -1.0853  -18.1473   18.9688 C.ar    1  UNL1        0.3322
     24 N          -0.9919  -17.8272   17.5064 N.ar    1  UNL1       -0.3039
     25 C          -2.2833  -17.1888   17.0882 C.ar    1  UNL1        0.0953
     26 C          -3.1748  -17.1144   18.2923 C.ar    1  UNL1        0.1029
     27 N          -2.4343  -17.7068   19.4545 N.ar    1  UNL1       -0.2575
     28 H          -0.2188  -18.0049   16.9233 H       1  UNL1        0.1705
@<TRIPOS>BOND
     1    22    23    2
     2    23    24   ar
     3    24    25   ar
     4    25    26   ar
     5    26    27   ar
     6    27    16    1
     7    16    17   ar
     8    17    18   ar
     9    18    19   ar
    10    19    20   ar
    11    20     1    1
    12     2     1    1
    13     2     3    1
    14     3     4   ar
    15     4     5   ar
    16     5     6   ar
    17     6     7   ar
    18     7     8   ar
    19     8     9    1
    20     9    10    1
    21    10    11    1
    22    11    12    1
    23    12    13    1
    24    13    14    1
    25    14    15    1
    26    20    21   ar
    27    27    23   ar
    28    21    16   ar
    29    10     2    1
    30    15    11    1
    31     8     3   ar
    32    24    28    1
@<TRIPOS>MOLECULE
*****
 28 32 0 0 0
SMALL
GASTEIGER

@<TRIPOS>ATOM
      1 O          -6.3372  -17.2228   23.1753 O.3     1  UNL1       -0.4733
      2 C          -5.8330  -18.3651   22.3441 C.3     1  UNL1        0.2026
      3 C          -4.4180  -18.5672   21.8892 C.ar    1  UNL1        0.0146
      4 C          -3.1704  -17.7624   22.1027 C.ar    1  UNL1       -0.0011
      5 C          -1.8705  -18.2231   21.5128 C.ar    1  UNL1       -0.0002
      6 C          -1.8182  -19.4887   20.7094 C.ar    1  UNL1       -0.0003
      7 C          -3.0658  -20.2936   20.4959 C.ar    1  UNL1       -0.0044
      8 C          -4.3657  -19.8328   21.0857 C.ar    1  UNL1       -0.0213
      9 C          -5.7484  -20.4128   21.0441 C.3     1  UNL1        0.0461
     10 C          -6.6552  -19.5057   21.8218 C.3     1  UNL1        0.1066
     11 N          -8.1261  -19.7044   22.0391 N.3     1  UNL1       -0.2703
     12 C          -9.2016  -19.5254   21.0090 C.3     1  UNL1        0.0722
     13 C         -10.5199  -19.8273   21.6578 C.3     1  UNL1        0.0188
     14 C         -10.2591  -20.1929   23.0890 C.3     1  UNL1        0.0188
     15 C          -8.7796  -20.1170   23.3246 C.3     1  UNL1        0.0722
     16 C         -10.0145  -16.2644   22.0314 C.ar    1  UNL1        0.0713
     17 C         -10.7452  -16.3330   23.3395 C.ar    1  UNL1        0.0179
     18 C         -10.0067  -16.6983   24.5930 C.ar    1  UNL1        0.0046
     19 C          -8.5373  -16.9948   24.5382 C.ar    1  UNL1        0.0370
     20 C          -7.8065  -16.9262   23.2300 C.ar    1  UNL1        0.1404
     21 C          -8.5451  -16.5609   21.9766 C.ar    1  UNL1        0.0545
     22 O         -12.9574  -17.3647   21.1495 O.2     1  UNL1       -0.2462
     23 C         -12.1058  -16.4049   20.3727 C.ar    1  UNL1        0.3322
     24 N         -12.4575  -15.7823   19.0541 N.ar    1  UNL1       -0.3039
     25 C         -11.3221  -14.8918   18.6444 C.ar    1  UNL1        0.0953
     26 C         -10.2687  -14.9640   19.7099 C.ar    1  UNL1        0.1029
     27 N         -10.7531  -15.8991   20.7780 N.ar    1  UNL1       -0.2575
     28 H         -13.2877  -15.9320   18.5466 H       1  UNL1        0.1705
@<TRIPOS>BOND
     1    22    23    2
     2    23    24   ar
     3    24    25   ar
     4    25    26   ar
     5    26    27   ar
     6    27    16    1
     7    16    17   ar
     8    17    18   ar
     9    18    19   ar
    10    19    20   ar
    11    20     1    1
    12     2     1    1
    13     2     3    1
    14     3     4   ar
    15     4     5   ar
    16     5     6   ar
    17     6     7   ar
    18     7     8   ar
    19     8     9    1
    20     9    10    1
    21    10    11    1
    22    11    12    1
    23    12    13    1
    24    13    14    1
    25    14    15    1
    26    20    21   ar
    27    27    23   ar
    28    21    16   ar
    29    10     2    1
    30    15    11    1
    31     8     3   ar
    32    24    28    1
@<TRIPOS>MOLECULE
*****
 28 32 0 0 0
SMALL
GASTEIGER

@<TRIPOS>ATOM
      1 O          -6.9792  -17.4440   20.8490 O.3     1  UNL1       -0.4733
      2 C          -6.6431  -18.8522   20.4564 C.3     1  UNL1        0.2026
      3 C          -7.5070  -19.7711   19.6446 C.ar    1  UNL1        0.0146
      4 C          -8.8602  -19.5888   19.0237 C.ar    1  UNL1       -0.0011
      5 C          -9.4884  -20.7107   18.2513 C.ar    1  UNL1       -0.0002
      6 C          -8.7633  -22.0151   18.0999 C.ar    1  UNL1       -0.0003
      7 C          -7.4101  -22.1975   18.7207 C.ar    1  UNL1       -0.0044
      8 C          -6.7820  -21.0755   19.4931 C.ar    1  UNL1       -0.0213
      9 C          -5.4699  -20.9626   20.2113 C.3     1  UNL1        0.0461
     10 C          -5.3841  -19.5885   20.8067 C.3     1  UNL1        0.1066
     11 N          -4.2401  -19.0460   21.6111 N.3     1  UNL1       -0.2703
     12 C          -2.7980  -19.0378   21.1987 C.3     1  UNL1        0.0722
     13 C          -2.0040  -18.4032   22.3019 C.3     1  UNL1        0.0188
     14 C          -2.9555  -18.0192   23.3961 C.3     1  UNL1        0.0188
     15 C          -4.3375  -18.4165   22.9691 C.3     1  UNL1        0.0722
     16 C          -9.8579  -17.3029   23.5771 C.ar    1  UNL1        0.0713
     17 C          -9.1386  -16.6401   24.7143 C.ar    1  UNL1        0.0179
     18 C          -7.6994  -16.2453   24.5631 C.ar    1  UNL1        0.0046
     19 C          -6.9796  -16.5132   23.2747 C.ar    1  UNL1        0.0370
     20 C          -7.6990  -17.1761   22.1374 C.ar    1  UNL1        0.1404
     21 C          -9.1382  -17.5708   22.2887 C.ar    1  UNL1        0.0545
     22 O         -12.3388  -16.2526   21.7355 O.2     1  UNL1       -0.2462
     23 C         -12.4374  -17.2149   22.8819 C.ar    1  UNL1        0.3322
     24 N         -13.6937  -17.8634   23.3831 N.ar    1  UNL1       -0.3039
     25 C         -13.3299  -18.7469   24.5394 C.ar    1  UNL1        0.0953
     26 C         -11.8486  -18.6445   24.7528 C.ar    1  UNL1        0.1029
     27 N         -11.2971  -17.6977   23.7284 N.ar    1  UNL1       -0.2575
     28 H         -14.5983  -17.7321   23.0173 H       1  UNL1        0.1705
@<TRIPOS>BOND
     1    22    23    2
     2    23    24   ar
     3    24    25   ar
     4    25    26   ar
     5    26    27   ar
     6    27    16    1
     7    16    17   ar
     8    17    18   ar
     9    18    19   ar
    10    19    20   ar
    11    20     1    1
    12     2     1    1
    13     2     3    1
    14     3     4   ar
    15     4     5   ar
    16     5     6   ar
    17     6     7   ar
    18     7     8   ar
    19     8     9    1
    20     9    10    1
    21    10    11    1
    22    11    12    1
    23    12    13    1
    24    13    14    1
    25    14    15    1
    26    20    21   ar
    27    27    23   ar
    28    21    16   ar
    29    10     2    1
    30    15    11    1
    31     8     3   ar
    32    24    28    1
@<TRIPOS>MOLECULE
*****
 28 32 0 0 0
SMALL
GASTEIGER

@<TRIPOS>ATOM
      1 O          -6.0893  -18.9861   22.1754 O.3     1  UNL1       -0.4733
      2 C          -5.8985  -17.7010   22.9252 C.3     1  UNL1        0.2026
      3 C          -6.9213  -17.0237   23.7883 C.ar    1  UNL1        0.0146
      4 C          -8.3332  -17.3851   24.1431 C.ar    1  UNL1       -0.0011
      5 C          -9.1301  -16.4946   25.0496 C.ar    1  UNL1       -0.0002
      6 C          -8.5151  -15.2426   25.6013 C.ar    1  UNL1       -0.0003
      7 C          -7.1033  -14.8812   25.2465 C.ar    1  UNL1       -0.0044
      8 C          -6.3064  -15.7717   24.3400 C.ar    1  UNL1       -0.0213
      9 C          -4.9035  -15.6754   23.8179 C.3     1  UNL1        0.0461
     10 C          -4.6513  -16.8678   22.9434 C.3     1  UNL1        0.1066
     11 N          -3.3761  -17.1732   22.2152 N.3     1  UNL1       -0.2703
     12 C          -2.9312  -18.5267   21.7459 C.3     1  UNL1        0.0722
     13 C          -1.6019  -18.3688   21.0690 C.3     1  UNL1        0.0188
     14 C          -1.2252  -16.9178   21.1200 C.3     1  UNL1        0.0188
     15 C          -2.3217  -16.1789   21.8284 C.3     1  UNL1        0.0722
     16 C          -9.6681  -18.6080   20.5025 C.ar    1  UNL1        0.0713
     17 C          -9.4768  -19.3984   19.2421 C.ar    1  UNL1        0.0179
     18 C          -8.1563  -20.0514   18.9594 C.ar    1  UNL1        0.0046
     19 C          -7.0271  -19.9139   19.9372 C.ar    1  UNL1        0.0370
     20 C          -7.2184  -19.1235   21.1977 C.ar    1  UNL1        0.1404
     21 C          -8.5389  -18.4706   21.4803 C.ar    1  UNL1        0.0545
     22 O         -10.7112  -15.7748   19.2638 O.2     1  UNL1       -0.2462
     23 C         -11.4680  -16.6528   20.2157 C.ar    1  UNL1        0.3322
     24 N         -12.8373  -16.3827   20.7654 N.ar    1  UNL1       -0.3039
     25 C         -13.2042  -17.5180   21.6745 C.ar    1  UNL1        0.0953
     26 C         -12.0616  -18.4898   21.6867 C.ar    1  UNL1        0.1029
     27 N         -10.9886  -17.9551   20.7851 N.ar    1  UNL1       -0.2575
     28 H         -13.3969  -15.5980   20.5647 H       1  UNL1        0.1705
@<TRIPOS>BOND
     1    22    23    2
     2    23    24   ar
     3    24    25   ar
     4    25    26   ar
     5    26    27   ar
     6    27    16    1
     7    16    17   ar
     8    17    18   ar
     9    18    19   ar
    10    19    20   ar
    11    20     1    1
    12     2     1    1
    13     2     3    1
    14     3     4   ar
    15     4     5   ar
    16     5     6   ar
    17     6     7   ar
    18     7     8   ar
    19     8     9    1
    20     9    10    1
    21    10    11    1
    22    11    12    1
    23    12    13    1
    24    13    14    1
    25    14    15    1
    26    20    21   ar
    27    27    23   ar
    28    21    16   ar
    29    10     2    1
    30    15    11    1
    31     8     3   ar
    32    24    28    1
@<TRIPOS>MOLECULE
*****
 28 32 0 0 0
SMALL
GASTEIGER

@<TRIPOS>ATOM
      1 O          -6.5651  -19.1879   21.7972 O.3     1  UNL1       -0.4733
      2 C          -6.0244  -18.0360   22.5914 C.3     1  UNL1        0.2026
      3 C          -6.8155  -17.1447   23.5024 C.ar    1  UNL1        0.0146
      4 C          -8.2685  -17.1253   23.8743 C.ar    1  UNL1       -0.0011
      5 C          -8.7837  -16.0921   24.8319 C.ar    1  UNL1       -0.0002
      6 C          -7.8460  -15.0783   25.4175 C.ar    1  UNL1       -0.0003
      7 C          -6.3930  -15.0978   25.0455 C.ar    1  UNL1       -0.0044
      8 C          -5.8778  -16.1309   24.0880 C.ar    1  UNL1       -0.0213
      9 C          -4.5072  -16.3957   23.5389 C.3     1  UNL1        0.0461
     10 C          -4.5978  -17.5731   22.6139 C.3     1  UNL1        0.1066
     11 N          -3.4614  -18.1808   21.8463 N.3     1  UNL1       -0.2703
     12 C          -2.4269  -17.4305   21.0609 C.3     1  UNL1        0.0722
     13 C          -1.4861  -18.4315   20.4585 C.3     1  UNL1        0.0188
     14 C          -1.9391  -19.8005   20.8717 C.3     1  UNL1        0.0188
     15 C          -3.1599  -19.6455   21.7293 C.3     1  UNL1        0.0722
     16 C         -10.5246  -18.9415   21.9046 C.ar    1  UNL1        0.0713
     17 C         -10.8627  -19.1812   20.4630 C.ar    1  UNL1        0.0179
     18 C          -9.7683  -19.4232   19.4661 C.ar    1  UNL1        0.0046
     19 C          -8.3358  -19.4254   19.9109 C.ar    1  UNL1        0.0370
     20 C          -7.9976  -19.1857   21.3526 C.ar    1  UNL1        0.1404
     21 C          -9.0920  -18.9438   22.3494 C.ar    1  UNL1        0.0545
     22 O         -10.4830  -19.8149   25.0486 O.2     1  UNL1       -0.2462
     23 C         -11.5998  -19.1011   24.3466 C.ar    1  UNL1        0.3322
     24 N         -12.8937  -18.6633   24.9664 N.ar    1  UNL1       -0.3039
     25 C         -13.7126  -17.9913   23.9044 C.ar    1  UNL1        0.0953
     26 C         -12.9247  -18.0138   22.6281 C.ar    1  UNL1        0.1029
     27 N         -11.6190  -18.6996   22.9014 N.ar    1  UNL1       -0.2575
     28 H         -13.1590  -18.7941   25.9055 H       1  UNL1        0.1705
@<TRIPOS>BOND
     1    22    23    2
     2    23    24   ar
     3    24    25   ar
     4    25    26   ar
     5    26    27   ar
     6    27    16    1
     7    16    17   ar
     8    17    18   ar
     9    18    19   ar
    10    19    20   ar
    11    20     1    1
    12     2     1    1
    13     2     3    1
    14     3     4   ar
    15     4     5   ar
    16     5     6   ar
    17     6     7   ar
    18     7     8   ar
    19     8     9    1
    20     9    10    1
    21    10    11    1
    22    11    12    1
    23    12    13    1
    24    13    14    1
    25    14    15    1
    26    20    21   ar
    27    27    23   ar
    28    21    16   ar
    29    10     2    1
    30    15    11    1
    31     8     3   ar
    32    24    28    1
