@<TRIPOS>MOLECULE
*****
 34 38 0 0 0
SMALL
GASTEIGER

@<TRIPOS>ATOM
      1 N          -8.3573  -17.8407   22.9686 N.3     1  UNL1       -0.2644
      2 C          -9.8475  -17.9157   23.1227 C.3     1  UNL1        0.0981
      3 C         -10.4448  -18.6182   24.3057 C.3     1  UNL1        0.0224
      4 C         -11.9350  -18.6932   24.4597 C.3     1  UNL1        0.0065
      5 C         -12.8279  -18.0657   23.4307 C.3     1  UNL1        0.0277
      6 C         -12.2306  -17.3632   22.2476 C.ar    1  UNL1       -0.0073
      7 C         -13.1235  -16.7356   21.2185 C.ar    1  UNL1       -0.0015
      8 C         -12.5262  -16.0331   20.0355 C.ar    1  UNL1        0.0203
      9 C         -11.0360  -15.9581   19.8815 C.ar    1  UNL1        0.0985
     10 N         -10.1431  -16.5856   20.9105 N.ar    1  UNL1       -0.2471
     11 C         -10.7404  -17.2881   22.0936 C.ar    1  UNL1        0.0695
     12 C          -7.6484  -16.5328   23.1605 C.3     1  UNL1        0.0946
     13 C          -5.9244  -15.6113   24.8718 C.2     1  UNL1       -0.0354
     14 C          -7.3196  -16.0537   24.5433 C.2     1  UNL1       -0.0349
     15 C          -8.3858  -16.0169   25.5977 C.3     1  UNL1        0.0228
     16 C          -8.0570  -15.5378   26.9805 C.3     1  UNL1        0.0047
     17 C          -6.6619  -15.0955   27.3091 C.3     1  UNL1        0.0047
     18 C          -5.5955  -15.1322   26.2547 C.3     1  UNL1        0.0228
     19 N          -4.7022  -14.4974   22.8680 N.3     1  UNL1       -0.3177
     20 C          -4.8581  -15.6481   23.8175 C.3     1  UNL1        0.0873
     21 H          -3.9352  -14.6898   22.2237 H       1  UNL1        0.1191
     22 H          -4.4992  -13.6475   23.3942 H       1  UNL1        0.1191
     23 C          -7.5761  -19.0735   22.6228 C.3     1  UNL1        0.0888
     24 C          -6.3485  -18.9681   21.7672 C.3     1  UNL1        0.0748
     25 C          -4.9981  -18.8343   22.4063 C.3     1  UNL1        0.0432
     26 C          -3.7705  -18.7289   21.5506 C.ar    1  UNL1       -0.0234
     27 C          -2.4201  -18.5951   22.1897 C.ar    1  UNL1       -0.0045
     28 C          -1.1926  -18.4897   21.3341 C.ar    1  UNL1       -0.0003
     29 C          -1.3155  -18.5182   19.8394 C.ar    1  UNL1       -0.0003
     30 C          -2.6659  -18.6520   19.2003 C.ar    1  UNL1       -0.0032
     31 C          -3.8934  -18.7574   20.0560 C.ar    1  UNL1       -0.0103
     32 C          -5.2439  -18.8912   19.4169 C.3     1  UNL1        0.0953
     33 N          -6.4714  -18.9966   20.2725 N.3     1  UNL1       -0.2934
     34 H          -6.9239  -19.8783   20.0310 H       1  UNL1        0.1236
@<TRIPOS>BOND
     1    19    20    1
     2    20    13    1
     3    13    14    2
     4    14    12    1
     5    12     1    1
     6     1    23    1
     7    24    23    1
     8    24    25    1
     9    25    26    1
    10    26    27   ar
    11    27    28   ar
    12    28    29   ar
    13    29    30   ar
    14    30    31   ar
    15    31    32    1
    16    32    33    1
    17     2     1    1
    18     2     3    1
    19     3     4    1
    20     4     5    1
    21     5     6    1
    22     6     7   ar
    23     7     8   ar
    24     8     9   ar
    25     9    10   ar
    26    10    11   ar
    27    14    15    1
    28    15    16    1
    29    16    17    1
    30    17    18    1
    31    18    13    1
    32    33    24    1
    33    11     2    1
    34    31    26   ar
    35    11     6   ar
    36    19    21    1
    37    19    22    1
    38    33    34    1
@<TRIPOS>MOLECULE
*****
 34 38 0 0 0
SMALL
GASTEIGER

@<TRIPOS>ATOM
      1 N          -8.5893  -17.0502   22.4578 N.3     1  UNL1       -0.2644
      2 C         -10.0302  -16.9228   22.0610 C.3     1  UNL1        0.0981
      3 C         -10.3982  -16.2194   20.7883 C.3     1  UNL1        0.0224
      4 C         -11.8391  -16.0920   20.3914 C.3     1  UNL1        0.0065
      5 C         -12.9121  -16.6680   21.2672 C.3     1  UNL1        0.0277
      6 C         -12.5440  -17.3713   22.5399 C.ar    1  UNL1       -0.0073
      7 C         -13.6170  -17.9474   23.4158 C.ar    1  UNL1       -0.0015
      8 C         -13.2490  -18.6507   24.6884 C.ar    1  UNL1        0.0203
      9 C         -11.8080  -18.7781   25.0853 C.ar    1  UNL1        0.0985
     10 N         -10.7351  -18.2022   24.2095 N.ar    1  UNL1       -0.2471
     11 C         -11.1031  -17.4987   22.9368 C.ar    1  UNL1        0.0695
     12 C          -7.8288  -15.8424   22.9192 C.3     1  UNL1        0.0946
     13 C          -6.0595  -15.5671   24.8017 C.2     1  UNL1       -0.0354
     14 C          -7.4923  -15.6777   24.3717 C.2     1  UNL1       -0.0349
     15 C          -8.5885  -15.6236   25.3941 C.3     1  UNL1        0.0228
     16 C          -8.2520  -15.4589   26.8466 C.3     1  UNL1        0.0047
     17 C          -6.8192  -15.3483   27.2766 C.3     1  UNL1        0.0047
     18 C          -5.7229  -15.4024   26.2542 C.3     1  UNL1        0.0228
     19 N          -4.7449  -14.4628   22.8518 N.3     1  UNL1       -0.3177
     20 C          -4.9633  -15.6212   23.7793 C.3     1  UNL1        0.0873
     21 H          -3.9647  -14.6691   22.2280 H       1  UNL1        0.1191
     22 H          -4.5330  -13.6266   23.3962 H       1  UNL1        0.1191
     23 C          -7.9088  -18.3853   22.3933 C.3     1  UNL1        0.0888
     24 C          -6.6196  -18.5345   21.6411 C.3     1  UNL1        0.0748
     25 C          -5.3147  -18.5280   22.3807 C.3     1  UNL1        0.0432
     26 C          -4.0255  -18.6772   21.6285 C.ar    1  UNL1       -0.0234
     27 C          -2.7205  -18.6707   22.3681 C.ar    1  UNL1       -0.0045
     28 C          -1.4314  -18.8199   21.6159 C.ar    1  UNL1       -0.0003
     29 C          -1.4472  -18.9756   20.1240 C.ar    1  UNL1       -0.0003
     30 C          -2.7522  -18.9822   19.3845 C.ar    1  UNL1       -0.0032
     31 C          -4.0413  -18.8330   20.1367 C.ar    1  UNL1       -0.0103
     32 C          -5.3463  -18.8395   19.3971 C.3     1  UNL1        0.0953
     33 N          -6.6354  -18.6903   20.1493 N.3     1  UNL1       -0.2934
     34 H          -7.1928  -19.5199   19.9458 H       1  UNL1        0.1236
@<TRIPOS>BOND
     1    19    20    1
     2    20    13    1
     3    13    14    2
     4    14    12    1
     5    12     1    1
     6     1    23    1
     7    24    23    1
     8    24    25    1
     9    25    26    1
    10    26    27   ar
    11    27    28   ar
    12    28    29   ar
    13    29    30   ar
    14    30    31   ar
    15    31    32    1
    16    32    33    1
    17     2     1    1
    18     2     3    1
    19     3     4    1
    20     4     5    1
    21     5     6    1
    22     6     7   ar
    23     7     8   ar
    24     8     9   ar
    25     9    10   ar
    26    10    11   ar
    27    14    15    1
    28    15    16    1
    29    16    17    1
    30    17    18    1
    31    18    13    1
    32    33    24    1
    33    11     2    1
    34    31    26   ar
    35    11     6   ar
    36    19    21    1
    37    19    22    1
    38    33    34    1
@<TRIPOS>MOLECULE
*****
 34 38 0 0 0
SMALL
GASTEIGER

@<TRIPOS>ATOM
      1 N          -7.5269  -17.8799   22.3442 N.3     1  UNL1       -0.2644
      2 C          -8.6444  -18.3397   21.4555 C.3     1  UNL1        0.0981
      3 C          -8.3585  -19.2602   20.3063 C.3     1  UNL1        0.0224
      4 C          -9.4759  -19.7200   19.4175 C.3     1  UNL1        0.0065
      5 C         -10.8794  -19.2592   19.6781 C.3     1  UNL1        0.0277
      6 C         -11.1654  -18.3387   20.8273 C.ar    1  UNL1       -0.0073
      7 C         -12.5689  -17.8779   21.0878 C.ar    1  UNL1       -0.0015
      8 C         -12.8549  -16.9573   22.2371 C.ar    1  UNL1        0.0203
      9 C         -11.7374  -16.4976   23.1258 C.ar    1  UNL1        0.0985
     10 N         -10.3339  -16.9583   22.8653 N.ar    1  UNL1       -0.2471
     11 C         -10.0479  -17.8789   21.7160 C.ar    1  UNL1        0.0695
     12 C          -7.4742  -16.4538   22.8060 C.3     1  UNL1        0.0946
     13 C          -5.9034  -15.6700   24.7213 C.2     1  UNL1       -0.0354
     14 C          -7.2488  -16.1428   24.2560 C.2     1  UNL1       -0.0349
     15 C          -8.3687  -16.3046   25.2407 C.3     1  UNL1        0.0228
     16 C          -8.1433  -15.9936   26.6907 C.3     1  UNL1        0.0047
     17 C          -6.7980  -15.5209   27.1560 C.3     1  UNL1        0.0047
     18 C          -5.6780  -15.3591   26.1713 C.3     1  UNL1        0.0228
     19 N          -4.7830  -14.3486   22.7853 N.3     1  UNL1       -0.3177
     20 C          -4.7835  -15.5083   23.7367 C.3     1  UNL1        0.0873
     21 H          -3.9540  -14.3952   22.1928 H       1  UNL1        0.1191
     22 H          -4.7750  -13.4758   23.3131 H       1  UNL1        0.1191
     23 C          -6.4621  -18.8463   22.7711 C.3     1  UNL1        0.0888
     24 C          -5.0486  -18.6586   22.3054 C.3     1  UNL1        0.0748
     25 C          -4.7525  -18.5284   20.8408 C.3     1  UNL1        0.0432
     26 C          -3.3389  -18.3408   20.3751 C.ar    1  UNL1       -0.0234
     27 C          -3.0428  -18.2106   18.9104 C.ar    1  UNL1       -0.0045
     28 C          -1.6293  -18.0230   18.4449 C.ar    1  UNL1       -0.0003
     29 C          -0.5120  -17.9655   19.4439 C.ar    1  UNL1       -0.0003
     30 C          -0.8081  -18.0957   20.9086 C.ar    1  UNL1       -0.0032
     31 C          -2.2216  -18.2833   21.3742 C.ar    1  UNL1       -0.0103
     32 C          -2.5177  -18.4136   22.8389 C.3     1  UNL1        0.0953
     33 N          -3.9312  -18.6012   23.3045 N.3     1  UNL1       -0.2934
     34 H          -4.1390  -17.8264   23.9345 H       1  UNL1        0.1236
@<TRIPOS>BOND
     1    19    20    1
     2    20    13    1
     3    13    14    2
     4    14    12    1
     5    12     1    1
     6     1    23    1
     7    24    23    1
     8    24    25    1
     9    25    26    1
    10    26    27   ar
    11    27    28   ar
    12    28    29   ar
    13    29    30   ar
    14    30    31   ar
    15    31    32    1
    16    32    33    1
    17     2     1    1
    18     2     3    1
    19     3     4    1
    20     4     5    1
    21     5     6    1
    22     6     7   ar
    23     7     8   ar
    24     8     9   ar
    25     9    10   ar
    26    10    11   ar
    27    14    15    1
    28    15    16    1
    29    16    17    1
    30    17    18    1
    31    18    13    1
    32    33    24    1
    33    11     2    1
    34    31    26   ar
    35    11     6   ar
    36    19    21    1
    37    19    22    1
    38    33    34    1
@<TRIPOS>MOLECULE
*****
 34 38 0 0 0
SMALL
GASTEIGER

@<TRIPOS>ATOM
      1 N          -7.6608  -18.4958   22.4609 N.3     1  UNL1       -0.2644
      2 C          -9.0654  -18.8351   22.8634 C.3     1  UNL1        0.0981
      3 C          -9.3128  -19.8500   23.9398 C.3     1  UNL1        0.0224
      4 C         -10.7174  -20.1894   24.3423 C.3     1  UNL1        0.0065
      5 C         -11.8746  -19.5138   23.6683 C.3     1  UNL1        0.0277
      6 C         -11.6273  -18.4989   22.5918 C.ar    1  UNL1       -0.0073
      7 C         -12.7846  -17.8232   21.9178 C.ar    1  UNL1       -0.0015
      8 C         -12.5372  -16.8084   20.8414 C.ar    1  UNL1        0.0203
      9 C         -11.1326  -16.4690   20.4389 C.ar    1  UNL1        0.0985
     10 N          -9.9754  -17.1446   21.1129 N.ar    1  UNL1       -0.2471
     11 C         -10.2227  -18.1596   22.1894 C.ar    1  UNL1        0.0695
     12 C          -7.1964  -17.0698   22.4887 C.3     1  UNL1        0.0946
     13 C          -7.6820  -16.1003   24.8497 C.2     1  UNL1       -0.0354
     14 C          -6.7058  -16.4657   23.7710 C.2     1  UNL1       -0.0349
     15 C          -5.2390  -16.2268   23.9745 C.3     1  UNL1        0.0228
     16 C          -4.7483  -15.6226   25.2568 C.3     1  UNL1        0.0047
     17 C          -5.7245  -15.2573   26.3355 C.3     1  UNL1        0.0047
     18 C          -7.1913  -15.4962   26.1320 C.3     1  UNL1        0.0228
     19 N          -9.9676  -15.3548   23.8649 N.3     1  UNL1       -0.3177
     20 C          -9.1487  -16.3392   24.6462 C.3     1  UNL1        0.0873
     21 H         -10.9360  -15.6729   23.8263 H       1  UNL1        0.1191
     22 H          -9.5965  -15.2796   22.9178 H       1  UNL1        0.1191
     23 C          -6.7206  -19.5825   22.0307 C.3     1  UNL1        0.0888
     24 C          -5.2863  -19.2592   21.7337 C.3     1  UNL1        0.0748
     25 C          -4.8825  -18.8413   20.3508 C.3     1  UNL1        0.0432
     26 C          -3.4481  -18.5180   20.0538 C.ar    1  UNL1       -0.0234
     27 C          -3.0443  -18.1002   18.6710 C.ar    1  UNL1       -0.0045
     28 C          -1.6100  -17.7769   18.3740 C.ar    1  UNL1       -0.0003
     29 C          -0.5795  -17.8714   19.4598 C.ar    1  UNL1       -0.0003
     30 C          -0.9833  -18.2893   20.8427 C.ar    1  UNL1       -0.0032
     31 C          -2.4176  -18.6126   21.1397 C.ar    1  UNL1       -0.0103
     32 C          -2.8215  -19.0304   22.5226 C.3     1  UNL1        0.0953
     33 N          -4.2558  -19.3537   22.8196 N.3     1  UNL1       -0.2934
     34 H          -4.5523  -18.7213   23.5628 H       1  UNL1        0.1236
@<TRIPOS>BOND
     1    19    20    1
     2    20    13    1
     3    13    14    2
     4    14    12    1
     5    12     1    1
     6     1    23    1
     7    24    23    1
     8    24    25    1
     9    25    26    1
    10    26    27   ar
    11    27    28   ar
    12    28    29   ar
    13    29    30   ar
    14    30    31   ar
    15    31    32    1
    16    32    33    1
    17     2     1    1
    18     2     3    1
    19     3     4    1
    20     4     5    1
    21     5     6    1
    22     6     7   ar
    23     7     8   ar
    24     8     9   ar
    25     9    10   ar
    26    10    11   ar
    27    14    15    1
    28    15    16    1
    29    16    17    1
    30    17    18    1
    31    18    13    1
    32    33    24    1
    33    11     2    1
    34    31    26   ar
    35    11     6   ar
    36    19    21    1
    37    19    22    1
    38    33    34    1
@<TRIPOS>MOLECULE
*****
 34 38 0 0 0
SMALL
GASTEIGER

@<TRIPOS>ATOM
      1 N          -7.7176  -17.8622   22.7581 N.3     1  UNL1       -0.2644
      2 C          -9.0718  -18.2816   22.2681 C.3     1  UNL1        0.0981
      3 C         -10.2775  -18.0885   23.1392 C.3     1  UNL1        0.0224
      4 C         -11.6318  -18.5079   22.6491 C.3     1  UNL1        0.0065
      5 C         -11.7803  -19.1204   21.2880 C.3     1  UNL1        0.0277
      6 C         -10.5746  -19.3136   20.4169 C.ar    1  UNL1       -0.0073
      7 C         -10.7230  -19.9261   19.0557 C.ar    1  UNL1       -0.0015
      8 C          -9.5173  -20.1193   18.1846 C.ar    1  UNL1        0.0203
      9 C          -8.1631  -19.6999   18.6746 C.ar    1  UNL1        0.0985
     10 N          -8.0146  -19.0873   20.0358 N.ar    1  UNL1       -0.2471
     11 C          -9.2203  -18.8942   20.9069 C.ar    1  UNL1        0.0695
     12 C          -7.4511  -16.4229   23.0858 C.3     1  UNL1        0.0946
     13 C          -5.9066  -15.4847   24.9524 C.2     1  UNL1       -0.0354
     14 C          -7.2427  -16.0044   24.5110 C.2     1  UNL1       -0.0349
     15 C          -8.3704  -16.1054   25.4949 C.3     1  UNL1        0.0228
     16 C          -8.1620  -15.6869   26.9202 C.3     1  UNL1        0.0047
     17 C          -6.8259  -15.1672   27.3615 C.3     1  UNL1        0.0047
     18 C          -5.6982  -15.0661   26.3776 C.3     1  UNL1        0.0228
     19 N          -4.8568  -14.4024   22.8366 N.3     1  UNL1       -0.3177
     20 C          -4.7789  -15.3836   23.9684 C.3     1  UNL1        0.0873
     21 H          -4.0108  -14.4684   22.2706 H       1  UNL1        0.1191
     22 H          -4.9425  -13.4575   23.2110 H       1  UNL1        0.1191
     23 C          -6.6297  -18.8821   22.9204 C.3     1  UNL1        0.0888
     24 C          -5.4295  -18.8481   22.0213 C.3     1  UNL1        0.0748
     25 C          -4.3272  -17.8640   22.2788 C.3     1  UNL1        0.0432
     26 C          -3.1269  -17.8300   21.3797 C.ar    1  UNL1       -0.0234
     27 C          -2.0246  -16.8458   21.6371 C.ar    1  UNL1       -0.0045
     28 C          -0.8244  -16.8118   20.7380 C.ar    1  UNL1       -0.0003
     29 C          -0.7266  -17.7620   19.5815 C.ar    1  UNL1       -0.0003
     30 C          -1.8289  -18.7462   19.3241 C.ar    1  UNL1       -0.0032
     31 C          -3.0291  -18.7801   20.2231 C.ar    1  UNL1       -0.0103
     32 C          -4.1314  -19.7643   19.9657 C.3     1  UNL1        0.0953
     33 N          -5.3316  -19.7983   20.8648 N.3     1  UNL1       -0.2934
     34 H          -5.3825  -20.7403   21.2526 H       1  UNL1        0.1236
@<TRIPOS>BOND
     1    19    20    1
     2    20    13    1
     3    13    14    2
     4    14    12    1
     5    12     1    1
     6     1    23    1
     7    24    23    1
     8    24    25    1
     9    25    26    1
    10    26    27   ar
    11    27    28   ar
    12    28    29   ar
    13    29    30   ar
    14    30    31   ar
    15    31    32    1
    16    32    33    1
    17     2     1    1
    18     2     3    1
    19     3     4    1
    20     4     5    1
    21     5     6    1
    22     6     7   ar
    23     7     8   ar
    24     8     9   ar
    25     9    10   ar
    26    10    11   ar
    27    14    15    1
    28    15    16    1
    29    16    17    1
    30    17    18    1
    31    18    13    1
    32    33    24    1
    33    11     2    1
    34    31    26   ar
    35    11     6   ar
    36    19    21    1
    37    19    22    1
    38    33    34    1
@<TRIPOS>MOLECULE
*****
 34 38 0 0 0
SMALL
GASTEIGER

@<TRIPOS>ATOM
      1 N          -7.6210  -18.7945   21.8273 N.3     1  UNL1       -0.2644
      2 C          -6.5062  -19.5321   21.1466 C.3     1  UNL1        0.0981
      3 C          -6.8156  -20.5423   20.0820 C.3     1  UNL1        0.0224
      4 C          -5.7008  -21.2800   19.4013 C.3     1  UNL1        0.0065
      5 C          -4.2767  -21.0073   19.7853 C.3     1  UNL1        0.0277
      6 C          -3.9674  -19.9970   20.8500 C.ar    1  UNL1       -0.0073
      7 C          -2.5432  -19.7243   21.2340 C.ar    1  UNL1       -0.0015
      8 C          -2.2338  -18.7140   22.2987 C.ar    1  UNL1        0.0203
      9 C          -3.3486  -17.9764   22.9794 C.ar    1  UNL1        0.0985
     10 N          -4.7727  -18.2491   22.5954 N.ar    1  UNL1       -0.2471
     11 C          -5.0821  -19.2594   21.5306 C.ar    1  UNL1        0.0695
     12 C          -8.7456  -19.5561   22.4636 C.3     1  UNL1        0.0946
     13 C         -10.8801  -18.7967   23.7353 C.2     1  UNL1       -0.0354
     14 C         -10.1360  -18.9934   22.4478 C.2     1  UNL1       -0.0349
     15 C         -10.7822  -18.6274   21.1446 C.3     1  UNL1        0.0228
     16 C         -12.1725  -18.0647   21.1288 C.3     1  UNL1        0.0047
     17 C         -12.9167  -17.8679   22.4162 C.3     1  UNL1        0.0047
     18 C         -12.2705  -18.2339   23.7195 C.3     1  UNL1        0.0228
     19 N         -10.1146  -20.6036   25.4380 N.3     1  UNL1       -0.3177
     20 C         -10.2339  -19.1626   25.0385 C.3     1  UNL1        0.0873
     21 H          -9.6534  -20.6677   26.3455 H       1  UNL1        0.1191
     22 H          -9.5646  -21.1053   24.7408 H       1  UNL1        0.1191
     23 C          -7.6110  -17.2952   21.8716 C.3     1  UNL1        0.0888
     24 C          -7.2350  -16.5848   23.1381 C.3     1  UNL1        0.0748
     25 C          -8.2116  -16.5096   24.2742 C.3     1  UNL1        0.0432
     26 C          -7.8356  -15.7992   25.5407 C.ar    1  UNL1       -0.0234
     27 C          -8.8121  -15.7241   26.6768 C.ar    1  UNL1       -0.0045
     28 C          -8.4361  -15.0137   27.9432 C.ar    1  UNL1       -0.0003
     29 C          -7.0835  -14.3784   28.0736 C.ar    1  UNL1       -0.0003
     30 C          -6.1070  -14.4535   26.9375 C.ar    1  UNL1       -0.0032
     31 C          -6.4830  -15.1639   25.6711 C.ar    1  UNL1       -0.0103
     32 C          -5.5065  -15.2391   24.5349 C.3     1  UNL1        0.0953
     33 N          -5.8825  -15.9495   23.2685 N.3     1  UNL1       -0.2934
     34 H          -5.1948  -16.6902   23.1311 H       1  UNL1        0.1236
@<TRIPOS>BOND
     1    19    20    1
     2    20    13    1
     3    13    14    2
     4    14    12    1
     5    12     1    1
     6     1    23    1
     7    24    23    1
     8    24    25    1
     9    25    26    1
    10    26    27   ar
    11    27    28   ar
    12    28    29   ar
    13    29    30   ar
    14    30    31   ar
    15    31    32    1
    16    32    33    1
    17     2     1    1
    18     2     3    1
    19     3     4    1
    20     4     5    1
    21     5     6    1
    22     6     7   ar
    23     7     8   ar
    24     8     9   ar
    25     9    10   ar
    26    10    11   ar
    27    14    15    1
    28    15    16    1
    29    16    17    1
    30    17    18    1
    31    18    13    1
    32    33    24    1
    33    11     2    1
    34    31    26   ar
    35    11     6   ar
    36    19    21    1
    37    19    22    1
    38    33    34    1
@<TRIPOS>MOLECULE
*****
 34 38 0 0 0
SMALL
GASTEIGER

@<TRIPOS>ATOM
      1 N          -8.7386  -19.0597   22.5545 N.3     1  UNL1       -0.2644
      2 C          -8.4671  -17.6309   22.9219 C.3     1  UNL1        0.0981
      3 C          -8.1190  -16.6354   21.8552 C.3     1  UNL1        0.0224
      4 C          -7.8474  -15.2067   22.2226 C.3     1  UNL1        0.0065
      5 C          -7.9240  -14.7734   23.6566 C.3     1  UNL1        0.0277
      6 C          -8.2720  -15.7689   24.7232 C.ar    1  UNL1       -0.0073
      7 C          -8.3486  -15.3357   26.1573 C.ar    1  UNL1       -0.0015
      8 C          -8.6967  -16.3312   27.2239 C.ar    1  UNL1        0.0203
      9 C          -8.9682  -17.7599   26.8566 C.ar    1  UNL1        0.0985
     10 N          -8.8917  -18.1932   25.4226 N.ar    1  UNL1       -0.2471
     11 C          -8.5436  -17.1977   24.3559 C.ar    1  UNL1        0.0695
     12 C         -10.1025  -19.4660   22.0807 C.3     1  UNL1        0.0946
     13 C         -12.1717  -17.8970   21.9962 C.2     1  UNL1       -0.0354
     14 C         -11.3251  -18.8920   22.7334 C.2     1  UNL1       -0.0349
     15 C         -11.7010  -19.3130   24.1231 C.3     1  UNL1        0.0228
     16 C         -12.9236  -18.7390   24.7758 C.3     1  UNL1        0.0047
     17 C         -13.7701  -17.7440   24.0387 C.3     1  UNL1        0.0047
     18 C         -13.3942  -17.3230   22.6489 C.3     1  UNL1        0.0228
     19 N         -12.4481  -16.2776   19.9835 N.3     1  UNL1       -0.3177
     20 C         -11.7957  -17.4760   20.6065 C.3     1  UNL1        0.0873
     21 H         -12.0761  -16.1379   19.0441 H       1  UNL1        0.1191
     22 H         -12.2560  -15.4523   20.5514 H       1  UNL1        0.1191
     23 C          -7.6462  -20.0820   22.6609 C.3     1  UNL1        0.0888
     24 C          -6.3464  -19.8683   21.9434 C.3     1  UNL1        0.0748
     25 C          -5.3494  -18.8819   22.4754 C.3     1  UNL1        0.0432
     26 C          -4.0495  -18.6681   21.7579 C.ar    1  UNL1       -0.0234
     27 C          -3.0526  -17.6817   22.2899 C.ar    1  UNL1       -0.0045
     28 C          -1.7528  -17.4680   21.5724 C.ar    1  UNL1       -0.0003
     29 C          -1.4500  -18.2406   20.3228 C.ar    1  UNL1       -0.0003
     30 C          -2.4470  -19.2270   19.7908 C.ar    1  UNL1       -0.0032
     31 C          -3.7467  -19.4408   20.5083 C.ar    1  UNL1       -0.0103
     32 C          -4.7438  -20.4272   19.9763 C.3     1  UNL1        0.0953
     33 N          -6.0436  -20.6409   20.6938 N.3     1  UNL1       -0.2934
     34 H          -6.0839  -21.6295   20.9419 H       1  UNL1        0.1236
@<TRIPOS>BOND
     1    19    20    1
     2    20    13    1
     3    13    14    2
     4    14    12    1
     5    12     1    1
     6     1    23    1
     7    24    23    1
     8    24    25    1
     9    25    26    1
    10    26    27   ar
    11    27    28   ar
    12    28    29   ar
    13    29    30   ar
    14    30    31   ar
    15    31    32    1
    16    32    33    1
    17     2     1    1
    18     2     3    1
    19     3     4    1
    20     4     5    1
    21     5     6    1
    22     6     7   ar
    23     7     8   ar
    24     8     9   ar
    25     9    10   ar
    26    10    11   ar
    27    14    15    1
    28    15    16    1
    29    16    17    1
    30    17    18    1
    31    18    13    1
    32    33    24    1
    33    11     2    1
    34    31    26   ar
    35    11     6   ar
    36    19    21    1
    37    19    22    1
    38    33    34    1
@<TRIPOS>MOLECULE
*****
 34 38 0 0 0
SMALL
GASTEIGER

@<TRIPOS>ATOM
      1 N          -8.0735  -18.9636   22.1115 N.3     1  UNL1       -0.2644
      2 C          -8.4547  -18.4701   23.4758 C.3     1  UNL1        0.0981
      3 C          -9.5456  -19.1558   24.2436 C.3     1  UNL1        0.0224
      4 C          -9.9268  -18.6623   25.6079 C.3     1  UNL1        0.0065
      5 C          -9.2171  -17.4831   26.2043 C.3     1  UNL1        0.0277
      6 C          -8.1262  -16.7974   25.4364 C.ar    1  UNL1       -0.0073
      7 C          -7.4164  -15.6181   26.0327 C.ar    1  UNL1       -0.0015
      8 C          -6.3255  -14.9324   25.2649 C.ar    1  UNL1        0.0203
      9 C          -5.9443  -15.4258   23.9006 C.ar    1  UNL1        0.0985
     10 N          -6.6540  -16.6051   23.3043 N.ar    1  UNL1       -0.2471
     11 C          -7.7450  -17.2909   24.0721 C.ar    1  UNL1        0.0695
     12 C          -8.8422  -18.5072   20.9070 C.3     1  UNL1        0.0946
     13 C         -10.3247  -16.4018   21.2525 C.2     1  UNL1       -0.0354
     14 C         -10.1971  -17.8856   21.0733 C.2     1  UNL1       -0.0349
     15 C         -11.4245  -18.7477   21.0602 C.3     1  UNL1        0.0228
     16 C         -12.7795  -18.1261   21.2264 C.3     1  UNL1        0.0047
     17 C         -12.9071  -16.6423   21.4057 C.3     1  UNL1        0.0047
     18 C         -11.6797  -15.7801   21.4188 C.3     1  UNL1        0.0228
     19 N          -9.0616  -14.2733   20.4624 N.3     1  UNL1       -0.3177
     20 C          -9.0973  -15.5397   21.2656 C.3     1  UNL1        0.0873
     21 H          -8.1581  -13.8168   20.5873 H       1  UNL1        0.1191
     22 H          -9.8043  -13.6495   20.7780 H       1  UNL1        0.1191
     23 C          -6.9236  -19.9134   21.9518 C.3     1  UNL1        0.0888
     24 C          -5.5339  -19.3830   21.7583 C.3     1  UNL1        0.0748
     25 C          -4.9731  -19.2360   20.3749 C.3     1  UNL1        0.0432
     26 C          -3.5834  -18.7055   20.1814 C.ar    1  UNL1       -0.0234
     27 C          -3.0226  -18.5586   18.7980 C.ar    1  UNL1       -0.0045
     28 C          -1.6329  -18.0281   18.6046 C.ar    1  UNL1       -0.0003
     29 C          -0.8041  -17.6446   19.7945 C.ar    1  UNL1       -0.0003
     30 C          -1.3649  -17.7916   21.1779 C.ar    1  UNL1       -0.0032
     31 C          -2.7546  -18.3220   21.3713 C.ar    1  UNL1       -0.0103
     32 C          -3.3155  -18.4690   22.7548 C.3     1  UNL1        0.0953
     33 N          -4.7051  -18.9995   22.9482 N.3     1  UNL1       -0.2934
     34 H          -5.2268  -18.2819   23.4515 H       1  UNL1        0.1236
@<TRIPOS>BOND
     1    19    20    1
     2    20    13    1
     3    13    14    2
     4    14    12    1
     5    12     1    1
     6     1    23    1
     7    24    23    1
     8    24    25    1
     9    25    26    1
    10    26    27   ar
    11    27    28   ar
    12    28    29   ar
    13    29    30   ar
    14    30    31   ar
    15    31    32    1
    16    32    33    1
    17     2     1    1
    18     2     3    1
    19     3     4    1
    20     4     5    1
    21     5     6    1
    22     6     7   ar
    23     7     8   ar
    24     8     9   ar
    25     9    10   ar
    26    10    11   ar
    27    14    15    1
    28    15    16    1
    29    16    17    1
    30    17    18    1
    31    18    13    1
    32    33    24    1
    33    11     2    1
    34    31    26   ar
    35    11     6   ar
    36    19    21    1
    37    19    22    1
    38    33    34    1
@<TRIPOS>MOLECULE
*****
 34 38 0 0 0
SMALL
GASTEIGER

@<TRIPOS>ATOM
      1 N          -5.7903  -18.2251   22.2607 N.3     1  UNL1       -0.2644
      2 C          -4.8140  -18.8786   21.3280 C.3     1  UNL1        0.0981
      3 C          -5.1685  -20.1726   20.6574 C.3     1  UNL1        0.0224
      4 C          -4.1922  -20.8261   19.7248 C.3     1  UNL1        0.0065
      5 C          -2.8614  -20.1856   19.4628 C.3     1  UNL1        0.0277
      6 C          -2.5069  -18.8916   20.1334 C.ar    1  UNL1       -0.0073
      7 C          -1.1761  -18.2510   19.8714 C.ar    1  UNL1       -0.0015
      8 C          -0.8216  -16.9570   20.5420 C.ar    1  UNL1        0.0203
      9 C          -1.7979  -16.3035   21.4746 C.ar    1  UNL1        0.0985
     10 N          -3.1287  -16.9440   21.7367 N.ar    1  UNL1       -0.2471
     11 C          -3.4832  -18.2381   21.0660 C.ar    1  UNL1        0.0695
     12 C          -5.6611  -16.7650   22.5791 C.3     1  UNL1        0.0946
     13 C          -7.3976  -15.6109   24.1291 C.2     1  UNL1       -0.0354
     14 C          -6.0571  -16.2547   23.9329 C.2     1  UNL1       -0.0349
     15 C          -5.1126  -16.3883   25.0905 C.3     1  UNL1        0.0228
     16 C          -5.5085  -15.8780   26.4443 C.3     1  UNL1        0.0047
     17 C          -6.8490  -15.2342   26.6405 C.3     1  UNL1        0.0047
     18 C          -7.7936  -15.1006   25.4829 C.3     1  UNL1        0.0228
     19 N          -7.9082  -14.7584   21.7286 N.3     1  UNL1       -0.3177
     20 C          -8.3421  -15.4773   22.9715 C.3     1  UNL1        0.0873
     21 H          -8.6697  -14.7627   21.0500 H       1  UNL1        0.1191
     22 H          -7.0952  -15.2283   21.3303 H       1  UNL1        0.1191
     23 C          -6.8958  -19.0317   22.8749 C.3     1  UNL1        0.0888
     24 C          -8.3245  -18.7295   22.5319 C.3     1  UNL1        0.0748
     25 C          -9.3759  -18.7642   23.6010 C.3     1  UNL1        0.0432
     26 C         -10.8046  -18.4620   23.2580 C.ar    1  UNL1       -0.0234
     27 C         -11.8561  -18.4967   24.3272 C.ar    1  UNL1       -0.0045
     28 C         -13.2847  -18.1945   23.9842 C.ar    1  UNL1       -0.0003
     29 C         -13.6619  -17.8577   22.5720 C.ar    1  UNL1       -0.0003
     30 C         -12.6104  -17.8231   21.5028 C.ar    1  UNL1       -0.0032
     31 C         -11.1818  -18.1252   21.8458 C.ar    1  UNL1       -0.0103
     32 C         -10.1302  -18.0906   20.7766 C.3     1  UNL1        0.0953
     33 N          -8.7016  -18.3927   21.1196 N.3     1  UNL1       -0.2934
     34 H          -8.1558  -17.5721   20.8568 H       1  UNL1        0.1236
@<TRIPOS>BOND
     1    19    20    1
     2    20    13    1
     3    13    14    2
     4    14    12    1
     5    12     1    1
     6     1    23    1
     7    24    23    1
     8    24    25    1
     9    25    26    1
    10    26    27   ar
    11    27    28   ar
    12    28    29   ar
    13    29    30   ar
    14    30    31   ar
    15    31    32    1
    16    32    33    1
    17     2     1    1
    18     2     3    1
    19     3     4    1
    20     4     5    1
    21     5     6    1
    22     6     7   ar
    23     7     8   ar
    24     8     9   ar
    25     9    10   ar
    26    10    11   ar
    27    14    15    1
    28    15    16    1
    29    16    17    1
    30    17    18    1
    31    18    13    1
    32    33    24    1
    33    11     2    1
    34    31    26   ar
    35    11     6   ar
    36    19    21    1
    37    19    22    1
    38    33    34    1
