@<TRIPOS>MOLECULE
*****
 25 27 0 0 0
SMALL
GASTEIGER

@<TRIPOS>ATOM
      1 N           0.0645  -17.4332   20.6739 N.pl3   1  UNL1       -0.3375
      2 C          -1.3350  -17.9301   20.8851 C.ar    1  UNL1        0.1568
      3 N          -1.9585  -19.1197   20.2172 N.ar    1  UNL1       -0.2214
      4 C          -3.3655  -19.2494   20.7206 C.ar    1  UNL1        0.1227
      5 C          -4.4544  -20.2344   20.4139 C.ar    1  UNL1        0.1518
      6 O          -4.2083  -21.3438   19.4348 O.3     1  UNL1       -0.5040
      7 C          -5.7895  -20.1100   21.0864 C.ar    1  UNL1        0.0427
      8 C          -6.0356  -19.0006   22.0656 C.ar    1  UNL1        0.0570
      9 C          -4.9466  -18.0156   22.3722 C.ar    1  UNL1        0.0128
     10 C          -3.6116  -18.1400   21.6998 C.ar    1  UNL1        0.0528
     11 S          -2.3567  -17.3247   21.8014 S.2     1  UNL1       -0.0519
     12 H           0.6636  -17.9008   20.0481 H       1  UNL1        0.1442
     13 H           0.3839  -16.6396   21.1612 H       1  UNL1        0.1442
     14 H          -3.3744  -21.4215   19.0147 H       1  UNL1        0.2923
     15 C          -7.3706  -18.8763   22.7381 C.2     1  UNL1        0.2462
     16 O          -7.8363  -17.5415   23.2395 O.2     1  UNL1       -0.2701
     17 N          -8.2399  -20.0866   22.9091 N.am    1  UNL1       -0.2969
     18 H          -7.9342  -20.9627   22.5800 H       1  UNL1        0.1501
     19 C          -9.5749  -19.9623   23.5816 C.3     1  UNL1        0.1166
     20 C         -10.6790  -19.1919   22.9202 C.ar    1  UNL1       -0.0026
     21 C         -10.7138  -19.0642   21.4261 C.ar    1  UNL1       -0.0026
     22 C         -11.8179  -18.2938   20.7647 C.ar    1  UNL1       -0.0003
     23 C         -12.8873  -17.6512   21.5974 C.ar    1  UNL1       -0.0000
     24 C         -12.8526  -17.7790   23.0915 C.ar    1  UNL1       -0.0003
     25 C         -11.7485  -18.5493   23.7530 C.ar    1  UNL1       -0.0026
@<TRIPOS>BOND
     1     1     2    1
     2     2     3   ar
     3     3     4   ar
     4     4     5   ar
     5     5     6    1
     6     5     7   ar
     7     7     8   ar
     8     8    15    1
     9    15    16    2
    10    15    17   am
    11    17    19    1
    12    19    20    1
    13    20    21   ar
    14    21    22   ar
    15    22    23   ar
    16    23    24   ar
    17    24    25   ar
    18     8     9   ar
    19     9    10   ar
    20    10    11   ar
    21    11     2   ar
    22    10     4   ar
    23    25    20   ar
    24     1    12    1
    25     1    13    1
    26     6    14    1
    27    17    18    1
@<TRIPOS>MOLECULE
*****
 25 27 0 0 0
SMALL
GASTEIGER

@<TRIPOS>ATOM
      1 N         -12.7691    0.5654   18.3102 N.pl3   1  UNL1       -0.3375
      2 C         -12.6948   -0.9283   18.4259 C.ar    1  UNL1        0.1568
      3 N         -11.4766   -1.7251   18.7878 N.ar    1  UNL1       -0.2214
      4 C         -11.8545   -3.1767   18.7855 C.ar    1  UNL1        0.1227
      5 C         -11.0642   -4.4200   19.0674 C.ar    1  UNL1        0.1518
      6 O          -9.6124   -4.3196   19.4308 O.3     1  UNL1       -0.5040
      7 C         -11.7258   -5.7638   18.9859 C.ar    1  UNL1        0.0427
      8 C         -13.1777   -5.8642   18.6225 C.ar    1  UNL1        0.0570
      9 C         -13.9679   -4.6208   18.3406 C.ar    1  UNL1        0.0128
     10 C         -13.3064   -3.2771   18.4222 C.ar    1  UNL1        0.0528
     11 S         -13.8257   -1.8875   18.1999 S.2     1  UNL1       -0.0519
     12 H         -11.9683    1.1126   18.4788 H       1  UNL1        0.1442
     13 H         -13.6188    0.9985   18.0657 H       1  UNL1        0.1442
     14 H          -9.1991   -3.4802   19.4817 H       1  UNL1        0.2923
     15 C         -13.8392   -7.2079   18.5410 C.2     1  UNL1        0.2462
     16 O         -13.2833   -8.2637   17.6320 O.2     1  UNL1       -0.2701
     17 N         -15.0567   -7.4959   19.3684 N.am    1  UNL1       -0.2969
     18 H         -15.4216   -6.8029   19.9650 H       1  UNL1        0.1501
     19 C         -15.7184   -8.8396   19.2869 C.3     1  UNL1        0.1166
     20 C         -17.2142   -8.9430   19.3296 C.ar    1  UNL1       -0.0026
     21 C         -17.9344   -9.8122   18.3419 C.ar    1  UNL1       -0.0026
     22 C         -19.4303   -9.9155   18.3846 C.ar    1  UNL1       -0.0003
     23 C         -20.2059   -9.1496   19.4150 C.ar    1  UNL1       -0.0000
     24 C         -19.4856   -8.2803   20.4028 C.ar    1  UNL1       -0.0003
     25 C         -17.9898   -8.1770   20.3601 C.ar    1  UNL1       -0.0026
@<TRIPOS>BOND
     1     1     2    1
     2     2     3   ar
     3     3     4   ar
     4     4     5   ar
     5     5     6    1
     6     5     7   ar
     7     7     8   ar
     8     8    15    1
     9    15    16    2
    10    15    17   am
    11    17    19    1
    12    19    20    1
    13    20    21   ar
    14    21    22   ar
    15    22    23   ar
    16    23    24   ar
    17    24    25   ar
    18     8     9   ar
    19     9    10   ar
    20    10    11   ar
    21    11     2   ar
    22    10     4   ar
    23    25    20   ar
    24     1    12    1
    25     1    13    1
    26     6    14    1
    27    17    18    1
@<TRIPOS>MOLECULE
*****
 25 27 0 0 0
SMALL
GASTEIGER

@<TRIPOS>ATOM
      1 N         -10.3258   -0.8681   17.8117 N.pl3   1  UNL1       -0.3375
      2 C         -11.0440   -2.1473   18.1243 C.ar    1  UNL1        0.1568
      3 N         -10.4022   -3.4777   18.3854 N.ar    1  UNL1       -0.2214
      4 C         -11.4916   -4.4734   18.6532 C.ar    1  UNL1        0.1227
      5 C         -11.4560   -5.9388   18.9717 C.ar    1  UNL1        0.1518
      6 O         -10.1408   -6.6538   19.0672 O.3     1  UNL1       -0.5040
      7 C         -12.7356   -6.6892   19.1947 C.ar    1  UNL1        0.0427
      8 C         -14.0507   -5.9742   19.0992 C.ar    1  UNL1        0.0570
      9 C         -14.0863   -4.5087   18.7806 C.ar    1  UNL1        0.0128
     10 C         -12.8068   -3.7584   18.5577 C.ar    1  UNL1        0.0528
     11 S         -12.5301   -2.3208   18.2308 S.2     1  UNL1       -0.0519
     12 H          -9.3426   -0.8547   17.7634 H       1  UNL1        0.1442
     13 H         -10.8377   -0.0419   17.6548 H       1  UNL1        0.1442
     14 H          -9.3415   -6.1850   18.9279 H       1  UNL1        0.2923
     15 C         -15.3303   -6.7245   19.3221 C.2     1  UNL1        0.2462
     16 O         -16.5863   -5.9799   19.6657 O.2     1  UNL1       -0.2701
     17 N         -15.3538   -8.2194   19.2016 N.am    1  UNL1       -0.2969
     18 H         -14.5294   -8.7081   18.9761 H       1  UNL1        0.1501
     19 C         -16.6334   -8.9698   19.4246 C.3     1  UNL1        0.1166
     20 C         -17.5909   -9.1739   18.2882 C.ar    1  UNL1       -0.0026
     21 C         -18.4729  -10.3869   18.2592 C.ar    1  UNL1       -0.0026
     22 C         -19.4305  -10.5910   17.1228 C.ar    1  UNL1       -0.0003
     23 C         -19.5061   -9.5821   16.0154 C.ar    1  UNL1       -0.0000
     24 C         -18.6241   -8.3691   16.0443 C.ar    1  UNL1       -0.0003
     25 C         -17.6665   -8.1650   17.1807 C.ar    1  UNL1       -0.0026
@<TRIPOS>BOND
     1     1     2    1
     2     2     3   ar
     3     3     4   ar
     4     4     5   ar
     5     5     6    1
     6     5     7   ar
     7     7     8   ar
     8     8    15    1
     9    15    16    2
    10    15    17   am
    11    17    19    1
    12    19    20    1
    13    20    21   ar
    14    21    22   ar
    15    22    23   ar
    16    23    24   ar
    17    24    25   ar
    18     8     9   ar
    19     9    10   ar
    20    10    11   ar
    21    11     2   ar
    22    10     4   ar
    23    25    20   ar
    24     1    12    1
    25     1    13    1
    26     6    14    1
    27    17    18    1
@<TRIPOS>MOLECULE
*****
 25 27 0 0 0
SMALL
GASTEIGER

@<TRIPOS>ATOM
      1 N          -0.0608    0.3148   20.4606 N.pl3   1  UNL1       -0.3375
      2 C           1.2676   -0.2918   20.1181 C.ar    1  UNL1        0.1568
      3 N           1.8320   -0.4571   18.7382 N.ar    1  UNL1       -0.2214
      4 C           3.1781   -1.1070   18.8627 C.ar    1  UNL1        0.1227
      5 C           4.1947   -1.5142   17.8377 C.ar    1  UNL1        0.1518
      6 O           3.9271   -1.2778   16.3808 O.3     1  UNL1       -0.5040
      7 C           5.4791   -2.1576   18.2695 C.ar    1  UNL1        0.0427
      8 C           5.7468   -2.3940   19.7264 C.ar    1  UNL1        0.0570
      9 C           4.7301   -1.9868   20.7514 C.ar    1  UNL1        0.0128
     10 C           3.4458   -1.3433   20.3196 C.ar    1  UNL1        0.0528
     11 S           2.2650   -0.8395   21.0954 S.2     1  UNL1       -0.0519
     12 H          -0.6489    0.6482   19.7449 H       1  UNL1        0.1442
     13 H          -0.3446    0.3795   21.4011 H       1  UNL1        0.1442
     14 H           3.1248   -0.8759   16.1110 H       1  UNL1        0.2923
     15 C           7.0310   -3.0374   20.1583 C.2     1  UNL1        0.2462
     16 O           8.2895   -2.7977   19.3780 O.2     1  UNL1       -0.2701
     17 N           7.0569   -3.9205   21.3704 N.am    1  UNL1       -0.2969
     18 H           6.2309   -4.0778   21.8825 H       1  UNL1        0.1501
     19 C           8.3412   -4.5640   21.8024 C.3     1  UNL1        0.1166
     20 C           8.3538   -5.5008   22.9737 C.ar    1  UNL1       -0.0026
     21 C           7.6050   -5.1478   24.2246 C.ar    1  UNL1       -0.0026
     22 C           7.6176   -6.0847   25.3960 C.ar    1  UNL1       -0.0003
     23 C           8.3791   -7.3746   25.3165 C.ar    1  UNL1       -0.0000
     24 C           9.1280   -7.7276   24.0657 C.ar    1  UNL1       -0.0003
     25 C           9.1154   -6.7908   22.8943 C.ar    1  UNL1       -0.0026
@<TRIPOS>BOND
     1     1     2    1
     2     2     3   ar
     3     3     4   ar
     4     4     5   ar
     5     5     6    1
     6     5     7   ar
     7     7     8   ar
     8     8    15    1
     9    15    16    2
    10    15    17   am
    11    17    19    1
    12    19    20    1
    13    20    21   ar
    14    21    22   ar
    15    22    23   ar
    16    23    24   ar
    17    24    25   ar
    18     8     9   ar
    19     9    10   ar
    20    10    11   ar
    21    11     2   ar
    22    10     4   ar
    23    25    20   ar
    24     1    12    1
    25     1    13    1
    26     6    14    1
    27    17    18    1
@<TRIPOS>MOLECULE
*****
 25 27 0 0 0
SMALL
GASTEIGER

@<TRIPOS>ATOM
      1 N         -10.3716   -1.3302   17.9049 N.pl3   1  UNL1       -0.3375
      2 C         -10.9295   -2.7169   18.0310 C.ar    1  UNL1        0.1568
      3 N         -10.1840   -3.9270   18.5102 N.ar    1  UNL1       -0.2214
      4 C         -11.1247   -5.0949   18.4754 C.ar    1  UNL1        0.1227
      5 C         -10.9444   -6.5399   18.8350 C.ar    1  UNL1        0.1518
      6 O          -9.6174   -7.0283   19.3357 O.3     1  UNL1       -0.5040
      7 C         -12.0910   -7.4967   18.6938 C.ar    1  UNL1        0.0427
      8 C         -13.4180   -7.0083   18.1931 C.ar    1  UNL1        0.0570
      9 C         -13.5982   -5.5632   17.8335 C.ar    1  UNL1        0.0128
     10 C         -12.4516   -4.6065   17.9746 C.ar    1  UNL1        0.0528
     11 S         -12.3310   -3.1368   17.7000 S.2     1  UNL1       -0.0519
     12 H          -9.4343   -1.1527   18.1481 H       1  UNL1        0.1442
     13 H         -10.9427   -0.5976   17.5789 H       1  UNL1        0.1442
     14 H          -8.9012   -6.4307   19.4239 H       1  UNL1        0.2923
     15 C         -14.5646   -7.9650   18.0519 C.2     1  UNL1        0.2462
     16 O         -14.4699   -9.3413   18.6407 O.2     1  UNL1       -0.2701
     17 N         -15.8059   -7.5453   17.3219 N.am    1  UNL1       -0.2969
     18 H         -15.8680   -6.6419   16.9354 H       1  UNL1        0.1501
     19 C         -16.9527   -8.5020   17.1807 C.3     1  UNL1        0.1166
     20 C         -17.9994   -8.5814   18.2521 C.ar    1  UNL1       -0.0026
     21 C         -17.8243   -7.8157   19.5300 C.ar    1  UNL1       -0.0026
     22 C         -18.8711   -7.8951   20.6014 C.ar    1  UNL1       -0.0003
     23 C         -20.0929   -8.7403   20.3950 C.ar    1  UNL1       -0.0000
     24 C         -20.2681   -9.5061   19.1171 C.ar    1  UNL1       -0.0003
     25 C         -19.2213   -9.4266   18.0457 C.ar    1  UNL1       -0.0026
@<TRIPOS>BOND
     1     1     2    1
     2     2     3   ar
     3     3     4   ar
     4     4     5   ar
     5     5     6    1
     6     5     7   ar
     7     7     8   ar
     8     8    15    1
     9    15    16    2
    10    15    17   am
    11    17    19    1
    12    19    20    1
    13    20    21   ar
    14    21    22   ar
    15    22    23   ar
    16    23    24   ar
    17    24    25   ar
    18     8     9   ar
    19     9    10   ar
    20    10    11   ar
    21    11     2   ar
    22    10     4   ar
    23    25    20   ar
    24     1    12    1
    25     1    13    1
    26     6    14    1
    27    17    18    1
@<TRIPOS>MOLECULE
*****
 25 27 0 0 0
SMALL
GASTEIGER

@<TRIPOS>ATOM
      1 N           6.7741   -4.5863   32.2031 N.pl3   1  UNL1       -0.3375
      2 C           6.7960   -4.5952   30.7033 C.ar    1  UNL1        0.1568
      3 N           6.8898   -5.8111   29.8300 N.ar    1  UNL1       -0.2214
      4 C           6.8797   -5.3571   28.4004 C.ar    1  UNL1        0.1227
      5 C           6.9486   -6.1130   27.1067 C.ar    1  UNL1        0.1518
      6 O           7.0486   -7.6097   27.1170 O.3     1  UNL1       -0.5040
      7 C           6.9176   -5.3724   25.8026 C.ar    1  UNL1        0.0427
      8 C           6.8177   -3.8758   25.7924 C.ar    1  UNL1        0.0570
      9 C           6.7487   -3.1198   27.0862 C.ar    1  UNL1        0.0128
     10 C           6.7797   -3.8604   28.3901 C.ar    1  UNL1        0.0528
     11 S           6.7280   -3.3896   29.8134 S.2     1  UNL1       -0.0519
     12 H           6.8237   -5.4341   32.7011 H       1  UNL1        0.1442
     13 H           6.7101   -3.7327   32.6895 H       1  UNL1        0.1442
     14 H           7.0680   -8.0723   27.9316 H       1  UNL1        0.2923
     15 C           6.7867   -3.1351   24.4884 C.2     1  UNL1        0.2462
     16 O           7.9940   -3.1327   23.5983 O.2     1  UNL1       -0.2701
     17 N           5.5483   -2.3968   24.0745 N.am    1  UNL1       -0.2969
     18 H           4.7559   -2.3984   24.6587 H       1  UNL1        0.1501
     19 C           5.5172   -1.6561   22.7705 C.3     1  UNL1        0.1166
     20 C           4.8667   -2.2775   21.5702 C.ar    1  UNL1       -0.0026
     21 C           5.3821   -3.5770   21.0264 C.ar    1  UNL1       -0.0026
     22 C           4.7315   -4.1984   19.8261 C.ar    1  UNL1       -0.0003
     23 C           3.5656   -3.5204   19.1697 C.ar    1  UNL1       -0.0000
     24 C           3.0502   -2.2209   19.7136 C.ar    1  UNL1       -0.0003
     25 C           3.7007   -1.5995   20.9138 C.ar    1  UNL1       -0.0026
@<TRIPOS>BOND
     1     1     2    1
     2     2     3   ar
     3     3     4   ar
     4     4     5   ar
     5     5     6    1
     6     5     7   ar
     7     7     8   ar
     8     8    15    1
     9    15    16    2
    10    15    17   am
    11    17    19    1
    12    19    20    1
    13    20    21   ar
    14    21    22   ar
    15    22    23   ar
    16    23    24   ar
    17    24    25   ar
    18     8     9   ar
    19     9    10   ar
    20    10    11   ar
    21    11     2   ar
    22    10     4   ar
    23    25    20   ar
    24     1    12    1
    25     1    13    1
    26     6    14    1
    27    17    18    1
@<TRIPOS>MOLECULE
*****
 25 27 0 0 0
SMALL
GASTEIGER

@<TRIPOS>ATOM
      1 N           0.3053    0.5980   27.0569 N.pl3   1  UNL1       -0.3375
      2 C           0.9087    0.7110   28.4255 C.ar    1  UNL1        0.1568
      3 N           2.0356   -0.1200   28.9637 N.ar    1  UNL1       -0.2214
      4 C           2.3145    0.3302   30.3671 C.ar    1  UNL1        0.1227
      5 C           3.3143   -0.1266   31.3877 C.ar    1  UNL1        0.1518
      6 O           4.2688   -1.2358   31.0584 O.3     1  UNL1       -0.5040
      7 C           3.3595    0.5259   32.7377 C.ar    1  UNL1        0.0427
      8 C           2.4049    1.6351   33.0669 C.ar    1  UNL1        0.0570
      9 C           1.4051    2.0919   32.0462 C.ar    1  UNL1        0.0128
     10 C           1.3599    1.4394   30.6963 C.ar    1  UNL1        0.0528
     11 S           0.4911    1.6747   29.4964 S.2     1  UNL1       -0.0519
     12 H           0.6499   -0.0695   26.4206 H       1  UNL1        0.1442
     13 H          -0.4353    1.1914   26.7949 H       1  UNL1        0.1442
     14 H           4.2406   -1.6433   30.2152 H       1  UNL1        0.2923
     15 C           2.4501    2.2876   34.4168 C.2     1  UNL1        0.2462
     16 O           1.5308    3.4311   34.7283 O.2     1  UNL1       -0.2701
     17 N           3.4147    1.7964   35.4552 N.am    1  UNL1       -0.2969
     18 H           4.0181    1.0458   35.2508 H       1  UNL1        0.1501
     19 C           3.4600    2.4489   36.8052 C.3     1  UNL1        0.1166
     20 C           2.4890    2.0353   37.8710 C.ar    1  UNL1       -0.0026
     21 C           2.6095    0.6846   38.5123 C.ar    1  UNL1       -0.0026
     22 C           1.6384    0.2710   39.5781 C.ar    1  UNL1       -0.0003
     23 C           0.5469    1.2081   40.0027 C.ar    1  UNL1       -0.0000
     24 C           0.4263    2.5587   39.3615 C.ar    1  UNL1       -0.0003
     25 C           1.3973    2.9723   38.2956 C.ar    1  UNL1       -0.0026
@<TRIPOS>BOND
     1     1     2    1
     2     2     3   ar
     3     3     4   ar
     4     4     5   ar
     5     5     6    1
     6     5     7   ar
     7     7     8   ar
     8     8    15    1
     9    15    16    2
    10    15    17   am
    11    17    19    1
    12    19    20    1
    13    20    21   ar
    14    21    22   ar
    15    22    23   ar
    16    23    24   ar
    17    24    25   ar
    18     8     9   ar
    19     9    10   ar
    20    10    11   ar
    21    11     2   ar
    22    10     4   ar
    23    25    20   ar
    24     1    12    1
    25     1    13    1
    26     6    14    1
    27    17    18    1
@<TRIPOS>MOLECULE
*****
 25 27 0 0 0
SMALL
GASTEIGER

@<TRIPOS>ATOM
      1 N           7.0912   -5.9469   32.1077 N.pl3   1  UNL1       -0.3375
      2 C           6.9258   -5.2135   30.8097 C.ar    1  UNL1        0.1568
      3 N           6.5360   -3.7734   30.6542 N.ar    1  UNL1       -0.2214
      4 C           6.4905   -3.4612   29.1877 C.ar    1  UNL1        0.1227
      5 C           6.1664   -2.2025   28.4391 C.ar    1  UNL1        0.1518
      6 O           5.8048   -0.9553   29.1899 O.3     1  UNL1       -0.5040
      7 C           6.2040   -2.1909   26.9395 C.ar    1  UNL1        0.0427
      8 C           6.5656   -3.4381   26.1887 C.ar    1  UNL1        0.0570
      9 C           6.8896   -4.6969   26.9374 C.ar    1  UNL1        0.0128
     10 C           6.8520   -4.7084   28.4369 C.ar    1  UNL1        0.0528
     11 S           7.1211   -5.7914   29.4393 S.2     1  UNL1       -0.0519
     12 H           6.9399   -5.4787   32.9604 H       1  UNL1        0.1442
     13 H           7.3510   -6.8965   32.1069 H       1  UNL1        0.1442
     14 H           5.7814   -0.9625   30.1266 H       1  UNL1        0.2923
     15 C           6.6031   -3.4266   24.6893 C.2     1  UNL1        0.2462
     16 O           7.9151   -3.3028   23.9728 O.2     1  UNL1       -0.2701
     17 N           5.3287   -3.5388   23.9063 N.am    1  UNL1       -0.2969
     18 H           4.4676   -3.6200   24.3765 H       1  UNL1        0.1501
     19 C           5.3662   -3.5273   22.4067 C.3     1  UNL1        0.1166
     20 C           4.3703   -2.7106   21.6378 C.ar    1  UNL1       -0.0026
     21 C           3.5875   -1.6350   22.3309 C.ar    1  UNL1       -0.0026
     22 C           2.5916   -0.8184   21.5620 C.ar    1  UNL1       -0.0003
     23 C           2.3784   -1.0774   20.1000 C.ar    1  UNL1       -0.0000
     24 C           3.1611   -2.1530   19.4069 C.ar    1  UNL1       -0.0003
     25 C           4.1571   -2.9696   20.1758 C.ar    1  UNL1       -0.0026
@<TRIPOS>BOND
     1     1     2    1
     2     2     3   ar
     3     3     4   ar
     4     4     5   ar
     5     5     6    1
     6     5     7   ar
     7     7     8   ar
     8     8    15    1
     9    15    16    2
    10    15    17   am
    11    17    19    1
    12    19    20    1
    13    20    21   ar
    14    21    22   ar
    15    22    23   ar
    16    23    24   ar
    17    24    25   ar
    18     8     9   ar
    19     9    10   ar
    20    10    11   ar
    21    11     2   ar
    22    10     4   ar
    23    25    20   ar
    24     1    12    1
    25     1    13    1
    26     6    14    1
    27    17    18    1
@<TRIPOS>MOLECULE
*****
 25 27 0 0 0
SMALL
GASTEIGER

@<TRIPOS>ATOM
      1 N           1.4124    3.4724   33.0215 N.pl3   1  UNL1       -0.3375
      2 C           1.0071    2.9760   31.6652 C.ar    1  UNL1        0.1568
      3 N           0.3905    1.6426   31.3623 N.ar    1  UNL1       -0.2214
      4 C           0.1495    1.5684   29.8837 C.ar    1  UNL1        0.1227
      5 C          -0.4353    0.4947   29.0147 C.ar    1  UNL1        0.1518
      6 O          -0.9029   -0.7929   29.6256 O.3     1  UNL1       -0.5040
      7 C          -0.5525    0.7087   27.5346 C.ar    1  UNL1        0.0427
      8 C          -0.0848    1.9963   26.9236 C.ar    1  UNL1        0.0570
      9 C           0.5000    3.0700   27.7927 C.ar    1  UNL1        0.0128
     10 C           0.6172    2.8560   29.2727 C.ar    1  UNL1        0.0528
     11 S           1.1471    3.7260   30.3737 S.2     1  UNL1       -0.0519
     12 H           1.2796    2.9034   33.8138 H       1  UNL1        0.1442
     13 H           1.8112    4.3672   33.1192 H       1  UNL1        0.1442
     14 H          -0.8297   -0.9266   30.5502 H       1  UNL1        0.2923
     15 C          -0.2020    2.2103   25.4436 C.2     1  UNL1        0.2462
     16 O          -1.4304    2.8559   24.8740 O.2     1  UNL1       -0.2701
     17 N           0.9091    1.7787   24.5331 N.am    1  UNL1       -0.2969
     18 H           1.7153    1.3550   24.9070 H       1  UNL1        0.1501
     19 C           0.7920    1.9927   23.0530 C.3     1  UNL1        0.1166
     20 C           1.2518    0.9273   22.1025 C.ar    1  UNL1       -0.0026
     21 C           0.4850    0.6670   20.8398 C.ar    1  UNL1       -0.0026
     22 C           0.9449   -0.3984   19.8893 C.ar    1  UNL1       -0.0003
     23 C           2.1714   -1.2035   20.2015 C.ar    1  UNL1       -0.0000
     24 C           2.9381   -0.9432   21.4641 C.ar    1  UNL1       -0.0003
     25 C           2.4783    0.1222   22.4147 C.ar    1  UNL1       -0.0026
@<TRIPOS>BOND
     1     1     2    1
     2     2     3   ar
     3     3     4   ar
     4     4     5   ar
     5     5     6    1
     6     5     7   ar
     7     7     8   ar
     8     8    15    1
     9    15    16    2
    10    15    17   am
    11    17    19    1
    12    19    20    1
    13    20    21   ar
    14    21    22   ar
    15    22    23   ar
    16    23    24   ar
    17    24    25   ar
    18     8     9   ar
    19     9    10   ar
    20    10    11   ar
    21    11     2   ar
    22    10     4   ar
    23    25    20   ar
    24     1    12    1
    25     1    13    1
    26     6    14    1
    27    17    18    1
