@<TRIPOS>MOLECULE
*****
 20 22 0 0 0
SMALL
GASTEIGER

@<TRIPOS>ATOM
      1 N         -10.1775  -20.6903   24.9908 N.pl3   1  UNL1       -0.3441
      2 C         -10.4390  -19.4418   24.2015 C.ar    1  UNL1        0.1035
      3 C          -9.8544  -18.1351   24.6495 C.ar    1  UNL1        0.0296
      4 C         -10.1158  -16.8866   23.8603 C.ar    1  UNL1        0.0074
      5 C         -10.9619  -16.9448   22.6230 C.ar    1  UNL1        0.1365
      6 N         -11.3894  -15.8875   21.6487 N.ar    1  UNL1       -0.1258
      7 N         -12.2382  -16.5407   20.5986 N.ar    1  UNL1       -0.0406
      8 N         -12.3353  -18.0018   20.9239 N.ar    1  UNL1       -0.1095
      9 C         -11.5465  -18.2516   22.1750 C.ar    1  UNL1        0.1838
     10 N         -11.2850  -19.5001   22.9643 N.ar    1  UNL1       -0.3249
     11 H          -9.6222  -20.6522   25.8028 H       1  UNL1        0.1437
     12 H         -10.5612  -21.5480   24.6967 H       1  UNL1        0.1437
     13 H         -11.6687  -20.3577   22.6703 H       1  UNL1        0.1686
     14 C          -9.5312  -15.5798   24.3083 C.3     1  UNL1        0.0544
     15 C          -8.1691  -15.5433   24.9355 C.ar    1  UNL1       -0.0177
     16 C          -6.9449  -15.5217   24.0690 C.ar    1  UNL1       -0.0039
     17 C          -5.5828  -15.4852   24.6961 C.ar    1  UNL1       -0.0003
     18 C          -5.4449  -15.4704   26.1897 C.ar    1  UNL1       -0.0000
     19 C          -6.6691  -15.4920   27.0561 C.ar    1  UNL1       -0.0003
     20 C          -8.0313  -15.5285   26.4290 C.ar    1  UNL1       -0.0039
@<TRIPOS>BOND
     1     1     2    1
     2     2     3   ar
     3     3     4   ar
     4     4    14    1
     5    14    15    1
     6    15    16   ar
     7    16    17   ar
     8    17    18   ar
     9    18    19   ar
    10    19    20   ar
    11     4     5   ar
    12     5     6   ar
    13     6     7   ar
    14     7     8   ar
    15     8     9   ar
    16     9    10   ar
    17    10     2   ar
    18    20    15   ar
    19     9     5    1
    20     1    11    1
    21     1    12    1
    22    10    13    1
@<TRIPOS>MOLECULE
*****
 20 22 0 0 0
SMALL
GASTEIGER

@<TRIPOS>ATOM
      1 N         -10.9951  -17.1711   19.7850 N.pl3   1  UNL1       -0.3441
      2 C         -10.6548  -17.4896   21.2108 C.ar    1  UNL1        0.1035
      3 C         -10.2532  -16.3907   22.1494 C.ar    1  UNL1        0.0296
      4 C          -9.9129  -16.7091   23.5752 C.ar    1  UNL1        0.0074
      5 C          -9.9741  -18.1265   24.0623 C.ar    1  UNL1        0.1365
      6 N          -9.6968  -18.7401   25.4027 N.ar    1  UNL1       -0.1258
      7 N          -9.9269  -20.2182   25.2924 N.ar    1  UNL1       -0.0406
      8 N         -10.3465  -20.5182   23.8838 N.ar    1  UNL1       -0.1095
      9 C         -10.3757  -19.2255   23.1236 C.ar    1  UNL1        0.1838
     10 N         -10.7160  -18.9070   21.6978 N.ar    1  UNL1       -0.3249
     11 H         -10.9549  -16.2409   19.4653 H       1  UNL1        0.1437
     12 H         -11.2587  -17.8924   19.1689 H       1  UNL1        0.1437
     13 H         -10.9796  -19.6282   21.0817 H       1  UNL1        0.1686
     14 C          -9.5113  -15.6101   24.5139 C.3     1  UNL1        0.0544
     15 C          -8.1126  -15.5580   25.0530 C.ar    1  UNL1       -0.0177
     16 C          -7.8771  -15.6100   26.5335 C.ar    1  UNL1       -0.0039
     17 C          -6.4783  -15.5579   27.0727 C.ar    1  UNL1       -0.0003
     18 C          -5.3151  -15.4538   26.1314 C.ar    1  UNL1       -0.0000
     19 C          -5.5506  -15.4018   24.6509 C.ar    1  UNL1       -0.0003
     20 C          -6.9493  -15.4539   24.1117 C.ar    1  UNL1       -0.0039
@<TRIPOS>BOND
     1     1     2    1
     2     2     3   ar
     3     3     4   ar
     4     4    14    1
     5    14    15    1
     6    15    16   ar
     7    16    17   ar
     8    17    18   ar
     9    18    19   ar
    10    19    20   ar
    11     4     5   ar
    12     5     6   ar
    13     6     7   ar
    14     7     8   ar
    15     8     9   ar
    16     9    10   ar
    17    10     2   ar
    18    20    15   ar
    19     9     5    1
    20     1    11    1
    21     1    12    1
    22    10    13    1
@<TRIPOS>MOLECULE
*****
 20 22 0 0 0
SMALL
GASTEIGER

@<TRIPOS>ATOM
      1 N          -7.1658  -19.6865   21.0996 N.pl3   1  UNL1       -0.3441
      2 C          -8.3194  -18.7596   21.3452 C.ar    1  UNL1        0.1035
      3 C          -8.3998  -17.9857   22.6275 C.ar    1  UNL1        0.0296
      4 C          -9.5533  -17.0588   22.8731 C.ar    1  UNL1        0.0074
      5 C         -10.6264  -16.9059   21.8362 C.ar    1  UNL1        0.1365
      6 N         -11.8739  -16.0739   21.7981 N.ar    1  UNL1       -0.1258
      7 N         -12.5645  -16.3337   20.4921 N.ar    1  UNL1       -0.0406
      8 N         -11.7438  -17.3263   19.7231 N.ar    1  UNL1       -0.1095
      9 C         -10.5460  -17.6799   20.5539 C.ar    1  UNL1        0.1838
     10 N          -9.3925  -18.6068   20.3084 N.ar    1  UNL1       -0.3249
     11 H          -6.4614  -19.7869   21.7801 H       1  UNL1        0.1437
     12 H          -7.1130  -20.1945   20.2579 H       1  UNL1        0.1437
     13 H          -9.3397  -19.1148   19.4667 H       1  UNL1        0.1686
     14 C          -9.6337  -16.2848   24.1555 C.3     1  UNL1        0.0544
     15 C          -8.3818  -15.9600   24.9152 C.ar    1  UNL1       -0.0177
     16 C          -8.3341  -16.1567   26.4014 C.ar    1  UNL1       -0.0039
     17 C          -7.0822  -15.8319   27.1612 C.ar    1  UNL1       -0.0003
     18 C          -5.8780  -15.3104   26.4347 C.ar    1  UNL1       -0.0000
     19 C          -5.9257  -15.1136   24.9484 C.ar    1  UNL1       -0.0003
     20 C          -7.1776  -15.4384   24.1886 C.ar    1  UNL1       -0.0039
@<TRIPOS>BOND
     1     1     2    1
     2     2     3   ar
     3     3     4   ar
     4     4    14    1
     5    14    15    1
     6    15    16   ar
     7    16    17   ar
     8    17    18   ar
     9    18    19   ar
    10    19    20   ar
    11     4     5   ar
    12     5     6   ar
    13     6     7   ar
    14     7     8   ar
    15     8     9   ar
    16     9    10   ar
    17    10     2   ar
    18    20    15   ar
    19     9     5    1
    20     1    11    1
    21     1    12    1
    22    10    13    1
@<TRIPOS>MOLECULE
*****
 20 22 0 0 0
SMALL
GASTEIGER

@<TRIPOS>ATOM
      1 N         -12.8428  -17.8067   23.2369 N.pl3   1  UNL1       -0.3441
      2 C         -11.4332  -17.7238   22.7305 C.ar    1  UNL1        0.1035
      3 C         -10.5320  -16.6198   23.1982 C.ar    1  UNL1        0.0296
      4 C          -9.1224  -16.5369   22.6918 C.ar    1  UNL1        0.0074
      5 C          -8.6142  -17.5581   21.7177 C.ar    1  UNL1        0.1365
      6 N          -7.2827  -17.7322   21.0493 N.ar    1  UNL1       -0.1258
      7 N          -7.3611  -18.9439   20.1686 N.ar    1  UNL1       -0.0406
      8 N          -8.7411  -19.5186   20.2926 N.ar    1  UNL1       -0.1095
      9 C          -9.5156  -18.6622   21.2501 C.ar    1  UNL1        0.1838
     10 N         -10.9250  -18.7450   21.7565 N.ar    1  UNL1       -0.3249
     11 H         -13.1764  -17.1364   23.8763 H       1  UNL1        0.1437
     12 H         -13.4343  -18.5313   22.9300 H       1  UNL1        0.1437
     13 H         -11.5166  -19.4696   21.4495 H       1  UNL1        0.1686
     14 C          -8.2211  -15.4328   23.1595 C.3     1  UNL1        0.0544
     15 C          -7.6614  -15.4602   24.5509 C.ar    1  UNL1       -0.0177
     16 C          -6.1774  -15.4104   24.7633 C.ar    1  UNL1       -0.0039
     17 C          -5.6176  -15.4378   26.1546 C.ar    1  UNL1       -0.0003
     18 C          -6.5418  -15.5149   27.3335 C.ar    1  UNL1       -0.0000
     19 C          -8.0258  -15.5646   27.1211 C.ar    1  UNL1       -0.0003
     20 C          -8.5857  -15.5372   25.7298 C.ar    1  UNL1       -0.0039
@<TRIPOS>BOND
     1     1     2    1
     2     2     3   ar
     3     3     4   ar
     4     4    14    1
     5    14    15    1
     6    15    16   ar
     7    16    17   ar
     8    17    18   ar
     9    18    19   ar
    10    19    20   ar
    11     4     5   ar
    12     5     6   ar
    13     6     7   ar
    14     7     8   ar
    15     8     9   ar
    16     9    10   ar
    17    10     2   ar
    18    20    15   ar
    19     9     5    1
    20     1    11    1
    21     1    12    1
    22    10    13    1
@<TRIPOS>MOLECULE
*****
 20 22 0 0 0
SMALL
GASTEIGER

@<TRIPOS>ATOM
      1 N          -7.6602  -14.3205   24.1447 N.pl3   1  UNL1       -0.3441
      2 C          -7.3353  -15.6822   23.6056 C.ar    1  UNL1        0.1035
      3 C          -8.4389  -16.6520   23.3034 C.ar    1  UNL1        0.0296
      4 C          -8.1140  -18.0137   22.7643 C.ar    1  UNL1        0.0074
      5 C          -6.6856  -18.4053   22.5275 C.ar    1  UNL1        0.1365
      6 N          -6.0639  -19.6677   22.0081 N.ar    1  UNL1       -0.1258
      7 N          -4.5761  -19.4780   21.9893 N.ar    1  UNL1       -0.0406
      8 N          -4.2782  -18.0983   22.4971 N.ar    1  UNL1       -0.1095
      9 C          -5.5820  -17.4353   22.8297 C.ar    1  UNL1        0.1838
     10 N          -5.9069  -16.0738   23.3688 N.ar    1  UNL1       -0.3249
     11 H          -8.5977  -14.0634   24.3001 H       1  UNL1        0.1437
     12 H          -6.9358  -13.6840   24.3430 H       1  UNL1        0.1437
     13 H          -5.1826  -15.4372   23.5671 H       1  UNL1        0.1686
     14 C          -9.2177  -18.9836   22.4621 C.3     1  UNL1        0.0544
     15 C         -10.6363  -18.6356   22.8034 C.ar    1  UNL1       -0.0177
     16 C         -11.5189  -17.9923   21.7752 C.ar    1  UNL1       -0.0039
     17 C         -12.9375  -17.6444   22.1164 C.ar    1  UNL1       -0.0003
     18 C         -13.4735  -17.9396   23.4859 C.ar    1  UNL1       -0.0000
     19 C         -12.5909  -18.5829   24.5141 C.ar    1  UNL1       -0.0003
     20 C         -11.1723  -18.9309   24.1729 C.ar    1  UNL1       -0.0039
@<TRIPOS>BOND
     1     1     2    1
     2     2     3   ar
     3     3     4   ar
     4     4    14    1
     5    14    15    1
     6    15    16   ar
     7    16    17   ar
     8    17    18   ar
     9    18    19   ar
    10    19    20   ar
    11     4     5   ar
    12     5     6   ar
    13     6     7   ar
    14     7     8   ar
    15     8     9   ar
    16     9    10   ar
    17    10     2   ar
    18    20    15   ar
    19     9     5    1
    20     1    11    1
    21     1    12    1
    22    10    13    1
@<TRIPOS>MOLECULE
*****
 20 22 0 0 0
SMALL
GASTEIGER

@<TRIPOS>ATOM
      1 N         -12.7342  -16.4481   20.2823 N.pl3   1  UNL1       -0.3441
      2 C         -11.5611  -17.1989   20.8393 C.ar    1  UNL1        0.1035
      3 C         -11.4167  -17.3716   22.3223 C.ar    1  UNL1        0.0296
      4 C         -10.2436  -18.1224   22.8793 C.ar    1  UNL1        0.0074
      5 C          -9.2148  -18.7003   21.9532 C.ar    1  UNL1        0.1365
      6 N          -7.9612  -19.4833   22.2088 N.ar    1  UNL1       -0.1258
      7 N          -7.3308  -19.7944   20.8837 N.ar    1  UNL1       -0.0406
      8 N          -8.1948  -19.2037   19.8092 N.ar    1  UNL1       -0.1095
      9 C          -9.3592  -18.5275   20.4702 C.ar    1  UNL1        0.1838
     10 N         -10.5324  -17.7768   19.9132 N.ar    1  UNL1       -0.3249
     11 H         -13.4095  -16.0688   20.8901 H       1  UNL1        0.1437
     12 H         -12.8290  -16.3347   19.3090 H       1  UNL1        0.1437
     13 H         -10.6271  -17.6634   18.9399 H       1  UNL1        0.1686
     14 C         -10.0993  -18.2951   24.3623 C.3     1  UNL1        0.0544
     15 C          -9.2731  -17.3249   25.1535 C.ar    1  UNL1       -0.0177
     16 C          -8.5673  -16.1990   24.4576 C.ar    1  UNL1       -0.0039
     17 C          -7.7411  -15.2287   25.2487 C.ar    1  UNL1       -0.0003
     18 C          -7.6208  -15.3842   26.7358 C.ar    1  UNL1       -0.0000
     19 C          -8.3266  -16.5101   27.4317 C.ar    1  UNL1       -0.0003
     20 C          -9.1528  -17.4804   26.6406 C.ar    1  UNL1       -0.0039
@<TRIPOS>BOND
     1     1     2    1
     2     2     3   ar
     3     3     4   ar
     4     4    14    1
     5    14    15    1
     6    15    16   ar
     7    16    17   ar
     8    17    18   ar
     9    18    19   ar
    10    19    20   ar
    11     4     5   ar
    12     5     6   ar
    13     6     7   ar
    14     7     8   ar
    15     8     9   ar
    16     9    10   ar
    17    10     2   ar
    18    20    15   ar
    19     9     5    1
    20     1    11    1
    21     1    12    1
    22    10    13    1
@<TRIPOS>MOLECULE
*****
 20 22 0 0 0
SMALL
GASTEIGER

@<TRIPOS>ATOM
      1 N          -9.2230  -20.2759   18.7744 N.pl3   1  UNL1       -0.3441
      2 C          -8.3897  -19.6084   19.8281 C.ar    1  UNL1        0.1035
      3 C          -9.0511  -18.9549   21.0050 C.ar    1  UNL1        0.0296
      4 C          -8.2178  -18.2874   22.0587 C.ar    1  UNL1        0.0074
      5 C          -6.7229  -18.2735   21.9352 C.ar    1  UNL1        0.1365
      6 N          -5.6490  -17.6975   22.8097 N.ar    1  UNL1       -0.1258
      7 N          -4.3238  -17.9950   22.1731 N.ar    1  UNL1       -0.0406
      8 N          -4.5787  -18.7549   20.9052 N.ar    1  UNL1       -0.1095
      9 C          -6.0615  -18.9271   20.7582 C.ar    1  UNL1        0.1838
     10 N          -6.8949  -19.5945   19.7046 N.ar    1  UNL1       -0.3249
     11 H         -10.2042  -20.2851   18.8554 H       1  UNL1        0.1437
     12 H          -8.7889  -20.7048   18.0019 H       1  UNL1        0.1437
     13 H          -6.4607  -20.0234   18.9321 H       1  UNL1        0.1686
     14 C          -8.8793  -17.6339   23.2357 C.3     1  UNL1        0.0544
     15 C         -10.3753  -17.6237   23.3450 C.ar    1  UNL1       -0.0177
     16 C         -11.1743  -16.5928   22.6041 C.ar    1  UNL1       -0.0039
     17 C         -12.6703  -16.5825   22.7133 C.ar    1  UNL1       -0.0003
     18 C         -13.3672  -17.6030   23.5635 C.ar    1  UNL1       -0.0000
     19 C         -12.5682  -18.6339   24.3044 C.ar    1  UNL1       -0.0003
     20 C         -11.0722  -18.6442   24.1951 C.ar    1  UNL1       -0.0039
@<TRIPOS>BOND
     1     1     2    1
     2     2     3   ar
     3     3     4   ar
     4     4    14    1
     5    14    15    1
     6    15    16   ar
     7    16    17   ar
     8    17    18   ar
     9    18    19   ar
    10    19    20   ar
    11     4     5   ar
    12     5     6   ar
    13     6     7   ar
    14     7     8   ar
    15     8     9   ar
    16     9    10   ar
    17    10     2   ar
    18    20    15   ar
    19     9     5    1
    20     1    11    1
    21     1    12    1
    22    10    13    1
@<TRIPOS>MOLECULE
*****
 20 22 0 0 0
SMALL
GASTEIGER

@<TRIPOS>ATOM
      1 N          -1.4640  -18.3588   22.5770 N.pl3   1  UNL1       -0.3441
      2 C          -2.9560  -18.2135   22.6308 C.ar    1  UNL1        0.1035
      3 C          -3.5678  -16.9322   23.1145 C.ar    1  UNL1        0.0296
      4 C          -5.0598  -16.7869   23.1684 C.ar    1  UNL1        0.0074
      5 C          -5.9400  -17.9229   22.7384 C.ar    1  UNL1        0.1365
      6 N          -7.4315  -18.0709   22.6814 N.ar    1  UNL1       -0.1258
      7 N          -7.7416  -19.4436   22.1625 N.ar    1  UNL1       -0.0406
      8 N          -6.4416  -20.1441   21.8987 N.ar    1  UNL1       -0.1095
      9 C          -5.3281  -19.2042   22.2547 C.ar    1  UNL1        0.1838
     10 N          -3.8362  -19.3494   22.2009 N.ar    1  UNL1       -0.3249
     11 H          -0.8863  -17.6132   22.8591 H       1  UNL1        0.1437
     12 H          -1.0625  -19.1998   22.2595 H       1  UNL1        0.1437
     13 H          -3.4346  -20.1904   21.8834 H       1  UNL1        0.1686
     14 C          -5.6716  -15.5055   23.6521 C.3     1  UNL1        0.0544
     15 C          -6.5082  -15.4970   24.8971 C.ar    1  UNL1       -0.0177
     16 C          -5.8509  -15.5812   26.2428 C.ar    1  UNL1       -0.0039
     17 C          -6.6874  -15.5727   27.4878 C.ar    1  UNL1       -0.0003
     18 C          -8.1812  -15.4798   27.3872 C.ar    1  UNL1       -0.0000
     19 C          -8.8384  -15.3955   26.0414 C.ar    1  UNL1       -0.0003
     20 C          -8.0019  -15.4041   24.7964 C.ar    1  UNL1       -0.0039
@<TRIPOS>BOND
     1     1     2    1
     2     2     3   ar
     3     3     4   ar
     4     4    14    1
     5    14    15    1
     6    15    16   ar
     7    16    17   ar
     8    17    18   ar
     9    18    19   ar
    10    19    20   ar
    11     4     5   ar
    12     5     6   ar
    13     6     7   ar
    14     7     8   ar
    15     8     9   ar
    16     9    10   ar
    17    10     2   ar
    18    20    15   ar
    19     9     5    1
    20     1    11    1
    21     1    12    1
    22    10    13    1
@<TRIPOS>MOLECULE
*****
 20 22 0 0 0
SMALL
GASTEIGER

@<TRIPOS>ATOM
      1 N          -4.4684  -19.5795   22.3044 N.pl3   1  UNL1       -0.3441
      2 C          -5.8153  -19.0027   21.9830 C.ar    1  UNL1        0.1035
      3 C          -6.3560  -17.8627   22.7940 C.ar    1  UNL1        0.0296
      4 C          -7.7029  -17.2860   22.4726 C.ar    1  UNL1        0.0074
      5 C          -8.5091  -17.8494   21.3401 C.ar    1  UNL1        0.1365
      6 N          -9.8584  -17.4898   20.7924 N.ar    1  UNL1       -0.1258
      7 N         -10.1516  -18.4077   19.6428 N.ar    1  UNL1       -0.0406
      8 N          -8.9836  -19.3345   19.4800 N.ar    1  UNL1       -0.1095
      9 C          -7.9684  -18.9895   20.5290 C.ar    1  UNL1        0.1838
     10 N          -6.6215  -19.5662   20.8505 N.ar    1  UNL1       -0.3249
     11 H          -3.9392  -19.2097   23.0477 H       1  UNL1        0.1437
     12 H          -4.1135  -20.3278   21.7721 H       1  UNL1        0.1437
     13 H          -6.2666  -20.3145   20.3181 H       1  UNL1        0.1686
     14 C          -8.2436  -16.1458   23.2837 C.3     1  UNL1        0.0544
     15 C          -7.7230  -15.8973   24.6683 C.ar    1  UNL1       -0.0177
     16 C          -8.5611  -16.2546   25.8599 C.ar    1  UNL1       -0.0039
     17 C          -8.0407  -16.0061   27.2446 C.ar    1  UNL1       -0.0003
     18 C          -6.6821  -15.4004   27.4377 C.ar    1  UNL1       -0.0000
     19 C          -5.8440  -15.0431   26.2461 C.ar    1  UNL1       -0.0003
     20 C          -6.3644  -15.2916   24.8614 C.ar    1  UNL1       -0.0039
@<TRIPOS>BOND
     1     1     2    1
     2     2     3   ar
     3     3     4   ar
     4     4    14    1
     5    14    15    1
     6    15    16   ar
     7    16    17   ar
     8    17    18   ar
     9    18    19   ar
    10    19    20   ar
    11     4     5   ar
    12     5     6   ar
    13     6     7   ar
    14     7     8   ar
    15     8     9   ar
    16     9    10   ar
    17    10     2   ar
    18    20    15   ar
    19     9     5    1
    20     1    11    1
    21     1    12    1
    22    10    13    1
