@<TRIPOS>MOLECULE
*****
 20 21 0 0 0
SMALL
GASTEIGER

@<TRIPOS>ATOM
      1 C          -5.5509  -19.6086   20.6034 C.2     1  UNL1        0.1535
      2 N          -6.2007  -18.2568   20.6259 N.2     1  UNL1       -0.2470
      3 C          -7.3663  -18.3184   21.5680 C.3     1  UNL1        0.1720
      4 C          -8.3725  -17.2885   21.9885 C.3     1  UNL1        0.1656
      5 O          -8.3019  -15.8987   21.4287 O.3     1  UNL1       -0.3798
      6 C          -9.4494  -17.6484   22.9688 C.3     1  UNL1        0.1735
      7 C          -9.5200  -19.0383   23.5285 C.3     1  UNL1        0.1749
      8 O          -8.5137  -20.0682   23.1080 O.3     1  UNL1       -0.3402
      9 C          -7.4369  -19.7083   22.1278 C.3     1  UNL1        0.1938
     10 S          -6.3149  -20.5056   21.5316 S.3     1  UNL1       -0.0497
     11 H          -9.0199  -15.3633   21.8011 H       1  UNL1        0.2105
     12 C         -10.5968  -19.3983   24.5087 C.3     1  UNL1        0.1693
     13 O         -10.3285  -20.4161   25.5773 O.3     1  UNL1       -0.3794
     14 H         -10.1844  -21.2839   25.1684 H       1  UNL1        0.2105
     15 N          -4.3482  -19.9954   19.7947 N.pl3   1  UNL1       -0.3135
     16 H          -4.4464  -20.6027   19.0261 H       1  UNL1        0.1487
     17 C          -2.4496  -19.6687   21.5378 C.3     1  UNL1        0.0230
     18 C          -2.9959  -19.4569   20.1570 C.3     1  UNL1        0.0887
     19 O         -10.4555  -16.6185   23.3892 O.3     1  UNL1       -0.3485
     20 C         -11.6537  -16.3456   22.5290 C.3     1  UNL1        0.1742
@<TRIPOS>BOND
     1    17    18    1
     2    18    15    1
     3    15     1    1
     4     1     2    2
     5     3     2    1
     6     3     4    1
     7     4     5    1
     8     4     6    1
     9     6    19    1
    10    19    20    1
    11     6     7    1
    12     7    12    1
    13    12    13    1
    14     7     8    1
    15     9     8    1
    16     9    10    1
    17    10     1    1
    18     9     3    1
    19    15    16    1
    20     5    11    1
    21    13    14    1
@<TRIPOS>MOLECULE
*****
 20 21 0 0 0
SMALL
GASTEIGER

@<TRIPOS>ATOM
      1 C         -10.1724  -17.6995   21.6439 C.2     1  UNL1        0.1535
      2 N          -9.8461  -16.4782   22.4513 N.2     1  UNL1       -0.2470
      3 C          -8.3821  -16.5147   22.7760 C.3     1  UNL1        0.1720
      4 C          -7.5011  -15.5761   23.5458 C.3     1  UNL1        0.1656
      5 O          -8.0795  -14.3322   24.1526 O.3     1  UNL1       -0.3798
      6 C          -6.0414  -15.8812   23.7088 C.3     1  UNL1        0.1735
      7 C          -5.4630  -17.1251   23.1020 C.3     1  UNL1        0.1749
      8 O          -6.3441  -18.0638   22.3322 O.3     1  UNL1       -0.3402
      9 C          -7.8036  -17.7586   22.1692 C.3     1  UNL1        0.1938
     10 S          -8.9101  -18.4908   21.4695 S.3     1  UNL1       -0.0497
     11 H          -7.3803  -13.8411   24.6117 H       1  UNL1        0.2105
     12 C          -4.0034  -17.4302   23.2650 C.3     1  UNL1        0.1693
     13 O          -2.9762  -16.5480   22.6197 O.3     1  UNL1       -0.3794
     14 H          -3.0499  -16.6180   21.6551 H       1  UNL1        0.2105
     15 N         -11.5238  -18.0653   21.1053 N.pl3   1  UNL1       -0.3135
     16 H         -11.6004  -18.7054   20.3613 H       1  UNL1        0.1487
     17 C         -13.1646  -17.8016   23.1023 C.3     1  UNL1        0.0230
     18 C         -12.7584  -17.4558   21.7004 C.3     1  UNL1        0.0887
     19 O          -5.1604  -14.9425   24.4786 O.3     1  UNL1       -0.3485
     20 C          -5.1670  -14.9678   25.9784 C.3     1  UNL1        0.1742
@<TRIPOS>BOND
     1    17    18    1
     2    18    15    1
     3    15     1    1
     4     1     2    2
     5     3     2    1
     6     3     4    1
     7     4     5    1
     8     4     6    1
     9     6    19    1
    10    19    20    1
    11     6     7    1
    12     7    12    1
    13    12    13    1
    14     7     8    1
    15     9     8    1
    16     9    10    1
    17    10     1    1
    18     9     3    1
    19    15    16    1
    20     5    11    1
    21    13    14    1
@<TRIPOS>MOLECULE
*****
 20 21 0 0 0
SMALL
GASTEIGER

@<TRIPOS>ATOM
      1 C          -4.4912  -19.5964   21.3207 C.2     1  UNL1        0.1535
      2 N          -5.1605  -18.5675   22.1830 N.2     1  UNL1       -0.2470
      3 C          -6.6068  -18.5036   21.7905 C.3     1  UNL1        0.1720
      4 C          -7.7482  -17.6723   22.2965 C.3     1  UNL1        0.1656
      5 O          -7.5236  -16.6829   23.4013 O.3     1  UNL1       -0.3798
      6 C          -9.1144  -17.8303   21.6976 C.3     1  UNL1        0.1735
      7 C          -9.3391  -18.8197   20.5927 C.3     1  UNL1        0.1749
      8 O          -8.1976  -19.6510   20.0868 O.3     1  UNL1       -0.3402
      9 C          -6.8315  -19.4930   20.6857 C.3     1  UNL1        0.1938
     10 S          -5.5240  -20.1683   20.3954 S.3     1  UNL1       -0.0497
     11 H          -8.3578  -16.2327   23.6067 H       1  UNL1        0.2105
     12 C         -10.7052  -18.9778   19.9938 C.3     1  UNL1        0.1693
     13 O         -11.5358  -17.7662   19.6904 O.3     1  UNL1       -0.3794
     14 H         -11.7723  -17.3206   20.5188 H       1  UNL1        0.2105
     15 N          -3.0434  -19.9851   21.3744 N.pl3   1  UNL1       -0.3135
     16 H          -2.7723  -20.8111   21.8365 H       1  UNL1        0.1487
     17 C          -2.2836  -18.4953   19.3862 C.3     1  UNL1        0.0230
     18 C          -2.0088  -19.1154   20.7241 C.3     1  UNL1        0.0887
     19 O         -10.2559  -16.9990   22.2035 O.3     1  UNL1       -0.3485
     20 C         -11.0414  -17.4516   23.3985 C.3     1  UNL1        0.1742
@<TRIPOS>BOND
     1    17    18    1
     2    18    15    1
     3    15     1    1
     4     1     2    2
     5     3     2    1
     6     3     4    1
     7     4     5    1
     8     4     6    1
     9     6    19    1
    10    19    20    1
    11     6     7    1
    12     7    12    1
    13    12    13    1
    14     7     8    1
    15     9     8    1
    16     9    10    1
    17    10     1    1
    18     9     3    1
    19    15    16    1
    20     5    11    1
    21    13    14    1
@<TRIPOS>MOLECULE
*****
 20 21 0 0 0
SMALL
GASTEIGER

@<TRIPOS>ATOM
      1 C          -9.0552  -18.2618   22.6486 C.2     1  UNL1        0.1535
      2 N          -7.9855  -17.4062   23.2600 N.2     1  UNL1       -0.2470
      3 C          -6.6584  -17.8967   22.7620 C.3     1  UNL1        0.1720
      4 C          -5.2551  -17.4379   23.0267 C.3     1  UNL1        0.1656
      5 O          -5.0057  -16.2791   23.9459 O.3     1  UNL1       -0.3798
      6 C          -4.1010  -18.1379   22.3722 C.3     1  UNL1        0.1735
      7 C          -4.3504  -19.2967   21.4530 C.3     1  UNL1        0.1749
      8 O          -5.7538  -19.7555   21.1882 O.3     1  UNL1       -0.3402
      9 C          -6.9078  -19.0555   21.8427 C.3     1  UNL1        0.1938
     10 S          -8.3890  -19.2812   21.7727 S.3     1  UNL1       -0.0497
     11 H          -4.0517  -16.1142   24.0069 H       1  UNL1        0.2105
     12 C          -3.1965  -19.9967   20.7985 C.3     1  UNL1        0.1693
     13 O          -1.9323  -20.2395   21.5683 O.3     1  UNL1       -0.3794
     14 H          -1.5112  -19.3903   21.7746 H       1  UNL1        0.2105
     15 N         -10.5316  -18.1226   22.8737 N.pl3   1  UNL1       -0.3135
     16 H         -10.8671  -17.7379   23.7155 H       1  UNL1        0.1487
     17 C         -12.6658  -17.7023   21.4528 C.3     1  UNL1        0.0230
     18 C         -11.4969  -18.5694   21.8161 C.3     1  UNL1        0.0887
     19 O          -2.6977  -17.6791   22.6369 O.3     1  UNL1       -0.3485
     20 C          -2.1463  -16.4915   21.9051 C.3     1  UNL1        0.1742
@<TRIPOS>BOND
     1    17    18    1
     2    18    15    1
     3    15     1    1
     4     1     2    2
     5     3     2    1
     6     3     4    1
     7     4     5    1
     8     4     6    1
     9     6    19    1
    10    19    20    1
    11     6     7    1
    12     7    12    1
    13    12    13    1
    14     7     8    1
    15     9     8    1
    16     9    10    1
    17    10     1    1
    18     9     3    1
    19    15    16    1
    20     5    11    1
    21    13    14    1
@<TRIPOS>MOLECULE
*****
 20 21 0 0 0
SMALL
GASTEIGER

@<TRIPOS>ATOM
      1 C          -4.2326  -19.5540   21.2012 C.2     1  UNL1        0.1535
      2 N          -5.4006  -19.6968   20.2709 N.2     1  UNL1       -0.2470
      3 C          -6.5863  -19.0376   20.9109 C.3     1  UNL1        0.1720
      4 C          -8.0060  -18.8673   20.4577 C.3     1  UNL1        0.1656
      5 O          -8.4411  -19.4174   19.1318 O.3     1  UNL1       -0.3798
      6 C          -8.9906  -18.1467   21.3303 C.3     1  UNL1        0.1735
      7 C          -8.5554  -17.5965   22.6562 C.3     1  UNL1        0.1749
      8 O          -7.1357  -17.7669   23.1094 O.3     1  UNL1       -0.3402
      9 C          -6.1511  -18.4874   22.2368 C.3     1  UNL1        0.1938
     10 S          -4.6965  -18.8066   22.4162 S.3     1  UNL1       -0.0497
     11 H          -9.3812  -19.2224   18.9936 H       1  UNL1        0.2105
     12 C          -9.5399  -16.8760   23.5288 C.3     1  UNL1        0.1693
     13 O         -10.5351  -15.9347   22.9179 O.3     1  UNL1       -0.3794
     14 H         -10.0691  -15.1742   22.5367 H       1  UNL1        0.2105
     15 N          -2.8445  -20.0684   20.9591 N.pl3   1  UNL1       -0.3135
     16 H          -2.6416  -21.0216   21.0981 H       1  UNL1        0.1487
     17 C          -1.9439  -18.3356   19.2455 C.3     1  UNL1        0.0230
     18 C          -1.7657  -19.1303   20.5051 C.3     1  UNL1        0.0887
     19 O         -10.4102  -17.9764   20.8771 O.3     1  UNL1       -0.3485
     20 C         -11.4024  -19.0816   21.0871 C.3     1  UNL1        0.1742
@<TRIPOS>BOND
     1    17    18    1
     2    18    15    1
     3    15     1    1
     4     1     2    2
     5     3     2    1
     6     3     4    1
     7     4     5    1
     8     4     6    1
     9     6    19    1
    10    19    20    1
    11     6     7    1
    12     7    12    1
    13    12    13    1
    14     7     8    1
    15     9     8    1
    16     9    10    1
    17    10     1    1
    18     9     3    1
    19    15    16    1
    20     5    11    1
    21    13    14    1
@<TRIPOS>MOLECULE
*****
 20 21 0 0 0
SMALL
GASTEIGER

@<TRIPOS>ATOM
      1 C          -7.0609  -15.9364   24.0969 C.2     1  UNL1        0.1535
      2 N          -8.0106  -16.9014   24.7426 N.2     1  UNL1       -0.2470
      3 C          -9.2391  -16.9861   23.8861 C.3     1  UNL1        0.1720
      4 C         -10.5065  -17.7763   24.0244 C.3     1  UNL1        0.1656
      5 O         -10.6968  -18.6890   25.1995 O.3     1  UNL1       -0.3798
      6 C         -11.5836  -17.6539   22.9876 C.3     1  UNL1        0.1735
      7 C         -11.3933  -16.7412   21.8126 C.3     1  UNL1        0.1749
      8 O         -10.1258  -15.9509   21.6743 O.3     1  UNL1       -0.3402
      9 C          -9.0488  -16.0734   22.7111 C.3     1  UNL1        0.1938
     10 S          -7.7026  -15.4246   22.8413 S.3     1  UNL1       -0.0497
     11 H         -11.5631  -19.1208   25.1365 H       1  UNL1        0.2105
     12 C         -12.4704  -16.6188   20.7758 C.3     1  UNL1        0.1693
     13 O         -12.1950  -15.8971   19.4900 O.3     1  UNL1       -0.3794
     14 H         -12.0389  -14.9575   19.6736 H       1  UNL1        0.2105
     15 N          -5.7073  -15.5508   24.6156 N.pl3   1  UNL1       -0.3135
     16 H          -4.9958  -15.2890   23.9876 H       1  UNL1        0.1487
     17 C          -6.5537  -15.3057   27.0597 C.3     1  UNL1        0.0230
     18 C          -5.4379  -15.5641   26.0911 C.3     1  UNL1        0.0887
     19 O         -12.8510  -18.4442   23.1259 O.3     1  UNL1       -0.3485
     20 C         -13.9093  -18.0013   24.0923 C.3     1  UNL1        0.1742
@<TRIPOS>BOND
     1    17    18    1
     2    18    15    1
     3    15     1    1
     4     1     2    2
     5     3     2    1
     6     3     4    1
     7     4     5    1
     8     4     6    1
     9     6    19    1
    10    19    20    1
    11     6     7    1
    12     7    12    1
    13    12    13    1
    14     7     8    1
    15     9     8    1
    16     9    10    1
    17    10     1    1
    18     9     3    1
    19    15    16    1
    20     5    11    1
    21    13    14    1
@<TRIPOS>MOLECULE
*****
 20 21 0 0 0
SMALL
GASTEIGER

@<TRIPOS>ATOM
      1 C          -6.4854  -15.8726   23.7027 C.2     1  UNL1        0.1535
      2 N          -6.3353  -17.1976   23.0157 N.2     1  UNL1       -0.2470
      3 C          -7.6150  -17.4913   22.2904 C.3     1  UNL1        0.1720
      4 C          -8.0449  -18.6523   21.4435 C.3     1  UNL1        0.1656
      5 O          -7.1038  -19.7957   21.2048 O.3     1  UNL1       -0.3798
      6 C          -9.4159  -18.6698   20.8351 C.3     1  UNL1        0.1735
      7 C         -10.3570  -17.5264   21.0738 C.3     1  UNL1        0.1749
      8 O          -9.9270  -16.3654   21.9208 O.3     1  UNL1       -0.3402
      9 C          -8.5561  -16.3479   22.5290 C.3     1  UNL1        0.1938
     10 S          -7.8579  -15.3475   23.4019 S.3     1  UNL1       -0.0497
     11 H          -7.5349  -20.4570   20.6411 H       1  UNL1        0.2105
     12 C         -11.7280  -17.5439   20.4655 C.3     1  UNL1        0.1693
     13 O         -12.4422  -16.2542   20.1887 O.3     1  UNL1       -0.3794
     14 H         -12.6422  -15.8090   21.0270 H       1  UNL1        0.2105
     15 N          -5.4457  -15.1922   24.5429 N.pl3   1  UNL1       -0.3135
     16 H          -4.8403  -14.5305   24.1367 H       1  UNL1        0.1487
     17 C          -6.5399  -15.4598   26.8840 C.3     1  UNL1        0.0230
     18 C          -5.3282  -15.5199   26.0019 C.3     1  UNL1        0.0887
     19 O          -9.8458  -19.8308   19.9882 O.3     1  UNL1       -0.3485
     20 C          -9.1909  -20.0740   18.6608 C.3     1  UNL1        0.1742
@<TRIPOS>BOND
     1    17    18    1
     2    18    15    1
     3    15     1    1
     4     1     2    2
     5     3     2    1
     6     3     4    1
     7     4     5    1
     8     4     6    1
     9     6    19    1
    10    19    20    1
    11     6     7    1
    12     7    12    1
    13    12    13    1
    14     7     8    1
    15     9     8    1
    16     9    10    1
    17    10     1    1
    18     9     3    1
    19    15    16    1
    20     5    11    1
    21    13    14    1
@<TRIPOS>MOLECULE
*****
 20 21 0 0 0
SMALL
GASTEIGER

@<TRIPOS>ATOM
      1 C          -6.4116  -15.8897   24.3207 C.2     1  UNL1        0.1535
      2 N          -4.9265  -16.0926   24.2635 N.2     1  UNL1       -0.2470
      3 C          -4.6444  -17.1729   23.2618 C.3     1  UNL1        0.1720
      4 C          -3.3633  -17.7935   22.7888 C.3     1  UNL1        0.1656
      5 O          -2.0525  -17.3287   23.3508 O.3     1  UNL1       -0.3798
      6 C          -3.3930  -18.8789   21.7538 C.3     1  UNL1        0.1735
      7 C          -4.7038  -19.3436   21.1919 C.3     1  UNL1        0.1749
      8 O          -5.9849  -18.7230   21.6649 O.3     1  UNL1       -0.3402
      9 C          -5.9552  -17.6377   22.6999 C.3     1  UNL1        0.1938
     10 S          -7.0473  -16.8446   23.3543 S.3     1  UNL1       -0.0497
     11 H          -1.3295  -17.8290   22.9411 H       1  UNL1        0.2105
     12 C          -4.7336  -20.4289   20.1569 C.3     1  UNL1        0.1693
     13 O          -5.8839  -21.3905   20.1115 O.3     1  UNL1       -0.3794
     14 H          -5.8838  -21.9330   20.9156 H       1  UNL1        0.2105
     15 N          -7.1340  -14.9048   25.1913 N.pl3   1  UNL1       -0.3135
     16 H          -6.8412  -13.9653   25.2195 H       1  UNL1        0.1487
     17 C          -8.0736  -16.1176   27.2880 C.3     1  UNL1        0.0230
     18 C          -8.3025  -15.3514   26.0190 C.3     1  UNL1        0.0887
     19 O          -2.1120  -19.4994   21.2808 O.3     1  UNL1       -0.3485
     20 C          -1.2908  -18.8150   20.2285 C.3     1  UNL1        0.1742
@<TRIPOS>BOND
     1    17    18    1
     2    18    15    1
     3    15     1    1
     4     1     2    2
     5     3     2    1
     6     3     4    1
     7     4     5    1
     8     4     6    1
     9     6    19    1
    10    19    20    1
    11     6     7    1
    12     7    12    1
    13    12    13    1
    14     7     8    1
    15     9     8    1
    16     9    10    1
    17    10     1    1
    18     9     3    1
    19    15    16    1
    20     5    11    1
    21    13    14    1
@<TRIPOS>MOLECULE
*****
 20 21 0 0 0
SMALL
GASTEIGER

@<TRIPOS>ATOM
      1 C          -5.5180  -19.4713   20.9543 C.2     1  UNL1        0.1535
      2 N          -5.2820  -18.4026   21.9801 N.2     1  UNL1       -0.2470
      3 C          -6.6163  -17.8624   22.4021 C.3     1  UNL1        0.1720
      4 C          -7.0024  -16.7963   23.3841 C.3     1  UNL1        0.1656
      5 O          -5.9419  -16.0615   24.1491 O.3     1  UNL1       -0.3798
      6 C          -8.4493  -16.4650   23.6011 C.3     1  UNL1        0.1735
      7 C          -9.5098  -17.1998   22.8360 C.3     1  UNL1        0.1749
      8 O          -9.1236  -18.2659   21.8540 O.3     1  UNL1       -0.3402
      9 C          -7.6768  -18.5972   21.6371 C.3     1  UNL1        0.1938
     10 S          -6.9980  -19.5915   20.7423 S.3     1  UNL1       -0.0497
     11 H          -6.3585  -15.4113   24.7360 H       1  UNL1        0.2105
     12 C         -10.9566  -16.8686   23.0530 C.3     1  UNL1        0.1693
     13 O         -11.4602  -15.4849   22.7672 O.3     1  UNL1       -0.3794
     14 H         -11.0555  -14.8589   23.3879 H       1  UNL1        0.2105
     15 N          -4.4597  -20.2781   20.2621 N.pl3   1  UNL1       -0.3135
     16 H          -4.6370  -21.2147   20.0160 H       1  UNL1        0.1487
     17 C          -3.0704  -18.3217   19.2658 C.3     1  UNL1        0.0230
     18 C          -3.1313  -19.6578   19.9449 C.3     1  UNL1        0.0887
     19 O          -8.8355  -15.3990   24.5830 O.3     1  UNL1       -0.3485
     20 C          -8.5272  -15.5745   26.0405 C.3     1  UNL1        0.1742
@<TRIPOS>BOND
     1    17    18    1
     2    18    15    1
     3    15     1    1
     4     1     2    2
     5     3     2    1
     6     3     4    1
     7     4     5    1
     8     4     6    1
     9     6    19    1
    10    19    20    1
    11     6     7    1
    12     7    12    1
    13    12    13    1
    14     7     8    1
    15     9     8    1
    16     9    10    1
    17    10     1    1
    18     9     3    1
    19    15    16    1
    20     5    11    1
    21    13    14    1
