@<TRIPOS>MOLECULE
*****
 34 38 0 0 0
SMALL
GASTEIGER

@<TRIPOS>ATOM
      1 C         -10.1710  -19.1204   22.5231 C.ar    1  UNL1        0.0195
      2 C          -9.2009  -19.6006   23.5615 C.ar    1  UNL1        0.0028
      3 C          -7.8680  -20.1490   23.1460 C.ar    1  UNL1        0.0148
      4 C          -7.5052  -20.2173   21.6922 C.ar    1  UNL1        0.0516
      5 C          -8.4753  -19.7370   20.6537 C.ar    1  UNL1        0.0148
      6 C          -9.8082  -19.1886   21.0692 C.ar    1  UNL1        0.0028
      7 N          -6.1723  -20.7657   21.2767 N.am    1  UNL1       -0.2681
      8 C          -5.0414  -19.8313   20.9638 C.2     1  UNL1        0.3082
      9 O          -5.2433  -18.3485   21.0663 O.2     1  UNL1       -0.2522
     10 N          -3.7085  -20.3798   20.5483 N.am    1  UNL1       -0.2681
     11 H          -6.0398  -21.7389   21.2095 H       1  UNL1        0.1564
     12 H          -3.5759  -21.3530   20.4811 H       1  UNL1        0.1564
     13 C          -2.5775  -19.4453   20.2354 C.ar    1  UNL1        0.0516
     14 C          -1.5724  -19.1030   21.2949 C.ar    1  UNL1        0.0147
     15 C          -0.4416  -18.1686   20.9819 C.ar    1  UNL1        0.0013
     16 C          -0.3158  -17.5766   19.6094 C.ar    1  UNL1        0.0001
     17 C          -1.3209  -17.9189   18.5500 C.ar    1  UNL1        0.0013
     18 C          -2.4518  -18.8533   18.8629 C.ar    1  UNL1        0.0147
     19 N         -13.6243  -18.2787   24.0823 N.ar    1  UNL1       -0.2495
     20 C         -13.4857  -17.1774   23.0734 C.ar    1  UNL1        0.0963
     21 C         -12.1752  -17.3587   22.3665 C.ar    1  UNL1        0.0351
     22 C         -11.5039  -18.5720   22.9386 C.ar    1  UNL1        0.1020
     23 N         -12.3995  -19.1406   23.9990 N.ar    1  UNL1       -0.1693
     24 C         -11.6315  -16.4808   21.2785 C.2     1  UNL1        0.0003
     25 C         -12.4287  -16.2552   20.0281 C.2     1  UNL1        0.0472
     26 C         -11.8850  -15.3773   18.9402 C.2     1  UNL1        0.2354
     27 N         -10.5440  -14.7250   19.1026 N.2     1  UNL1       -0.0341
     28 C          -9.7468  -14.9506   20.3529 C.2     1  UNL1        0.3593
     29 N          -8.4047  -14.4451   20.7925 N.2     1  UNL1       -0.0344
     30 C          -8.1190  -15.0105   22.1521 C.2     1  UNL1        0.2320
     31 C          -9.2844  -15.8656   22.5529 C.2     1  UNL1        0.0408
     32 C         -10.2905  -15.8286   21.4409 C.3     1  UNL1        0.1601
     33 C         -14.5660  -18.4777   26.4956 C.3     1  UNL1        0.0284
     34 C         -14.7841  -18.4823   25.0115 C.3     1  UNL1        0.1276
@<TRIPOS>BOND
     1    33    34    1
     2    34    19    1
     3    19    20   ar
     4    20    21   ar
     5    21    24    1
     6    24    25    2
     7    25    26    1
     8    26    27    2
     9    27    28    1
    10    28    29    2
    11    29    30    1
    12    30    31    2
    13    31    32    1
    14    21    22   ar
    15    22     1    1
    16     1     2   ar
    17     2     3   ar
    18     3     4   ar
    19     4     7    1
    20     7     8   am
    21     8     9    2
    22     8    10   am
    23    10    13    1
    24    13    14   ar
    25    14    15   ar
    26    15    16   ar
    27    16    17   ar
    28    17    18   ar
    29     4     5   ar
    30     5     6   ar
    31    22    23   ar
    32    23    19   ar
    33    32    24    1
    34     6     1   ar
    35    32    28    1
    36    18    13   ar
    37     7    11    1
    38    10    12    1
@<TRIPOS>MOLECULE
*****
 34 38 0 0 0
SMALL
GASTEIGER

@<TRIPOS>ATOM
      1 C           3.6904    0.2012   21.8738 C.ar    1  UNL1        0.0195
      2 C           5.1531    0.4786   22.0567 C.ar    1  UNL1        0.0028
      3 C           5.9060   -0.1748   23.1776 C.ar    1  UNL1        0.0148
      4 C           5.1962   -1.1056   24.1154 C.ar    1  UNL1        0.0516
      5 C           3.7334   -1.3831   23.9325 C.ar    1  UNL1        0.0148
      6 C           2.9805   -0.7297   22.8117 C.ar    1  UNL1        0.0028
      7 N           5.9491   -1.7590   25.2363 N.am    1  UNL1       -0.2681
      8 C           6.4502   -3.1645   25.0840 C.2     1  UNL1        0.3082
      9 O           6.1986   -3.9167   23.8108 O.2     1  UNL1       -0.2522
     10 N           7.2031   -3.8179   26.2048 N.am    1  UNL1       -0.2681
     11 H           6.1143   -1.2653   26.0719 H       1  UNL1        0.1564
     12 H           7.3683   -3.3243   27.0404 H       1  UNL1        0.1564
     13 C           7.7043   -5.2235   26.0524 C.ar    1  UNL1        0.0516
     14 C           9.0294   -5.4805   25.3983 C.ar    1  UNL1        0.0147
     15 C           9.5305   -6.8861   25.2459 C.ar    1  UNL1        0.0013
     16 C           8.7066   -8.0346   25.7478 C.ar    1  UNL1        0.0001
     17 C           7.3814   -7.7776   26.4020 C.ar    1  UNL1        0.0013
     18 C           6.8803   -6.3721   26.5543 C.ar    1  UNL1        0.0147
     19 N           1.3340    2.2014   19.5262 N.ar    1  UNL1       -0.2495
     20 C           2.2241    1.5187   18.5303 C.ar    1  UNL1        0.0963
     21 C           3.2151    0.6863   19.2886 C.ar    1  UNL1        0.0351
     22 C           2.9375    0.8546   20.7530 C.ar    1  UNL1        0.1020
     23 N           1.7750    1.7909   20.8999 N.ar    1  UNL1       -0.1693
     24 C           4.2943   -0.1648   18.6878 C.2     1  UNL1        0.0003
     25 C           5.4361    0.4770   17.9569 C.2     1  UNL1        0.0472
     26 C           6.5152   -0.3741   17.3562 C.2     1  UNL1        0.2354
     27 N           6.4526   -1.8672   17.4862 N.2     1  UNL1       -0.0341
     28 C           5.3107   -2.5090   18.2171 C.2     1  UNL1        0.3593
     29 N           4.9828   -3.9443   18.5042 N.2     1  UNL1       -0.0344
     30 C           3.7010   -3.9802   19.2824 C.2     1  UNL1        0.2320
     31 C           3.2367   -2.5671   19.4763 C.2     1  UNL1        0.0408
     32 C           4.2316   -1.6579   18.8179 C.3     1  UNL1        0.1601
     33 C          -0.2344    3.3183   17.7818 C.3     1  UNL1        0.0284
     34 C           0.2017    3.1313   19.2048 C.3     1  UNL1        0.1276
@<TRIPOS>BOND
     1    33    34    1
     2    34    19    1
     3    19    20   ar
     4    20    21   ar
     5    21    24    1
     6    24    25    2
     7    25    26    1
     8    26    27    2
     9    27    28    1
    10    28    29    2
    11    29    30    1
    12    30    31    2
    13    31    32    1
    14    21    22   ar
    15    22     1    1
    16     1     2   ar
    17     2     3   ar
    18     3     4   ar
    19     4     7    1
    20     7     8   am
    21     8     9    2
    22     8    10   am
    23    10    13    1
    24    13    14   ar
    25    14    15   ar
    26    15    16   ar
    27    16    17   ar
    28    17    18   ar
    29     4     5   ar
    30     5     6   ar
    31    22    23   ar
    32    23    19   ar
    33    32    24    1
    34     6     1   ar
    35    32    28    1
    36    18    13   ar
    37     7    11    1
    38    10    12    1
@<TRIPOS>MOLECULE
*****
 34 38 0 0 0
SMALL
GASTEIGER

@<TRIPOS>ATOM
      1 C           4.0020   -1.0956   22.6931 C.ar    1  UNL1        0.0195
      2 C           4.8212   -0.0785   23.4308 C.ar    1  UNL1        0.0028
      3 C           5.8855   -0.5247   24.3890 C.ar    1  UNL1        0.0148
      4 C           6.1305   -1.9880   24.6096 C.ar    1  UNL1        0.0516
      5 C           5.3113   -3.0052   23.8719 C.ar    1  UNL1        0.0148
      6 C           4.2470   -2.5590   22.9136 C.ar    1  UNL1        0.0028
      7 N           7.1948   -2.4341   25.5678 N.am    1  UNL1       -0.2681
      8 C           6.8329   -2.7842   26.9808 C.2     1  UNL1        0.3082
      9 O           5.4067   -2.6881   27.4355 O.2     1  UNL1       -0.2522
     10 N           7.8972   -3.2304   27.9390 N.am    1  UNL1       -0.2681
     11 H           8.1309   -2.4972   25.2694 H       1  UNL1        0.1564
     12 H           8.8333   -3.2934   27.6406 H       1  UNL1        0.1564
     13 C           7.5353   -3.5804   29.3520 C.ar    1  UNL1        0.0516
     14 C           7.2834   -5.0101   29.7295 C.ar    1  UNL1        0.0147
     15 C           6.9215   -5.3601   31.1424 C.ar    1  UNL1        0.0013
     16 C           6.8115   -4.2804   32.1779 C.ar    1  UNL1        0.0001
     17 C           7.0634   -2.8508   31.8005 C.ar    1  UNL1        0.0013
     18 C           7.4253   -2.5008   30.3875 C.ar    1  UNL1        0.0147
     19 N           1.0234    0.4989   20.7825 N.ar    1  UNL1       -0.2495
     20 C           1.5765   -0.4247   19.7381 C.ar    1  UNL1        0.0963
     21 C           2.7597   -1.1345   20.3267 C.ar    1  UNL1        0.0351
     22 C           2.9377   -0.6495   21.7349 C.ar    1  UNL1        0.1020
     23 N           1.8646    0.3600   22.0166 N.ar    1  UNL1       -0.1693
     24 C           3.6146   -2.1508   19.6295 C.2     1  UNL1        0.0003
     25 C           3.2367   -3.6019   19.6677 C.2     1  UNL1        0.0472
     26 C           4.0916   -4.6182   18.9705 C.2     1  UNL1        0.2354
     27 N           5.3246   -4.1834   18.2350 N.2     1  UNL1       -0.0341
     28 C           5.7025   -2.7323   18.1967 C.2     1  UNL1        0.3593
     29 N           6.8512   -2.0109   17.5564 N.2     1  UNL1       -0.0344
     30 C           6.7061   -0.5487   17.8579 C.2     1  UNL1        0.2320
     31 C           5.4678   -0.3664   18.6845 C.2     1  UNL1        0.0408
     32 C           4.8475   -1.7160   18.8940 C.3     1  UNL1        0.1601
     33 C          -0.2126    2.7124   21.3509 C.3     1  UNL1        0.0284
     34 C          -0.1628    1.4028   20.6212 C.3     1  UNL1        0.1276
@<TRIPOS>BOND
     1    33    34    1
     2    34    19    1
     3    19    20   ar
     4    20    21   ar
     5    21    24    1
     6    24    25    2
     7    25    26    1
     8    26    27    2
     9    27    28    1
    10    28    29    2
    11    29    30    1
    12    30    31    2
    13    31    32    1
    14    21    22   ar
    15    22     1    1
    16     1     2   ar
    17     2     3   ar
    18     3     4   ar
    19     4     7    1
    20     7     8   am
    21     8     9    2
    22     8    10   am
    23    10    13    1
    24    13    14   ar
    25    14    15   ar
    26    15    16   ar
    27    16    17   ar
    28    17    18   ar
    29     4     5   ar
    30     5     6   ar
    31    22    23   ar
    32    23    19   ar
    33    32    24    1
    34     6     1   ar
    35    32    28    1
    36    18    13   ar
    37     7    11    1
    38    10    12    1
@<TRIPOS>MOLECULE
*****
 34 38 0 0 0
SMALL
GASTEIGER

@<TRIPOS>ATOM
      1 C          -0.3248    2.5882   24.4543 C.ar    1  UNL1        0.0195
      2 C           0.2460    1.2534   24.8317 C.ar    1  UNL1        0.0028
      3 C           1.5258    0.7814   24.2077 C.ar    1  UNL1        0.0148
      4 C           2.2349    1.6443   23.2065 C.ar    1  UNL1        0.0516
      5 C           1.6641    2.9792   22.8291 C.ar    1  UNL1        0.0148
      6 C           0.3843    3.4511   23.4530 C.ar    1  UNL1        0.0028
      7 N           3.5148    1.1724   22.5825 N.am    1  UNL1       -0.2681
      8 C           3.5298   -0.0806   21.7581 C.2     1  UNL1        0.3082
      9 O           2.2650   -0.8618   21.5576 O.2     1  UNL1       -0.2522
     10 N           4.8097   -0.5526   21.1342 N.am    1  UNL1       -0.2681
     11 H           4.3449    1.6851   22.7141 H       1  UNL1        0.1564
     12 H           5.6398   -0.0399   21.2658 H       1  UNL1        0.1564
     13 C           4.8247   -1.8057   20.3098 C.ar    1  UNL1        0.0516
     14 C           5.3163   -1.7656   18.8932 C.ar    1  UNL1        0.0147
     15 C           5.3313   -3.0186   18.0689 C.ar    1  UNL1        0.0013
     16 C           4.8547   -4.3118   18.6611 C.ar    1  UNL1        0.0001
     17 C           4.3632   -4.3518   20.0776 C.ar    1  UNL1        0.0013
     18 C           4.3481   -3.0988   20.9020 C.ar    1  UNL1        0.0147
     19 N          -3.9135    3.7483   25.3707 N.ar    1  UNL1       -0.2495
     20 C          -3.2345    3.8243   26.7060 C.ar    1  UNL1        0.0963
     21 C          -1.8075    3.3990   26.5252 C.ar    1  UNL1        0.0351
     22 C          -1.6046    3.0601   25.0782 C.ar    1  UNL1        0.1020
     23 N          -2.9062    3.2759   24.3647 N.ar    1  UNL1       -0.1693
     24 C          -0.7662    3.3255   27.6024 C.2     1  UNL1        0.0003
     25 C          -0.0165    4.5604   28.0064 C.2     1  UNL1        0.0472
     26 C           1.0247    4.4869   29.0835 C.2     1  UNL1        0.2354
     27 N           1.3164    3.1786   29.7568 N.2     1  UNL1       -0.0341
     28 C           0.5667    1.9438   29.3529 C.2     1  UNL1        0.3593
     29 N           0.6370    0.5247   29.8337 N.2     1  UNL1       -0.0344
     30 C          -0.3609   -0.2789   29.0537 C.2     1  UNL1        0.2320
     31 C          -1.0479    0.6435   28.0908 C.2     1  UNL1        0.0408
     32 C          -0.4746    2.0172   28.2757 C.3     1  UNL1        0.1601
     33 C          -5.7985    4.3352   23.6817 C.3     1  UNL1        0.0284
     34 C          -5.3481    4.0853   25.0905 C.3     1  UNL1        0.1276
@<TRIPOS>BOND
     1    33    34    1
     2    34    19    1
     3    19    20   ar
     4    20    21   ar
     5    21    24    1
     6    24    25    2
     7    25    26    1
     8    26    27    2
     9    27    28    1
    10    28    29    2
    11    29    30    1
    12    30    31    2
    13    31    32    1
    14    21    22   ar
    15    22     1    1
    16     1     2   ar
    17     2     3   ar
    18     3     4   ar
    19     4     7    1
    20     7     8   am
    21     8     9    2
    22     8    10   am
    23    10    13    1
    24    13    14   ar
    25    14    15   ar
    26    15    16   ar
    27    16    17   ar
    28    17    18   ar
    29     4     5   ar
    30     5     6   ar
    31    22    23   ar
    32    23    19   ar
    33    32    24    1
    34     6     1   ar
    35    32    28    1
    36    18    13   ar
    37     7    11    1
    38    10    12    1
@<TRIPOS>MOLECULE
*****
 34 38 0 0 0
SMALL
GASTEIGER

@<TRIPOS>ATOM
      1 C           4.0889   -0.7708   22.5105 C.ar    1  UNL1        0.0195
      2 C           4.0910   -2.2364   22.8297 C.ar    1  UNL1        0.0028
      3 C           5.0979   -2.7930   23.7921 C.ar    1  UNL1        0.0148
      4 C           6.1027   -1.8840   24.4354 C.ar    1  UNL1        0.0516
      5 C           6.1007   -0.4183   24.1163 C.ar    1  UNL1        0.0148
      6 C           5.0938    0.1383   23.1538 C.ar    1  UNL1        0.0028
      7 N           7.1097   -2.4406   25.3979 N.am    1  UNL1       -0.2681
      8 C           6.7355   -2.6542   26.8346 C.2     1  UNL1        0.3082
      9 O           5.3544   -2.3113   27.3090 O.2     1  UNL1       -0.2522
     10 N           7.7424   -3.2108   27.7971 N.am    1  UNL1       -0.2681
     11 H           8.0161   -2.6656   25.0865 H       1  UNL1        0.1564
     12 H           8.6489   -3.4359   27.4858 H       1  UNL1        0.1564
     13 C           7.3682   -3.4245   29.2339 C.ar    1  UNL1        0.0516
     14 C           7.0962   -2.2462   30.1213 C.ar    1  UNL1        0.0147
     15 C           6.7220   -2.4599   31.5580 C.ar    1  UNL1        0.0013
     16 C           6.6198   -3.8519   32.1074 C.ar    1  UNL1        0.0001
     17 C           6.8918   -5.0303   31.2200 C.ar    1  UNL1        0.0013
     18 C           7.2660   -4.8166   29.7832 C.ar    1  UNL1        0.0147
     19 N           1.1228    0.8952   20.6420 N.ar    1  UNL1       -0.2495
     20 C           1.9423    0.3893   19.4920 C.ar    1  UNL1        0.0963
     21 C           3.1532   -0.2963   20.0521 C.ar    1  UNL1        0.0351
     22 C           3.0820   -0.2142   21.5480 C.ar    1  UNL1        0.1020
     23 N           1.8272    0.5222   21.9127 N.ar    1  UNL1       -0.1693
     24 C           4.2438   -0.9494   19.2558 C.2     1  UNL1        0.0003
     25 C           5.3099   -0.1109   18.6153 C.2     1  UNL1        0.0472
     26 C           6.4004   -0.7639   17.8191 C.2     1  UNL1        0.2354
     27 N           6.4249   -2.2557   17.6632 N.2     1  UNL1       -0.0341
     28 C           5.3588   -3.0942   18.3036 C.2     1  UNL1        0.3593
     29 N           5.1239   -4.5756   18.3236 N.2     1  UNL1       -0.0344
     30 C           3.8881   -4.8380   19.1323 C.2     1  UNL1        0.2320
     31 C           3.3593   -3.5188   19.6121 C.2     1  UNL1        0.0408
     32 C           4.2682   -2.4411   19.0999 C.3     1  UNL1        0.1601
     33 C          -0.4131    2.8501   21.3968 C.3     1  UNL1        0.0284
     34 C          -0.1736    1.6429   20.5393 C.3     1  UNL1        0.1276
@<TRIPOS>BOND
     1    33    34    1
     2    34    19    1
     3    19    20   ar
     4    20    21   ar
     5    21    24    1
     6    24    25    2
     7    25    26    1
     8    26    27    2
     9    27    28    1
    10    28    29    2
    11    29    30    1
    12    30    31    2
    13    31    32    1
    14    21    22   ar
    15    22     1    1
    16     1     2   ar
    17     2     3   ar
    18     3     4   ar
    19     4     7    1
    20     7     8   am
    21     8     9    2
    22     8    10   am
    23    10    13    1
    24    13    14   ar
    25    14    15   ar
    26    15    16   ar
    27    16    17   ar
    28    17    18   ar
    29     4     5   ar
    30     5     6   ar
    31    22    23   ar
    32    23    19   ar
    33    32    24    1
    34     6     1   ar
    35    32    28    1
    36    18    13   ar
    37     7    11    1
    38    10    12    1
@<TRIPOS>MOLECULE
*****
 34 38 0 0 0
SMALL
GASTEIGER

@<TRIPOS>ATOM
      1 C           2.1891    0.4476   21.8708 C.ar    1  UNL1        0.0195
      2 C           1.2768   -0.1855   20.8623 C.ar    1  UNL1        0.0028
      3 C           0.4060    0.6742   19.9948 C.ar    1  UNL1        0.0148
      4 C           0.4474    2.1670   20.1357 C.ar    1  UNL1        0.0516
      5 C           1.3597    2.8001   21.1442 C.ar    1  UNL1        0.0148
      6 C           2.2305    1.9404   22.0118 C.ar    1  UNL1        0.0028
      7 N          -0.4234    3.0267   19.2682 N.am    1  UNL1       -0.2681
      8 C          -1.8541    3.2690   19.6477 C.2     1  UNL1        0.3082
      9 O          -2.4142    2.6516   20.8949 O.2     1  UNL1       -0.2522
     10 N          -2.7249    4.1287   18.7802 N.am    1  UNL1       -0.2681
     11 H          -0.0558    3.4319   18.4497 H       1  UNL1        0.1564
     12 H          -2.3574    4.5340   17.9617 H       1  UNL1        0.1564
     13 C          -4.1558    4.3710   19.1598 C.ar    1  UNL1        0.0516
     14 C          -4.4941    5.4159   20.1815 C.ar    1  UNL1        0.0147
     15 C          -5.9249    5.6581   20.5611 C.ar    1  UNL1        0.0013
     16 C          -7.0174    4.8556   19.9189 C.ar    1  UNL1        0.0001
     17 C          -6.6791    3.8108   18.8972 C.ar    1  UNL1        0.0013
     18 C          -5.2483    3.5685   18.5177 C.ar    1  UNL1        0.0147
     19 N           4.1004   -1.4211   24.6850 N.ar    1  UNL1       -0.2495
     20 C           4.6993   -2.0490   23.4615 C.ar    1  UNL1        0.0963
     21 C           4.0562   -1.4254   22.2584 C.ar    1  UNL1        0.0351
     22 C           3.0599   -0.4122   22.7383 C.ar    1  UNL1        0.1020
     23 N           3.0871   -0.4094   24.2380 N.ar    1  UNL1       -0.1693
     24 C           4.3568   -1.7570   20.8267 C.2     1  UNL1        0.0003
     25 C           3.9458   -3.0845   20.2620 C.2     1  UNL1        0.0472
     26 C           4.2464   -3.4160   18.8304 C.2     1  UNL1        0.2354
     27 N           4.9580   -2.4201   17.9633 N.2     1  UNL1       -0.0341
     28 C           5.3689   -1.0926   18.5279 C.2     1  UNL1        0.3593
     29 N           6.0782    0.0807   17.9194 N.2     1  UNL1       -0.0344
     30 C           6.2159    1.1375   18.9751 C.2     1  UNL1        0.2320
     31 C           5.5918    0.6172   20.2360 C.2     1  UNL1        0.0408
     32 C           5.0683   -0.7610   19.9596 C.3     1  UNL1        0.1601
     33 C           3.5252   -1.3557   27.2178 C.3     1  UNL1        0.0284
     34 C           4.4528   -1.7475   26.1060 C.3     1  UNL1        0.1276
@<TRIPOS>BOND
     1    33    34    1
     2    34    19    1
     3    19    20   ar
     4    20    21   ar
     5    21    24    1
     6    24    25    2
     7    25    26    1
     8    26    27    2
     9    27    28    1
    10    28    29    2
    11    29    30    1
    12    30    31    2
    13    31    32    1
    14    21    22   ar
    15    22     1    1
    16     1     2   ar
    17     2     3   ar
    18     3     4   ar
    19     4     7    1
    20     7     8   am
    21     8     9    2
    22     8    10   am
    23    10    13    1
    24    13    14   ar
    25    14    15   ar
    26    15    16   ar
    27    16    17   ar
    28    17    18   ar
    29     4     5   ar
    30     5     6   ar
    31    22    23   ar
    32    23    19   ar
    33    32    24    1
    34     6     1   ar
    35    32    28    1
    36    18    13   ar
    37     7    11    1
    38    10    12    1
@<TRIPOS>MOLECULE
*****
 34 38 0 0 0
SMALL
GASTEIGER

@<TRIPOS>ATOM
      1 C           5.2710   -0.5413   33.9491 C.ar    1  UNL1        0.0195
      2 C           4.2561   -1.6334   33.7839 C.ar    1  UNL1        0.0028
      3 C           4.6525   -2.9370   33.1566 C.ar    1  UNL1        0.0148
      4 C           6.0638   -3.1484   32.6945 C.ar    1  UNL1        0.0516
      5 C           7.0788   -2.0563   32.8598 C.ar    1  UNL1        0.0148
      6 C           6.6823   -0.7527   33.4871 C.ar    1  UNL1        0.0028
      7 N           6.4603   -4.4520   32.0672 N.am    1  UNL1       -0.2681
      8 C           6.8206   -4.5052   30.6122 C.2     1  UNL1        0.3082
      9 O           6.7845   -3.2548   29.7843 O.2     1  UNL1       -0.2522
     10 N           7.2170   -5.8088   29.9849 N.am    1  UNL1       -0.2681
     11 H           6.4839   -5.2727   32.6105 H       1  UNL1        0.1564
     12 H           7.2407   -6.6295   30.5282 H       1  UNL1        0.1564
     13 C           7.5774   -5.8620   28.5297 C.ar    1  UNL1        0.0516
     14 C           6.5092   -5.7167   27.4867 C.ar    1  UNL1        0.0147
     15 C           6.8696   -5.7699   26.0317 C.ar    1  UNL1        0.0013
     16 C           8.2982   -5.9684   25.6196 C.ar    1  UNL1        0.0001
     17 C           9.3664   -6.1136   26.6626 C.ar    1  UNL1        0.0013
     18 C           9.0060   -6.0605   28.1176 C.ar    1  UNL1        0.0147
     19 N           4.2534    2.4403   36.2162 N.ar    1  UNL1       -0.2495
     20 C           4.2756    3.0962   34.8673 C.ar    1  UNL1        0.0963
     21 C           4.6595    2.0590   33.8539 C.ar    1  UNL1        0.0351
     22 C           4.8745    0.7623   34.5764 C.ar    1  UNL1        0.1020
     23 N           4.6236    0.9979   36.0364 N.ar    1  UNL1       -0.1693
     24 C           4.8031    2.2800   32.3772 C.2     1  UNL1        0.0003
     25 C           6.0055    2.9977   31.8397 C.2     1  UNL1        0.0472
     26 C           6.1491    3.2186   30.3631 C.2     1  UNL1        0.2354
     27 N           5.0902    2.7218   29.4239 N.2     1  UNL1       -0.0341
     28 C           3.8878    2.0041   29.9614 C.2     1  UNL1        0.3593
     29 N           2.6905    1.4055   29.2845 N.2     1  UNL1       -0.0344
     30 C           1.8070    0.8145   30.3429 C.2     1  UNL1        0.2320
     31 C           2.4582    1.0480   31.6739 C.2     1  UNL1        0.0408
     32 C           3.7442    1.7831   31.4381 C.3     1  UNL1        0.1601
     33 C           2.9003    2.5008   38.4333 C.3     1  UNL1        0.0284
     34 C           3.9196    3.1095   37.5165 C.3     1  UNL1        0.1276
@<TRIPOS>BOND
     1    33    34    1
     2    34    19    1
     3    19    20   ar
     4    20    21   ar
     5    21    24    1
     6    24    25    2
     7    25    26    1
     8    26    27    2
     9    27    28    1
    10    28    29    2
    11    29    30    1
    12    30    31    2
    13    31    32    1
    14    21    22   ar
    15    22     1    1
    16     1     2   ar
    17     2     3   ar
    18     3     4   ar
    19     4     7    1
    20     7     8   am
    21     8     9    2
    22     8    10   am
    23    10    13    1
    24    13    14   ar
    25    14    15   ar
    26    15    16   ar
    27    16    17   ar
    28    17    18   ar
    29     4     5   ar
    30     5     6   ar
    31    22    23   ar
    32    23    19   ar
    33    32    24    1
    34     6     1   ar
    35    32    28    1
    36    18    13   ar
    37     7    11    1
    38    10    12    1
@<TRIPOS>MOLECULE
*****
 34 38 0 0 0
SMALL
GASTEIGER

@<TRIPOS>ATOM
      1 C           2.7982    0.2642   19.2291 C.ar    1  UNL1        0.0195
      2 C           2.9506    1.0931   20.4699 C.ar    1  UNL1        0.0028
      3 C           2.0587    2.2780   20.6946 C.ar    1  UNL1        0.0148
      4 C           1.0144    2.6340   19.6784 C.ar    1  UNL1        0.0516
      5 C           0.8620    1.8051   18.4375 C.ar    1  UNL1        0.0148
      6 C           1.7539    0.6202   18.2128 C.ar    1  UNL1        0.0028
      7 N           0.1225    3.8189   19.9030 N.am    1  UNL1       -0.2681
      8 C          -1.2628    3.6231   20.4440 C.2     1  UNL1        0.3082
      9 O          -1.7562    2.2423   20.7604 O.2     1  UNL1       -0.2522
     10 N          -2.1547    4.8080   20.6687 N.am    1  UNL1       -0.2681
     11 H           0.4463    4.7252   19.6954 H       1  UNL1        0.1564
     12 H          -1.8309    5.7143   20.4611 H       1  UNL1        0.1564
     13 C          -3.5400    4.6121   21.2097 C.ar    1  UNL1        0.0516
     14 C          -4.7074    4.5329   20.2713 C.ar    1  UNL1        0.0147
     15 C          -6.0926    4.3370   20.8123 C.ar    1  UNL1        0.0013
     16 C          -6.3104    4.2204   22.2918 C.ar    1  UNL1        0.0001
     17 C          -5.1430    4.2996   23.2303 C.ar    1  UNL1        0.0013
     18 C          -3.7578    4.4955   22.6892 C.ar    1  UNL1        0.0147
     19 N           4.5188   -3.1996   18.9024 N.ar    1  UNL1       -0.2495
     20 C           5.6063   -2.2886   18.4151 C.ar    1  UNL1        0.0963
     21 C           5.0941   -0.8801   18.4781 C.ar    1  UNL1        0.0351
     22 C           3.6901   -0.9207   19.0044 C.ar    1  UNL1        0.1020
     23 N           3.3345   -2.3541   19.2666 N.ar    1  UNL1       -0.1693
     24 C           5.8528    0.3524   18.0841 C.2     1  UNL1        0.0003
     25 C           5.9437    0.7475   16.6399 C.2     1  UNL1        0.0472
     26 C           6.7023    1.9799   16.2459 C.2     1  UNL1        0.2354
     27 N           7.3701    2.8175   17.2960 N.2     1  UNL1       -0.0341
     28 C           7.2792    2.4224   18.7401 C.2     1  UNL1        0.3593
     29 N           7.8304    3.0462   19.9879 N.2     1  UNL1       -0.0344
     30 C           7.4123    2.1992   21.1532 C.2     1  UNL1        0.2320
     31 C           6.6028    1.0519   20.6256 C.2     1  UNL1        0.0408
     32 C           6.5205    1.1899   19.1342 C.3     1  UNL1        0.1601
     33 C           3.5458   -5.4523   19.7558 C.3     1  UNL1        0.0284
     34 C           4.6012   -4.6936   19.0071 C.3     1  UNL1        0.1276
@<TRIPOS>BOND
     1    33    34    1
     2    34    19    1
     3    19    20   ar
     4    20    21   ar
     5    21    24    1
     6    24    25    2
     7    25    26    1
     8    26    27    2
     9    27    28    1
    10    28    29    2
    11    29    30    1
    12    30    31    2
    13    31    32    1
    14    21    22   ar
    15    22     1    1
    16     1     2   ar
    17     2     3   ar
    18     3     4   ar
    19     4     7    1
    20     7     8   am
    21     8     9    2
    22     8    10   am
    23    10    13    1
    24    13    14   ar
    25    14    15   ar
    26    15    16   ar
    27    16    17   ar
    28    17    18   ar
    29     4     5   ar
    30     5     6   ar
    31    22    23   ar
    32    23    19   ar
    33    32    24    1
    34     6     1   ar
    35    32    28    1
    36    18    13   ar
    37     7    11    1
    38    10    12    1
@<TRIPOS>MOLECULE
*****
 34 38 0 0 0
SMALL
GASTEIGER

@<TRIPOS>ATOM
      1 C           4.4594   -0.3246   28.3718 C.ar    1  UNL1        0.0195
      2 C           3.4384   -0.8018   27.3820 C.ar    1  UNL1        0.0028
      3 C           3.7242   -0.7211   25.9117 C.ar    1  UNL1        0.0148
      4 C           5.0310   -0.1632   25.4312 C.ar    1  UNL1        0.0516
      5 C           6.0521    0.3140   26.4211 C.ar    1  UNL1        0.0148
      6 C           5.7663    0.2333   27.8914 C.ar    1  UNL1        0.0028
      7 N           5.3169   -0.0825   23.9609 N.am    1  UNL1       -0.2681
      8 C           5.0119   -1.2518   23.0723 C.2     1  UNL1        0.3082
      9 O           4.4210   -2.5019   23.6540 O.2     1  UNL1       -0.2522
     10 N           5.2977   -1.1711   21.6020 N.am    1  UNL1       -0.2681
     11 H           5.7046    0.7379   23.5792 H       1  UNL1        0.1564
     12 H           5.6855   -0.3507   21.2202 H       1  UNL1        0.1564
     13 C           4.9927   -2.3405   20.7134 C.ar    1  UNL1        0.0516
     14 C           3.6444   -2.4598   20.0671 C.ar    1  UNL1        0.0147
     15 C           3.3394   -3.6291   19.1786 C.ar    1  UNL1        0.0013
     16 C           4.3828   -4.6792   18.9363 C.ar    1  UNL1        0.0001
     17 C           5.7312   -4.5599   19.5825 C.ar    1  UNL1        0.0013
     18 C           6.0361   -3.3905   20.4711 C.ar    1  UNL1        0.0147
     19 N           4.2488   -1.0700   32.1751 N.ar    1  UNL1       -0.2495
     20 C           3.2186    0.0111   32.0342 C.ar    1  UNL1        0.0963
     21 C           3.1721    0.4219   30.5923 C.ar    1  UNL1        0.0351
     22 C           4.1735   -0.4053   29.8421 C.ar    1  UNL1        0.1020
     23 N           4.8390   -1.3273   30.8203 N.ar    1  UNL1       -0.1693
     24 C           2.2806    1.4750   30.0039 C.2     1  UNL1        0.0003
     25 C           2.6733    2.9204   30.0840 C.2     1  UNL1        0.0472
     26 C           1.7818    3.9735   29.4957 C.2     1  UNL1        0.2354
     27 N           0.4976    3.5812   28.8271 N.2     1  UNL1       -0.0341
     28 C           0.1049    2.1358   28.7470 C.2     1  UNL1        0.3593
     29 N          -1.0914    1.4521   28.1541 N.2     1  UNL1       -0.0344
     30 C          -0.9393   -0.0235   28.3761 C.2     1  UNL1        0.2320
     31 C           0.3511   -0.2519   29.1061 C.2     1  UNL1        0.0408
     32 C           0.9964    1.0827   29.3354 C.3     1  UNL1        0.1601
     33 C           4.7235   -0.9968   34.7284 C.3     1  UNL1        0.0284
     34 C           4.6231   -1.7708   33.4474 C.3     1  UNL1        0.1276
@<TRIPOS>BOND
     1    33    34    1
     2    34    19    1
     3    19    20   ar
     4    20    21   ar
     5    21    24    1
     6    24    25    2
     7    25    26    1
     8    26    27    2
     9    27    28    1
    10    28    29    2
    11    29    30    1
    12    30    31    2
    13    31    32    1
    14    21    22   ar
    15    22     1    1
    16     1     2   ar
    17     2     3   ar
    18     3     4   ar
    19     4     7    1
    20     7     8   am
    21     8     9    2
    22     8    10   am
    23    10    13    1
    24    13    14   ar
    25    14    15   ar
    26    15    16   ar
    27    16    17   ar
    28    17    18   ar
    29     4     5   ar
    30     5     6   ar
    31    22    23   ar
    32    23    19   ar
    33    32    24    1
    34     6     1   ar
    35    32    28    1
    36    18    13   ar
    37     7    11    1
    38    10    12    1
