@<TRIPOS>MOLECULE
*****
 23 25 0 0 0
SMALL
GASTEIGER

@<TRIPOS>ATOM
      1 C          -9.4826  -17.7175   23.9714 C.3     1  UNL1        0.0061
      2 C          -9.7393  -18.3600   22.6405 C.3     1  UNL1        0.0373
      3 C         -10.4837  -18.9701   21.4900 C.3     1  UNL1        0.0075
      4 C          -9.7348  -19.4506   20.2824 C.3     1  UNL1        0.0219
      5 C          -8.2415  -19.3212   20.2254 C.3     1  UNL1        0.0950
      6 N          -7.4971  -18.7112   21.3759 N.am    1  UNL1       -0.2637
      7 C          -6.0038  -18.5817   21.3189 C.2     1  UNL1        0.3077
      8 O          -5.2594  -17.9717   22.4695 O.2     1  UNL1       -0.2522
      9 N          -5.2549  -19.0623   20.1114 N.am    1  UNL1       -0.2680
     10 C          -8.2460  -18.2306   22.5835 C.3     1  UNL1        0.0989
     11 H          -5.7434  -19.4627   19.3562 H       1  UNL1        0.1564
     12 C         -11.1435  -18.2663   23.1598 C.ar    1  UNL1       -0.0212
     13 C         -12.1961  -17.5650   22.3534 C.ar    1  UNL1       -0.0042
     14 C         -13.6002  -17.4713   22.8727 C.ar    1  UNL1       -0.0003
     15 C         -13.9517  -18.0789   24.1983 C.ar    1  UNL1       -0.0000
     16 C         -12.8992  -18.7803   25.0046 C.ar    1  UNL1       -0.0003
     17 C         -11.4951  -18.8740   24.4853 C.ar    1  UNL1       -0.0042
     18 C          -3.7616  -18.9328   20.0544 C.ar    1  UNL1        0.0547
     19 C          -2.9044  -19.7111   21.0082 C.ar    1  UNL1        0.0354
     20 C          -1.4112  -19.5817   20.9514 C.ar    1  UNL1        0.1002
     21 N          -0.7749  -18.6739   19.9407 N.ar    1  UNL1       -0.2422
     22 C          -1.6320  -17.8957   18.9870 C.ar    1  UNL1        0.1002
     23 C          -3.1254  -18.0251   19.0439 C.ar    1  UNL1        0.0354
@<TRIPOS>BOND
     1     1     2    1
     2     2    12    1
     3    12    13   ar
     4    13    14   ar
     5    14    15   ar
     6    15    16   ar
     7    16    17   ar
     8     2     3    1
     9     3     4    1
    10     4     5    1
    11     5     6    1
    12     6     7   am
    13     7     8    2
    14     7     9   am
    15     9    18    1
    16    18    19   ar
    17    19    20   ar
    18    20    21   ar
    19    21    22   ar
    20    22    23   ar
    21     6    10    1
    22    10     2    1
    23    17    12   ar
    24    23    18   ar
    25     9    11    1
@<TRIPOS>MOLECULE
*****
 23 25 0 0 0
SMALL
GASTEIGER

@<TRIPOS>ATOM
      1 C         -10.9538  -17.2462   22.4507 C.3     1  UNL1        0.0061
      2 C         -10.5730  -18.5429   23.1015 C.3     1  UNL1        0.0373
      3 C         -10.6883  -19.8032   23.9066 C.3     1  UNL1        0.0075
      4 C          -9.5072  -20.7179   24.0412 C.3     1  UNL1        0.0219
      5 C          -8.2107  -20.3724   23.3706 C.3     1  UNL1        0.0950
      6 N          -8.0953  -19.1121   22.5654 N.am    1  UNL1       -0.2637
      7 C          -6.7988  -18.7665   21.8948 C.2     1  UNL1        0.3077
      8 O          -6.6835  -17.5062   21.0896 O.2     1  UNL1       -0.2522
      9 N          -5.6177  -19.6813   22.0294 N.am    1  UNL1       -0.2680
     10 C          -9.2765  -18.1973   22.4308 C.3     1  UNL1        0.0989
     11 H          -5.6934  -20.5085   22.5578 H       1  UNL1        0.1564
     12 C         -12.0018  -18.4381   23.5461 C.ar    1  UNL1       -0.0212
     13 C         -13.0636  -18.0308   22.5681 C.ar    1  UNL1       -0.0042
     14 C         -14.4923  -17.9260   23.0127 C.ar    1  UNL1       -0.0003
     15 C         -14.8592  -18.2285   24.4353 C.ar    1  UNL1       -0.0000
     16 C         -13.7974  -18.6357   25.4133 C.ar    1  UNL1       -0.0003
     17 C         -12.3687  -18.7405   24.9687 C.ar    1  UNL1       -0.0042
     18 C          -4.3213  -19.3357   21.3588 C.ar    1  UNL1        0.0547
     19 C          -4.1966  -19.4419   19.8676 C.ar    1  UNL1        0.0354
     20 C          -2.9003  -19.0963   19.1970 C.ar    1  UNL1        0.1002
     21 N          -1.7284  -18.6445   20.0173 N.ar    1  UNL1       -0.2422
     22 C          -1.8531  -18.5383   21.5083 C.ar    1  UNL1        0.1002
     23 C          -3.1495  -18.8840   22.1790 C.ar    1  UNL1        0.0354
@<TRIPOS>BOND
     1     1     2    1
     2     2    12    1
     3    12    13   ar
     4    13    14   ar
     5    14    15   ar
     6    15    16   ar
     7    16    17   ar
     8     2     3    1
     9     3     4    1
    10     4     5    1
    11     5     6    1
    12     6     7   am
    13     7     8    2
    14     7     9   am
    15     9    18    1
    16    18    19   ar
    17    19    20   ar
    18    20    21   ar
    19    21    22   ar
    20    22    23   ar
    21     6    10    1
    22    10     2    1
    23    17    12   ar
    24    23    18   ar
    25     9    11    1
@<TRIPOS>MOLECULE
*****
 23 25 0 0 0
SMALL
GASTEIGER

@<TRIPOS>ATOM
      1 C         -11.5209   -3.4349   18.3449 C.3     1  UNL1        0.0061
      2 C         -12.5941   -4.2331   19.0242 C.3     1  UNL1        0.0373
      3 C         -13.3108   -5.4039   19.6287 C.3     1  UNL1        0.0075
      4 C         -14.6809   -5.2246   20.2124 C.3     1  UNL1        0.0219
      5 C         -15.3342   -3.8744   20.1916 C.3     1  UNL1        0.0950
      6 N         -14.6175   -2.7037   19.5870 N.am    1  UNL1       -0.2637
      7 C         -15.2708   -1.3536   19.5661 C.2     1  UNL1        0.3077
      8 O         -14.5539   -0.1828   18.9616 O.2     1  UNL1       -0.2522
      9 N         -16.6409   -1.1743   20.1498 N.am    1  UNL1       -0.2680
     10 C         -13.2474   -2.8830   19.0033 C.3     1  UNL1        0.0989
     11 H         -17.1113   -1.9427   20.5467 H       1  UNL1        0.1564
     12 C         -11.5680   -5.3060   18.8091 C.ar    1  UNL1       -0.0212
     13 C         -11.9503   -6.5820   18.1193 C.ar    1  UNL1       -0.0042
     14 C         -10.9243   -7.6548   17.9043 C.ar    1  UNL1       -0.0003
     15 C          -9.5160   -7.4517   18.3791 C.ar    1  UNL1       -0.0000
     16 C          -9.1337   -6.1758   19.0689 C.ar    1  UNL1       -0.0003
     17 C         -10.1597   -5.1030   19.2839 C.ar    1  UNL1       -0.0042
     18 C         -17.2941    0.1758   20.1289 C.ar    1  UNL1        0.0547
     19 C         -17.0673    1.1363   21.2587 C.ar    1  UNL1        0.0354
     20 C         -17.7205    2.4863   21.2379 C.ar    1  UNL1        0.1002
     21 N         -18.6004    2.8762   20.0873 N.ar    1  UNL1       -0.2422
     22 C         -18.8272    1.9158   18.9576 C.ar    1  UNL1        0.1002
     23 C         -18.1740    0.5656   18.9784 C.ar    1  UNL1        0.0354
@<TRIPOS>BOND
     1     1     2    1
     2     2    12    1
     3    12    13   ar
     4    13    14   ar
     5    14    15   ar
     6    15    16   ar
     7    16    17   ar
     8     2     3    1
     9     3     4    1
    10     4     5    1
    11     5     6    1
    12     6     7   am
    13     7     8    2
    14     7     9   am
    15     9    18    1
    16    18    19   ar
    17    19    20   ar
    18    20    21   ar
    19    21    22   ar
    20    22    23   ar
    21     6    10    1
    22    10     2    1
    23    17    12   ar
    24    23    18   ar
    25     9    11    1
@<TRIPOS>MOLECULE
*****
 23 25 0 0 0
SMALL
GASTEIGER

@<TRIPOS>ATOM
      1 C          -4.4046  -17.7396   22.5034 C.3     1  UNL1        0.0061
      2 C          -5.0027  -18.6050   21.4340 C.3     1  UNL1        0.0373
      3 C          -5.1009  -19.4775   20.2179 C.3     1  UNL1        0.0075
      4 C          -6.4305  -20.0287   19.7957 C.3     1  UNL1        0.0219
      5 C          -7.6620  -19.7073   20.5897 C.3     1  UNL1        0.0950
      6 N          -7.5637  -18.8347   21.8058 N.am    1  UNL1       -0.2637
      7 C          -8.7952  -18.5133   22.5997 C.2     1  UNL1        0.3077
      8 O          -8.6969  -17.6407   23.8158 O.2     1  UNL1       -0.2522
      9 N         -10.1248  -19.0645   22.1775 N.am    1  UNL1       -0.2680
     10 C          -6.2341  -18.2835   22.2280 C.3     1  UNL1        0.0989
     11 H         -10.1893  -19.6372   21.3793 H       1  UNL1        0.1564
     12 C          -3.5635  -18.6258   21.0115 C.ar    1  UNL1       -0.0212
     13 C          -2.4951  -18.9731   22.0053 C.ar    1  UNL1       -0.0042
     14 C          -1.0560  -18.9940   21.5827 C.ar    1  UNL1       -0.0003
     15 C          -0.6854  -18.6675   20.1664 C.ar    1  UNL1       -0.0000
     16 C          -1.7539  -18.3202   19.1726 C.ar    1  UNL1       -0.0003
     17 C          -3.1929  -18.2994   19.5951 C.ar    1  UNL1       -0.0042
     18 C         -11.3562  -18.7430   22.9715 C.ar    1  UNL1        0.0547
     19 C         -12.4762  -17.9712   22.3389 C.ar    1  UNL1        0.0354
     20 C         -13.7075  -17.6497   23.1327 C.ar    1  UNL1        0.1002
     21 N         -13.8190  -18.1000   24.5593 N.ar    1  UNL1       -0.2422
     22 C         -12.6991  -18.8718   25.1918 C.ar    1  UNL1        0.1002
     23 C         -11.4676  -19.1933   24.3979 C.ar    1  UNL1        0.0354
@<TRIPOS>BOND
     1     1     2    1
     2     2    12    1
     3    12    13   ar
     4    13    14   ar
     5    14    15   ar
     6    15    16   ar
     7    16    17   ar
     8     2     3    1
     9     3     4    1
    10     4     5    1
    11     5     6    1
    12     6     7   am
    13     7     8    2
    14     7     9   am
    15     9    18    1
    16    18    19   ar
    17    19    20   ar
    18    20    21   ar
    19    21    22   ar
    20    22    23   ar
    21     6    10    1
    22    10     2    1
    23    17    12   ar
    24    23    18   ar
    25     9    11    1
@<TRIPOS>MOLECULE
*****
 23 25 0 0 0
SMALL
GASTEIGER

@<TRIPOS>ATOM
      1 C         -13.3979   -5.4602   19.2120 C.3     1  UNL1        0.0061
      2 C         -12.5407   -4.2688   18.9023 C.3     1  UNL1        0.0373
      3 C         -11.3348   -3.4591   18.5282 C.3     1  UNL1        0.0075
      4 C         -11.4307   -1.9644   18.4470 C.3     1  UNL1        0.0219
      5 C         -12.7327   -1.2794   18.7399 C.3     1  UNL1        0.0950
      6 N         -13.9386   -2.0891   19.1140 N.am    1  UNL1       -0.2637
      7 C         -15.2406   -1.4041   19.4069 C.2     1  UNL1        0.3077
      8 O         -16.4465   -2.2139   19.7810 O.2     1  UNL1       -0.2522
      9 N         -15.3365    0.0906   19.3257 N.am    1  UNL1       -0.2680
     10 C         -13.8427   -3.5838   19.1952 C.3     1  UNL1        0.0989
     11 H         -14.5450    0.6221   19.0802 H       1  UNL1        0.1564
     12 C         -11.5365   -5.3676   18.7170 C.ar    1  UNL1       -0.0212
     13 C         -11.9032   -6.5951   17.9369 C.ar    1  UNL1       -0.0042
     14 C         -10.8990   -7.6938   17.7516 C.ar    1  UNL1       -0.0003
     15 C          -9.5280   -7.5649   18.3464 C.ar    1  UNL1       -0.0000
     16 C          -9.1612   -6.3374   19.1264 C.ar    1  UNL1       -0.0003
     17 C         -10.1655   -5.2387   19.3117 C.ar    1  UNL1       -0.0042
     18 C         -16.6385    0.7755   19.6186 C.ar    1  UNL1        0.0547
     19 C         -17.5135    1.2369   18.4909 C.ar    1  UNL1        0.0354
     20 C         -18.8154    1.9217   18.7837 C.ar    1  UNL1        0.1002
     21 N         -19.2424    2.1453   20.2042 N.ar    1  UNL1       -0.2422
     22 C         -18.3675    1.6839   21.3319 C.ar    1  UNL1        0.1002
     23 C         -17.0655    0.9990   21.0390 C.ar    1  UNL1        0.0354
@<TRIPOS>BOND
     1     1     2    1
     2     2    12    1
     3    12    13   ar
     4    13    14   ar
     5    14    15   ar
     6    15    16   ar
     7    16    17   ar
     8     2     3    1
     9     3     4    1
    10     4     5    1
    11     5     6    1
    12     6     7   am
    13     7     8    2
    14     7     9   am
    15     9    18    1
    16    18    19   ar
    17    19    20   ar
    18    20    21   ar
    19    21    22   ar
    20    22    23   ar
    21     6    10    1
    22    10     2    1
    23    17    12   ar
    24    23    18   ar
    25     9    11    1
@<TRIPOS>MOLECULE
*****
 23 25 0 0 0
SMALL
GASTEIGER

@<TRIPOS>ATOM
      1 C           3.2232   -0.1124   22.4657 C.3     1  UNL1        0.0061
      2 C           3.6614   -1.3960   21.8251 C.3     1  UNL1        0.0373
      3 C           3.8440   -2.4622   20.7861 C.3     1  UNL1        0.0075
      4 C           4.6104   -3.7085   21.1169 C.3     1  UNL1        0.0219
      5 C           5.1941   -3.8886   22.4869 C.3     1  UNL1        0.0950
      6 N           5.0115   -2.8223   23.5260 N.am    1  UNL1       -0.2637
      7 C           5.5953   -3.0023   24.8960 C.2     1  UNL1        0.3077
      8 O           5.4126   -1.9360   25.9350 O.2     1  UNL1       -0.2522
      9 N           6.3616   -4.2486   25.2269 N.am    1  UNL1       -0.2680
     10 C           4.2452   -1.5760   23.1951 C.3     1  UNL1        0.0989
     11 H           6.4815   -4.9485   24.5449 H       1  UNL1        0.1564
     12 C           2.9255   -0.7702   20.6776 C.ar    1  UNL1       -0.0212
     13 C           1.4786   -0.4033   20.8252 C.ar    1  UNL1       -0.0042
     14 C           0.7427    0.2225   19.6778 C.ar    1  UNL1       -0.0003
     15 C           1.4537    0.4815   18.3826 C.ar    1  UNL1       -0.0000
     16 C           2.9006    0.1146   18.2350 C.ar    1  UNL1       -0.0003
     17 C           3.6365   -0.5112   19.3825 C.ar    1  UNL1       -0.0042
     18 C           6.9453   -4.4286   26.5968 C.ar    1  UNL1        0.0547
     19 C           8.2528   -3.7814   26.9459 C.ar    1  UNL1        0.0354
     20 C           8.8365   -3.9613   28.3158 C.ar    1  UNL1        0.1002
     21 N           8.1129   -4.7883   29.3368 N.ar    1  UNL1       -0.2422
     22 C           6.8055   -5.4355   28.9878 C.ar    1  UNL1        0.1002
     23 C           6.2217   -5.2556   27.6177 C.ar    1  UNL1        0.0354
@<TRIPOS>BOND
     1     1     2    1
     2     2    12    1
     3    12    13   ar
     4    13    14   ar
     5    14    15   ar
     6    15    16   ar
     7    16    17   ar
     8     2     3    1
     9     3     4    1
    10     4     5    1
    11     5     6    1
    12     6     7   am
    13     7     8    2
    14     7     9   am
    15     9    18    1
    16    18    19   ar
    17    19    20   ar
    18    20    21   ar
    19    21    22   ar
    20    22    23   ar
    21     6    10    1
    22    10     2    1
    23    17    12   ar
    24    23    18   ar
    25     9    11    1
