@<TRIPOS>MOLECULE
*****
 35 38 0 0 0
SMALL
GASTEIGER

@<TRIPOS>ATOM
      1 N           6.4048   -2.1361   22.6370 N.am    1  UNL1       -0.2438
      2 C           5.7055   -0.8497   22.3113 C.3     1  UNL1        0.1009
      3 C           4.6215   -0.8270   21.2748 C.3     1  UNL1        0.0662
      4 C           4.2368   -2.0906   20.5640 C.3     1  UNL1        0.1600
      5 O           4.9362   -3.3770   20.8897 O.3     1  UNL1       -0.4374
      6 C           6.0202   -3.3998   21.9262 C.2     1  UNL1        0.4051
      7 O           6.7195   -4.6861   22.2520 O.2     1  UNL1       -0.2262
      8 C           3.2896   -1.1268   19.9128 C.ar    1  UNL1        0.0138
      9 C           1.8639   -1.0500   20.3727 C.ar    1  UNL1       -0.0010
     10 C           0.9167   -0.0862   19.7216 C.ar    1  UNL1       -0.0002
     11 C           1.3953    0.8007   18.6106 C.ar    1  UNL1       -0.0000
     12 C           2.8209    0.7240   18.1507 C.ar    1  UNL1       -0.0002
     13 C           3.7682   -0.2398   18.8018 C.ar    1  UNL1       -0.0010
     14 C           8.9196   -2.3344   23.2588 C.3     1  UNL1        0.0265
     15 C           7.4888   -2.1588   23.6736 C.3     1  UNL1        0.1011
     16 C           7.1420   -2.0060   25.1250 C.ar    1  UNL1       -0.0042
     17 C           7.3254   -0.6814   25.8044 C.ar    1  UNL1       -0.0026
     18 C           6.9786   -0.5286   27.2557 C.ar    1  UNL1        0.0012
     19 C           6.4485   -1.7004   28.0276 C.ar    1  UNL1        0.0176
     20 C           6.2651   -3.0251   27.3481 C.ar    1  UNL1        0.0012
     21 C           6.6119   -3.1778   25.8968 C.ar    1  UNL1       -0.0026
     22 C           6.1017   -1.5476   29.4790 C.ar    1  UNL1        0.0813
     23 C           6.2864   -2.7012   30.4197 C.ar    1  UNL1        0.0198
     24 C           5.9396   -2.5484   31.8711 C.ar    1  UNL1        0.0134
     25 C           5.4081   -1.2419   32.3817 C.ar    1  UNL1        0.0876
     26 C           5.2234   -0.0883   31.4408 C.ar    1  UNL1        0.1090
     27 N           5.5702   -0.2412   29.9895 N.ar    1  UNL1       -0.2431
     28 C           5.0613   -1.0891   33.8330 C.1     1  UNL1        0.1020
     29 N           4.7145   -0.9362   35.2843 N.1     1  UNL1       -0.1908
     30 C           3.5232   -3.0195   19.6270 C.3     1  UNL1        0.0714
     31 C           4.2352   -4.2169   19.0711 C.3     1  UNL1        0.0922
     32 C           3.3010   -5.1203   19.8203 C.3     1  UNL1        0.0294
     33 C           5.1694   -3.3136   18.3220 C.3     1  UNL1        0.0294
     34 O           4.9472   -5.4145   18.5153 O.3     1  UNL1       -0.3866
     35 H           4.5311   -6.2233   18.8522 H       1  UNL1        0.2102
@<TRIPOS>BOND
     1    15    14    1
     2    15    16    1
     3    16    17   ar
     4    17    18   ar
     5    18    19   ar
     6    19    22    1
     7    22    23   ar
     8    23    24   ar
     9    24    25   ar
    10    25    28    1
    11    28    29    3
    12    25    26   ar
    13    26    27   ar
    14    19    20   ar
    15    20    21   ar
    16    15     1    1
    17     1     2    1
    18     2     3    1
    19     3     4    1
    20     4    30    1
    21    30    31    1
    22    31    32    1
    23    31    33    1
    24    31    34    1
    25     4     8    1
    26     8     9   ar
    27     9    10   ar
    28    10    11   ar
    29    11    12   ar
    30    12    13   ar
    31     4     5    1
    32     5     6    1
    33     6     7    2
    34    21    16   ar
    35     6     1   am
    36    27    22   ar
    37    13     8   ar
    38    34    35    1
@<TRIPOS>MOLECULE
*****
 35 38 0 0 0
SMALL
GASTEIGER

@<TRIPOS>ATOM
      1 N           1.1686    1.6376   19.5409 N.am    1  UNL1       -0.2438
      2 C           0.8723    0.1715   19.6530 C.3     1  UNL1        0.1009
      3 C           1.9875   -0.8029   19.8917 C.3     1  UNL1        0.0662
      4 C           3.3989   -0.3112   20.0184 C.3     1  UNL1        0.1600
      5 O           3.6952    1.1550   19.9063 O.3     1  UNL1       -0.4374
      6 C           2.5801    2.1294   19.6675 C.2     1  UNL1        0.4051
      7 O           2.8763    3.5956   19.5554 O.2     1  UNL1       -0.2262
      8 C           3.6194   -1.7843   20.1959 C.ar    1  UNL1        0.0138
      9 C           4.1627   -2.3106   21.4912 C.ar    1  UNL1       -0.0010
     10 C           4.3832   -3.7837   21.6687 C.ar    1  UNL1       -0.0002
     11 C           4.0603   -4.7303   20.5508 C.ar    1  UNL1       -0.0000
     12 C           3.5170   -4.2041   19.2555 C.ar    1  UNL1       -0.0002
     13 C           3.2965   -2.7310   19.0780 C.ar    1  UNL1       -0.0010
     14 C          -0.1904    3.1496   17.9232 C.3     1  UNL1        0.0265
     15 C           0.0534    2.6120   19.3021 C.3     1  UNL1        0.1011
     16 C          -0.8178    3.0488   20.4424 C.ar    1  UNL1       -0.0042
     17 C          -2.2524    3.4102   20.1945 C.ar    1  UNL1       -0.0026
     18 C          -3.1236    3.8469   21.3348 C.ar    1  UNL1        0.0012
     19 C          -2.5602    3.9224   22.7229 C.ar    1  UNL1        0.0176
     20 C          -1.1257    3.5610   22.9708 C.ar    1  UNL1        0.0012
     21 C          -0.2545    3.1242   21.8306 C.ar    1  UNL1       -0.0026
     22 C          -3.4315    4.3592   23.8632 C.ar    1  UNL1        0.0813
     23 C          -3.4483    3.5706   25.1390 C.ar    1  UNL1        0.0198
     24 C          -4.3196    4.0074   26.2793 C.ar    1  UNL1        0.0134
     25 C          -5.1740    5.2328   26.1436 C.ar    1  UNL1        0.0876
     26 C          -5.1572    6.0214   24.8677 C.ar    1  UNL1        0.1090
     27 N          -4.2859    5.5845   23.7275 N.ar    1  UNL1       -0.2431
     28 C          -6.0453    5.6696   27.2838 C.1     1  UNL1        0.1020
     29 N          -6.9165    6.1064   28.4240 N.1     1  UNL1       -0.1908
     30 C           4.8869   -0.3310   20.2066 C.3     1  UNL1        0.0714
     31 C           5.7468    0.6685   19.4915 C.3     1  UNL1        0.0922
     32 C           5.3421    0.0746   18.1748 C.3     1  UNL1        0.0294
     33 C           6.1514    1.2624   20.8080 C.3     1  UNL1        0.0294
     34 O           6.6066    1.6680   18.7762 O.3     1  UNL1       -0.3866
     35 H           6.5452    1.5213   17.8193 H       1  UNL1        0.2102
@<TRIPOS>BOND
     1    15    14    1
     2    15    16    1
     3    16    17   ar
     4    17    18   ar
     5    18    19   ar
     6    19    22    1
     7    22    23   ar
     8    23    24   ar
     9    24    25   ar
    10    25    28    1
    11    28    29    3
    12    25    26   ar
    13    26    27   ar
    14    19    20   ar
    15    20    21   ar
    16    15     1    1
    17     1     2    1
    18     2     3    1
    19     3     4    1
    20     4    30    1
    21    30    31    1
    22    31    32    1
    23    31    33    1
    24    31    34    1
    25     4     8    1
    26     8     9   ar
    27     9    10   ar
    28    10    11   ar
    29    11    12   ar
    30    12    13   ar
    31     4     5    1
    32     5     6    1
    33     6     7    2
    34    21    16   ar
    35     6     1   am
    36    27    22   ar
    37    13     8   ar
    38    34    35    1
@<TRIPOS>MOLECULE
*****
 35 38 0 0 0
SMALL
GASTEIGER

@<TRIPOS>ATOM
      1 N           3.0028    1.0280   23.0467 N.am    1  UNL1       -0.2438
      2 C           2.9060   -0.4664   22.9614 C.3     1  UNL1        0.1009
      3 C           3.4810   -1.1889   21.7793 C.3     1  UNL1        0.0662
      4 C           4.1529   -0.4171   20.6826 C.3     1  UNL1        0.1600
      5 O           4.2498    1.0774   20.7679 O.3     1  UNL1       -0.4374
      6 C           3.6748    1.8000   21.9500 C.2     1  UNL1        0.4051
      7 O           3.7716    3.2944   22.0353 O.2     1  UNL1       -0.2262
      8 C           4.3081   -1.8117   20.1525 C.ar    1  UNL1        0.0138
      9 C           3.1062   -2.5692   19.6713 C.ar    1  UNL1       -0.0010
     10 C           3.2614   -3.9638   19.1411 C.ar    1  UNL1       -0.0002
     11 C           4.6185   -4.6008   19.0922 C.ar    1  UNL1       -0.0000
     12 C           5.8205   -3.8433   19.5734 C.ar    1  UNL1       -0.0002
     13 C           5.6653   -2.4487   20.1036 C.ar    1  UNL1       -0.0010
     14 C           3.2862    2.0316   25.4263 C.3     1  UNL1        0.0265
     15 C           2.4278    1.7506   24.2287 C.3     1  UNL1        0.1011
     16 C           0.9943    2.1922   24.2132 C.ar    1  UNL1       -0.0042
     17 C           0.1514    2.0472   25.4454 C.ar    1  UNL1       -0.0026
     18 C          -1.2820    2.4887   25.4298 C.ar    1  UNL1        0.0012
     19 C          -1.8725    3.0754   24.1819 C.ar    1  UNL1        0.0176
     20 C          -1.0296    3.2204   22.9497 C.ar    1  UNL1        0.0012
     21 C           0.4038    2.7789   22.9653 C.ar    1  UNL1       -0.0026
     22 C          -3.3060    3.5170   24.1663 C.ar    1  UNL1        0.0813
     23 C          -3.9791    3.9246   25.4433 C.ar    1  UNL1        0.0198
     24 C          -5.4126    4.3662   25.4277 C.ar    1  UNL1        0.0134
     25 C          -6.1729    4.4001   24.1352 C.ar    1  UNL1        0.0876
     26 C          -5.4998    3.9924   22.8581 C.ar    1  UNL1        0.1090
     27 N          -4.0663    3.5509   22.8738 N.ar    1  UNL1       -0.2431
     28 C          -7.6064    4.8417   24.1195 C.1     1  UNL1        0.1020
     29 N          -9.0398    5.2832   24.1039 N.1     1  UNL1       -0.1908
     30 C           4.8787   -0.1296   19.4018 C.3     1  UNL1        0.0714
     31 C           4.6612    1.1742   18.6928 C.3     1  UNL1        0.0922
     32 C           6.0624    1.5910   19.0293 C.3     1  UNL1        0.0294
     33 C           3.2601    0.7575   18.3564 C.3     1  UNL1        0.0294
     34 O           4.4438    2.4781   17.9839 O.3     1  UNL1       -0.3866
     35 H           5.2511    3.0132   18.0362 H       1  UNL1        0.2102
@<TRIPOS>BOND
     1    15    14    1
     2    15    16    1
     3    16    17   ar
     4    17    18   ar
     5    18    19   ar
     6    19    22    1
     7    22    23   ar
     8    23    24   ar
     9    24    25   ar
    10    25    28    1
    11    28    29    3
    12    25    26   ar
    13    26    27   ar
    14    19    20   ar
    15    20    21   ar
    16    15     1    1
    17     1     2    1
    18     2     3    1
    19     3     4    1
    20     4    30    1
    21    30    31    1
    22    31    32    1
    23    31    33    1
    24    31    34    1
    25     4     8    1
    26     8     9   ar
    27     9    10   ar
    28    10    11   ar
    29    11    12   ar
    30    12    13   ar
    31     4     5    1
    32     5     6    1
    33     6     7    2
    34    21    16   ar
    35     6     1   am
    36    27    22   ar
    37    13     8   ar
    38    34    35    1
@<TRIPOS>MOLECULE
*****
 35 38 0 0 0
SMALL
GASTEIGER

@<TRIPOS>ATOM
      1 N           5.6177   -2.1456   23.1994 N.am    1  UNL1       -0.2438
      2 C           4.9104   -0.8840   22.8018 C.3     1  UNL1        0.1009
      3 C           4.0675   -0.8559   21.5613 C.3     1  UNL1        0.0662
      4 C           3.9319   -2.0892   20.7185 C.3     1  UNL1        0.1600
      5 O           4.6392   -3.3509   21.1162 O.3     1  UNL1       -0.4374
      6 C           5.4821   -3.3790   22.3566 C.2     1  UNL1        0.4051
      7 O           6.1894   -4.6406   22.7543 O.2     1  UNL1       -0.2262
      8 C           3.0740   -1.1417   19.9335 C.ar    1  UNL1        0.0138
      9 C           1.6547   -0.8938   20.3507 C.ar    1  UNL1       -0.0010
     10 C           0.7968    0.0538   19.5657 C.ar    1  UNL1       -0.0002
     11 C           1.3583    0.7533   18.3634 C.ar    1  UNL1       -0.0000
     12 C           2.7776    0.5054   17.9462 C.ar    1  UNL1       -0.0002
     13 C           3.6355   -0.4422   18.7313 C.ar    1  UNL1       -0.0010
     14 C           7.8422   -2.7560   24.3948 C.3     1  UNL1        0.0265
     15 C           6.4606   -2.1738   24.4399 C.3     1  UNL1        0.1011
     16 C           5.9219   -1.6196   25.7255 C.ar    1  UNL1       -0.0042
     17 C           6.8439   -0.9403   26.6942 C.ar    1  UNL1       -0.0026
     18 C           6.3051   -0.3863   27.9797 C.ar    1  UNL1        0.0012
     19 C           4.8443   -0.5115   28.2966 C.ar    1  UNL1        0.0176
     20 C           3.9223   -1.1907   27.3279 C.ar    1  UNL1        0.0012
     21 C           4.4611   -1.7448   26.0424 C.ar    1  UNL1       -0.0026
     22 C           4.3055    0.0427   29.5822 C.ar    1  UNL1        0.0813
     23 C           3.8860    1.4806   29.6617 C.ar    1  UNL1        0.0198
     24 C           3.3473    2.0347   30.9473 C.ar    1  UNL1        0.0134
     25 C           3.2280    1.1509   32.1534 C.ar    1  UNL1        0.0876
     26 C           3.6475   -0.2871   32.0738 C.ar    1  UNL1        0.1090
     27 N           4.1863   -0.8412   30.7883 N.ar    1  UNL1       -0.2431
     28 C           2.6893    1.7049   33.4390 C.1     1  UNL1        0.1020
     29 N           2.1505    2.2590   34.7245 N.1     1  UNL1       -0.1908
     30 C           3.4984   -2.9936   19.6031 C.3     1  UNL1        0.0714
     31 C           4.3184   -4.2000   19.2539 C.3     1  UNL1        0.0922
     32 C           3.2654   -5.0878   19.8482 C.3     1  UNL1        0.0294
     33 C           5.3713   -3.3123   18.6596 C.3     1  UNL1        0.0294
     34 O           5.1384   -5.4065   18.9048 O.3     1  UNL1       -0.3866
     35 H           4.6731   -6.2078   19.1919 H       1  UNL1        0.2102
@<TRIPOS>BOND
     1    15    14    1
     2    15    16    1
     3    16    17   ar
     4    17    18   ar
     5    18    19   ar
     6    19    22    1
     7    22    23   ar
     8    23    24   ar
     9    24    25   ar
    10    25    28    1
    11    28    29    3
    12    25    26   ar
    13    26    27   ar
    14    19    20   ar
    15    20    21   ar
    16    15     1    1
    17     1     2    1
    18     2     3    1
    19     3     4    1
    20     4    30    1
    21    30    31    1
    22    31    32    1
    23    31    33    1
    24    31    34    1
    25     4     8    1
    26     8     9   ar
    27     9    10   ar
    28    10    11   ar
    29    11    12   ar
    30    12    13   ar
    31     4     5    1
    32     5     6    1
    33     6     7    2
    34    21    16   ar
    35     6     1   am
    36    27    22   ar
    37    13     8   ar
    38    34    35    1
@<TRIPOS>MOLECULE
*****
 35 38 0 0 0
SMALL
GASTEIGER

@<TRIPOS>ATOM
      1 N           2.3455    1.2616   21.8683 N.am    1  UNL1       -0.2438
      2 C           2.1031   -0.2186   21.8539 C.3     1  UNL1        0.1009
      3 C           2.9965   -1.1171   21.0511 C.3     1  UNL1        0.0662
      4 C           4.1322   -0.5354   20.2626 C.3     1  UNL1        0.1600
      5 O           4.3746    0.9448   20.2769 O.3     1  UNL1       -0.4374
      6 C           3.4812    1.8433   21.0798 C.2     1  UNL1        0.4051
      7 O           3.7235    3.3235   21.0941 O.2     1  UNL1       -0.2262
      8 C           4.3052   -1.9890   19.9349 C.ar    1  UNL1        0.0138
      9 C           5.6404   -2.6463   20.1224 C.ar    1  UNL1       -0.0010
     10 C           5.8134   -4.0999   19.7947 C.ar    1  UNL1       -0.0002
     11 C           4.6511   -4.8960   19.2795 C.ar    1  UNL1       -0.0000
     12 C           3.3159   -4.2386   19.0920 C.ar    1  UNL1       -0.0002
     13 C           3.1430   -2.7851   19.4197 C.ar    1  UNL1       -0.0010
     14 C           1.8855    2.6309   24.0277 C.3     1  UNL1        0.0265
     15 C           1.4521    2.1601   22.6711 C.3     1  UNL1        0.1011
     16 C           0.1252    2.5877   22.1172 C.ar    1  UNL1       -0.0042
     17 C          -0.9018    3.2025   23.0212 C.ar    1  UNL1       -0.0026
     18 C          -2.2286    3.6302   22.4673 C.ar    1  UNL1        0.0012
     19 C          -2.5283    3.4430   21.0095 C.ar    1  UNL1        0.0176
     20 C          -1.5012    2.8282   20.1056 C.ar    1  UNL1        0.0012
     21 C          -0.1745    2.4006   20.6594 C.ar    1  UNL1       -0.0026
     22 C          -3.8551    3.8706   20.4556 C.ar    1  UNL1        0.0813
     23 C          -4.0390    4.0117   18.9737 C.ar    1  UNL1        0.0198
     24 C          -5.3658    4.4394   18.4198 C.ar    1  UNL1        0.0134
     25 C          -6.5088    4.7259   19.3480 C.ar    1  UNL1        0.0876
     26 C          -6.3249    4.5848   20.8301 C.ar    1  UNL1        0.1090
     27 N          -4.9981    4.1572   21.3838 N.ar    1  UNL1       -0.2431
     28 C          -7.8356    5.1535   18.7942 C.1     1  UNL1        0.1020
     29 N          -9.1623    5.5812   18.2405 N.1     1  UNL1       -0.1908
     30 C           5.3281   -0.4585   19.3603 C.3     1  UNL1        0.0714
     31 C           5.4525    0.6648   18.3742 C.3     1  UNL1        0.0922
     32 C           4.1744    0.2316   17.7193 C.3     1  UNL1        0.0294
     33 C           6.7305    1.0981   19.0290 C.3     1  UNL1        0.0294
     34 O           5.5769    1.7882   17.3880 O.3     1  UNL1       -0.3866
     35 H           4.8245    1.7661   16.7762 H       1  UNL1        0.2102
@<TRIPOS>BOND
     1    15    14    1
     2    15    16    1
     3    16    17   ar
     4    17    18   ar
     5    18    19   ar
     6    19    22    1
     7    22    23   ar
     8    23    24   ar
     9    24    25   ar
    10    25    28    1
    11    28    29    3
    12    25    26   ar
    13    26    27   ar
    14    19    20   ar
    15    20    21   ar
    16    15     1    1
    17     1     2    1
    18     2     3    1
    19     3     4    1
    20     4    30    1
    21    30    31    1
    22    31    32    1
    23    31    33    1
    24    31    34    1
    25     4     8    1
    26     8     9   ar
    27     9    10   ar
    28    10    11   ar
    29    11    12   ar
    30    12    13   ar
    31     4     5    1
    32     5     6    1
    33     6     7    2
    34    21    16   ar
    35     6     1   am
    36    27    22   ar
    37    13     8   ar
    38    34    35    1
@<TRIPOS>MOLECULE
*****
 35 38 0 0 0
SMALL
GASTEIGER

@<TRIPOS>ATOM
      1 N           1.9971    1.0825   21.9145 N.am    1  UNL1       -0.2438
      2 C           1.8798   -0.4116   21.8517 C.3     1  UNL1        0.1009
      3 C           2.8598   -1.2075   21.0416 C.3     1  UNL1        0.0662
      4 C           3.9570   -0.5093   20.2943 C.3     1  UNL1        0.1600
      5 O           4.0743    0.9848   20.3570 O.3     1  UNL1       -0.4374
      6 C           3.0944    1.7807   21.1671 C.2     1  UNL1        0.4051
      7 O           3.2117    3.2748   21.2299 O.2     1  UNL1       -0.2262
      8 C           4.2570   -1.9326   19.9278 C.ar    1  UNL1        0.0138
      9 C           5.6501   -2.4680   20.0776 C.ar    1  UNL1       -0.0010
     10 C           5.9501   -3.8913   19.7111 C.ar    1  UNL1       -0.0002
     11 C           4.8568   -4.7791   19.1948 C.ar    1  UNL1       -0.0000
     12 C           3.4637   -4.2437   19.0449 C.ar    1  UNL1       -0.0002
     13 C           3.1637   -2.8204   19.4114 C.ar    1  UNL1       -0.0010
     14 C          -0.0917    2.6223   22.0412 C.3     1  UNL1        0.0265
     15 C           1.0171    1.8783   22.7246 C.3     1  UNL1        0.1011
     16 C           1.1460    1.9303   24.2182 C.ar    1  UNL1       -0.0042
     17 C           2.2905    2.6682   24.8470 C.ar    1  UNL1       -0.0026
     18 C           2.4194    2.7201   26.3405 C.ar    1  UNL1        0.0012
     19 C           1.4037    2.0341   27.2052 C.ar    1  UNL1        0.0176
     20 C           0.2592    1.2962   26.5764 C.ar    1  UNL1        0.0012
     21 C           0.1303    1.2442   25.0829 C.ar    1  UNL1       -0.0026
     22 C           1.5326    2.0860   28.6988 C.ar    1  UNL1        0.0813
     23 C           1.1585    3.3347   29.4409 C.ar    1  UNL1        0.0198
     24 C           1.2874    3.3867   30.9345 C.ar    1  UNL1        0.0134
     25 C           1.7904    2.1899   31.6860 C.ar    1  UNL1        0.0876
     26 C           2.1645    0.9411   30.9438 C.ar    1  UNL1        0.1090
     27 N           2.0356    0.8892   29.4503 N.ar    1  UNL1       -0.2431
     28 C           1.9193    2.2417   33.1795 C.1     1  UNL1        0.1020
     29 N           2.0482    2.2936   34.6730 N.1     1  UNL1       -0.1908
     30 C           5.1585   -0.3054   19.4196 C.3     1  UNL1        0.0714
     31 C           5.2253    0.8786   18.5012 C.3     1  UNL1        0.0922
     32 C           4.0302    0.3659   17.7533 C.3     1  UNL1        0.0294
     33 C           6.4202    1.3912   19.2489 C.3     1  UNL1        0.0294
     34 O           5.2920    2.0626   17.5826 O.3     1  UNL1       -0.3866
     35 H           4.5778    2.0052   16.9288 H       1  UNL1        0.2102
@<TRIPOS>BOND
     1    15    14    1
     2    15    16    1
     3    16    17   ar
     4    17    18   ar
     5    18    19   ar
     6    19    22    1
     7    22    23   ar
     8    23    24   ar
     9    24    25   ar
    10    25    28    1
    11    28    29    3
    12    25    26   ar
    13    26    27   ar
    14    19    20   ar
    15    20    21   ar
    16    15     1    1
    17     1     2    1
    18     2     3    1
    19     3     4    1
    20     4    30    1
    21    30    31    1
    22    31    32    1
    23    31    33    1
    24    31    34    1
    25     4     8    1
    26     8     9   ar
    27     9    10   ar
    28    10    11   ar
    29    11    12   ar
    30    12    13   ar
    31     4     5    1
    32     5     6    1
    33     6     7    2
    34    21    16   ar
    35     6     1   am
    36    27    22   ar
    37    13     8   ar
    38    34    35    1
@<TRIPOS>MOLECULE
*****
 35 38 0 0 0
SMALL
GASTEIGER

@<TRIPOS>ATOM
      1 N           4.2352    3.0294   34.9931 N.am    1  UNL1       -0.2438
      2 C           5.3523    3.4379   35.9071 C.3     1  UNL1        0.1009
      3 C           5.1178    3.5241   37.3861 C.3     1  UNL1        0.0662
      4 C           3.7662    3.2017   37.9512 C.3     1  UNL1        0.1600
      5 O           2.6491    2.7932   37.0373 O.3     1  UNL1       -0.4374
      6 C           2.8836    2.7070   35.5582 C.2     1  UNL1        0.4051
      7 O           1.7666    2.2986   34.6443 O.2     1  UNL1       -0.2262
      8 C           4.5027    3.5390   39.2137 C.ar    1  UNL1        0.0138
      9 C           3.9024    4.4976   40.1990 C.ar    1  UNL1       -0.0010
     10 C           4.6389    4.8348   41.4615 C.ar    1  UNL1       -0.0002
     11 C           5.9757    4.2134   41.7386 C.ar    1  UNL1       -0.0000
     12 C           6.5760    3.2548   40.7534 C.ar    1  UNL1       -0.0002
     13 C           5.8395    2.9176   39.4909 C.ar    1  UNL1       -0.0010
     14 C           4.2450    4.1469   32.6477 C.3     1  UNL1        0.0265
     15 C           4.4698    2.9432   33.5141 C.3     1  UNL1        0.1011
     16 C           4.9290    1.6533   32.9014 C.ar    1  UNL1       -0.0042
     17 C           3.9625    0.8024   32.1322 C.ar    1  UNL1       -0.0026
     18 C           4.4218   -0.4875   31.5196 C.ar    1  UNL1        0.0012
     19 C           5.8476   -0.9264   31.6762 C.ar    1  UNL1        0.0176
     20 C           6.8141   -0.0754   32.4455 C.ar    1  UNL1        0.0012
     21 C           6.3548    1.2144   33.0581 C.ar    1  UNL1       -0.0026
     22 C           6.3069   -2.2163   31.0636 C.ar    1  UNL1        0.0813
     23 C           6.5719   -3.4080   31.9351 C.ar    1  UNL1        0.0198
     24 C           7.0311   -4.6979   31.3224 C.ar    1  UNL1        0.0134
     25 C           7.2254   -4.7960   29.8383 C.ar    1  UNL1        0.0876
     26 C           6.9603   -3.6042   28.9668 C.ar    1  UNL1        0.1090
     27 N           6.5011   -2.3144   29.5795 N.ar    1  UNL1       -0.2431
     28 C           7.6846   -6.0859   29.2256 C.1     1  UNL1        0.1020
     29 N           8.1438   -7.3757   28.6129 N.1     1  UNL1       -0.1908
     30 C           2.6704    2.9965   38.9548 C.3     1  UNL1        0.0714
     31 C           1.7647    1.8061   38.8434 C.3     1  UNL1        0.0922
     32 C           2.9599    0.9084   38.7179 C.3     1  UNL1        0.0294
     33 C           0.5695    2.7037   38.9690 C.3     1  UNL1        0.0294
     34 O           0.8590    0.6156   38.7321 O.3     1  UNL1       -0.3866
     35 H           1.3925   -0.1882   38.6315 H       1  UNL1        0.2102
@<TRIPOS>BOND
     1    15    14    1
     2    15    16    1
     3    16    17   ar
     4    17    18   ar
     5    18    19   ar
     6    19    22    1
     7    22    23   ar
     8    23    24   ar
     9    24    25   ar
    10    25    28    1
    11    28    29    3
    12    25    26   ar
    13    26    27   ar
    14    19    20   ar
    15    20    21   ar
    16    15     1    1
    17     1     2    1
    18     2     3    1
    19     3     4    1
    20     4    30    1
    21    30    31    1
    22    31    32    1
    23    31    33    1
    24    31    34    1
    25     4     8    1
    26     8     9   ar
    27     9    10   ar
    28    10    11   ar
    29    11    12   ar
    30    12    13   ar
    31     4     5    1
    32     5     6    1
    33     6     7    2
    34    21    16   ar
    35     6     1   am
    36    27    22   ar
    37    13     8   ar
    38    34    35    1
@<TRIPOS>MOLECULE
*****
 35 38 0 0 0
SMALL
GASTEIGER

@<TRIPOS>ATOM
      1 N           6.1420   -3.1228   22.9680 N.am    1  UNL1       -0.2438
      2 C           4.7147   -2.6654   23.0265 C.3     1  UNL1        0.1009
      3 C           4.1551   -1.8113   21.9276 C.3     1  UNL1        0.0662
      4 C           5.0229   -1.4147   20.7703 C.3     1  UNL1        0.1600
      5 O           6.4504   -1.8721   20.7117 O.3     1  UNL1       -0.4374
      6 C           7.0099   -2.7261   21.8106 C.2     1  UNL1        0.4051
      7 O           8.4372   -3.1835   21.7521 O.2     1  UNL1       -0.2262
      8 C           3.7425   -0.7379   20.3797 C.ar    1  UNL1        0.0138
      9 C           2.4394   -1.4708   20.5011 C.ar    1  UNL1       -0.0010
     10 C           1.1590   -0.7940   20.1105 C.ar    1  UNL1       -0.0002
     11 C           1.1818    0.6157   19.5986 C.ar    1  UNL1       -0.0000
     12 C           2.4849    1.3487   19.4771 C.ar    1  UNL1       -0.0002
     13 C           3.7653    0.6719   19.8677 C.ar    1  UNL1       -0.0010
     14 C           7.4153   -5.2536   23.7349 C.3     1  UNL1        0.0265
     15 C           6.7015   -3.9768   24.0669 C.3     1  UNL1        0.1011
     16 C           6.5471   -3.5541   25.4978 C.ar    1  UNL1       -0.0042
     17 C           6.7136   -4.5590   26.5989 C.ar    1  UNL1       -0.0026
     18 C           6.5592   -4.1362   28.0297 C.ar    1  UNL1        0.0012
     19 C           6.2384   -2.7085   28.3595 C.ar    1  UNL1        0.0176
     20 C           6.0720   -1.7036   27.2585 C.ar    1  UNL1        0.0012
     21 C           6.2263   -2.1264   25.8276 C.ar    1  UNL1       -0.0026
     22 C           6.0840   -2.2858   29.7905 C.ar    1  UNL1        0.0813
     23 C           6.4262   -3.2405   30.8956 C.ar    1  UNL1        0.0198
     24 C           6.2718   -2.8177   32.3266 C.ar    1  UNL1        0.0134
     25 C           5.7753   -1.4403   32.6523 C.ar    1  UNL1        0.0876
     26 C           5.4332   -0.4856   31.5470 C.ar    1  UNL1        0.1090
     27 N           5.5875   -0.9083   30.1161 N.ar    1  UNL1       -0.2431
     28 C           5.6209   -1.0175   34.0831 C.1     1  UNL1        0.1020
     29 N           5.4666   -0.5947   35.5140 N.1     1  UNL1       -0.1908
     30 C           5.4461   -0.7829   19.4772 C.3     1  UNL1        0.0714
     31 C           6.2471   -1.5715   18.4840 C.3     1  UNL1        0.0922
     32 C           7.3479   -0.5557   18.5653 C.3     1  UNL1        0.0294
     33 C           5.1464   -2.5872   18.4028 C.3     1  UNL1        0.0294
     34 O           7.0482   -2.3600   17.4908 O.3     1  UNL1       -0.3866
     35 H           7.8920   -1.9107   17.3264 H       1  UNL1        0.2102
@<TRIPOS>BOND
     1    15    14    1
     2    15    16    1
     3    16    17   ar
     4    17    18   ar
     5    18    19   ar
     6    19    22    1
     7    22    23   ar
     8    23    24   ar
     9    24    25   ar
    10    25    28    1
    11    28    29    3
    12    25    26   ar
    13    26    27   ar
    14    19    20   ar
    15    20    21   ar
    16    15     1    1
    17     1     2    1
    18     2     3    1
    19     3     4    1
    20     4    30    1
    21    30    31    1
    22    31    32    1
    23    31    33    1
    24    31    34    1
    25     4     8    1
    26     8     9   ar
    27     9    10   ar
    28    10    11   ar
    29    11    12   ar
    30    12    13   ar
    31     4     5    1
    32     5     6    1
    33     6     7    2
    34    21    16   ar
    35     6     1   am
    36    27    22   ar
    37    13     8   ar
    38    34    35    1
@<TRIPOS>MOLECULE
*****
 35 38 0 0 0
SMALL
GASTEIGER

@<TRIPOS>ATOM
      1 N           2.5215    2.3533   20.3266 N.am    1  UNL1       -0.2438
      2 C           2.5093    1.3151   19.2442 C.3     1  UNL1        0.1009
      3 C           3.2525    0.0259   19.4330 C.3     1  UNL1        0.0662
      4 C           4.0080   -0.2250   20.7043 C.3     1  UNL1        0.1600
      5 O           4.0202    0.8133   21.7869 O.3     1  UNL1       -0.4374
      6 C           3.2770    2.1024   21.5980 C.2     1  UNL1        0.4051
      7 O           3.2892    3.1407   22.6805 O.2     1  UNL1       -0.2262
      8 C           4.2924   -1.5048   19.9754 C.ar    1  UNL1        0.0138
      9 C           3.2517   -2.5836   19.9200 C.ar    1  UNL1       -0.0010
     10 C           3.5361   -3.8634   19.1911 C.ar    1  UNL1       -0.0002
     11 C           4.8613   -4.0643   18.5176 C.ar    1  UNL1       -0.0000
     12 C           5.9020   -2.9855   18.5730 C.ar    1  UNL1       -0.0002
     13 C           5.6175   -1.7057   19.3019 C.ar    1  UNL1       -0.0010
     14 C           2.4373    4.7921   19.4351 C.3     1  UNL1        0.0265
     15 C           1.7783    3.6425   20.1378 C.3     1  UNL1        0.1011
     16 C           0.3760    3.7820   20.6518 C.ar    1  UNL1       -0.0042
     17 C          -0.7660    3.1792   19.8886 C.ar    1  UNL1       -0.0026
     18 C          -2.1682    3.3187   20.4025 C.ar    1  UNL1        0.0012
     19 C          -2.4285    4.0610   21.6798 C.ar    1  UNL1        0.0176
     20 C          -1.2866    4.6637   22.4430 C.ar    1  UNL1        0.0012
     21 C           0.1157    4.5242   21.9290 C.ar    1  UNL1       -0.0026
     22 C          -3.8308    4.2004   22.1938 C.ar    1  UNL1        0.0813
     23 C          -4.0711    4.5419   23.6344 C.ar    1  UNL1        0.0198
     24 C          -5.4734    4.6814   24.1484 C.ar    1  UNL1        0.0134
     25 C          -6.6354    4.4794   23.2217 C.ar    1  UNL1        0.0876
     26 C          -6.3951    4.1379   21.7809 C.ar    1  UNL1        0.1090
     27 N          -4.9928    3.9984   21.2670 N.ar    1  UNL1       -0.2431
     28 C          -8.0377    4.6188   23.7356 C.1     1  UNL1        0.1020
     29 N          -9.4400    4.7583   24.2495 N.1     1  UNL1       -0.1908
     30 C           4.8622   -0.9204   21.7225 C.3     1  UNL1        0.0714
     31 C           4.8092   -0.4976   23.1607 C.3     1  UNL1        0.0922
     32 C           6.1452    0.1685   23.0141 C.3     1  UNL1        0.0294
     33 C           3.4733   -1.1636   23.3072 C.3     1  UNL1        0.0294
     34 O           4.7563   -0.0747   24.5988 O.3     1  UNL1       -0.3866
     35 H           5.5594    0.4225   24.8194 H       1  UNL1        0.2102
@<TRIPOS>BOND
     1    15    14    1
     2    15    16    1
     3    16    17   ar
     4    17    18   ar
     5    18    19   ar
     6    19    22    1
     7    22    23   ar
     8    23    24   ar
     9    24    25   ar
    10    25    28    1
    11    28    29    3
    12    25    26   ar
    13    26    27   ar
    14    19    20   ar
    15    20    21   ar
    16    15     1    1
    17     1     2    1
    18     2     3    1
    19     3     4    1
    20     4    30    1
    21    30    31    1
    22    31    32    1
    23    31    33    1
    24    31    34    1
    25     4     8    1
    26     8     9   ar
    27     9    10   ar
    28    10    11   ar
    29    11    12   ar
    30    12    13   ar
    31     4     5    1
    32     5     6    1
    33     6     7    2
    34    21    16   ar
    35     6     1   am
    36    27    22   ar
    37    13     8   ar
    38    34    35    1
