@<TRIPOS>MOLECULE
*****
 32 36 0 0 0
SMALL
GASTEIGER

@<TRIPOS>ATOM
      1 N          -7.9579  -19.6036   21.4805 N.3     1  UNL1       -0.2679
      2 C          -8.5919  -19.2239   22.7858 C.3     1  UNL1        0.0978
      3 C          -9.4165  -20.2256   23.5386 C.3     1  UNL1        0.0224
      4 C         -10.0504  -19.8458   24.8440 C.3     1  UNL1        0.0065
      5 C          -9.8597  -18.4644   25.3965 C.3     1  UNL1        0.0277
      6 C          -9.0351  -17.4628   24.6437 C.ar    1  UNL1       -0.0073
      7 C          -8.8444  -16.0814   25.1963 C.ar    1  UNL1       -0.0015
      8 C          -8.0197  -15.0797   24.4435 C.ar    1  UNL1        0.0203
      9 C          -7.3858  -15.4594   23.1382 C.ar    1  UNL1        0.0985
     10 N          -7.5765  -16.8408   22.5856 N.ar    1  UNL1       -0.2471
     11 C          -8.4012  -17.8425   23.3384 C.ar    1  UNL1        0.0695
     12 C          -6.6255  -20.2925   21.4661 C.3     1  UNL1        0.0886
     13 C          -0.7106  -17.0048   20.2604 C.ar    1  UNL1       -0.0003
     14 C          -1.1099  -17.7640   19.0300 C.ar    1  UNL1       -0.0003
     15 C          -2.3728  -18.5734   19.0250 C.ar    1  UNL1       -0.0045
     16 C          -3.2363  -18.6236   20.2505 C.ar    1  UNL1       -0.0234
     17 C          -2.8369  -17.8643   21.4809 C.ar    1  UNL1       -0.0103
     18 C          -1.5741  -17.0549   21.4858 C.ar    1  UNL1       -0.0032
     19 C          -3.7004  -17.9144   22.7064 C.3     1  UNL1        0.0953
     20 N          -4.9633  -18.7238   22.7015 N.3     1  UNL1       -0.2934
     21 C          -5.3627  -19.4831   21.4710 C.3     1  UNL1        0.0748
     22 C          -4.4992  -19.4330   20.2455 C.3     1  UNL1        0.0432
     23 H          -5.7264  -18.0802   22.9110 H       1  UNL1        0.1236
     24 C          -8.6564  -19.2945   20.1895 C.3     1  UNL1        0.0725
     25 C         -10.1547  -19.2420   20.1412 C.3     1  UNL1        0.0187
     26 C         -10.8934  -18.1871   20.9102 C.3     1  UNL1        0.0172
     27 C         -12.0002  -18.5769   21.8447 C.3     1  UNL1        0.0028
     28 C         -12.7389  -17.5220   22.6137 C.3     1  UNL1        0.0171
     29 C         -12.3708  -16.0772   22.4483 C.3     1  UNL1        0.0686
     30 N         -11.2640  -15.6875   21.5139 N.3     1  UNL1       -0.2975
     31 C         -10.5253  -16.7424   20.7449 C.3     1  UNL1        0.0686
     32 H         -10.5701  -15.1891   22.0711 H       1  UNL1        0.1232
@<TRIPOS>BOND
     1    13    14   ar
     2    14    15   ar
     3    15    16   ar
     4    16    17   ar
     5    17    18   ar
     6    17    19    1
     7    19    20    1
     8    20    21    1
     9    21    12    1
    10    12     1    1
    11     1    24    1
    12    24    25    1
    13    26    25    1
    14    26    27    1
    15    27    28    1
    16    28    29    1
    17    29    30    1
    18    30    31    1
    19     2     1    1
    20     2     3    1
    21     3     4    1
    22     4     5    1
    23     5     6    1
    24     6     7   ar
    25     7     8   ar
    26     8     9   ar
    27     9    10   ar
    28    10    11   ar
    29    21    22    1
    30    18    13   ar
    31    31    26    1
    32    11     2    1
    33    22    16    1
    34    11     6   ar
    35    20    23    1
    36    30    32    1
@<TRIPOS>MOLECULE
*****
 32 36 0 0 0
SMALL
GASTEIGER

@<TRIPOS>ATOM
      1 N          -8.1805  -18.4806   21.3294 N.3     1  UNL1       -0.2679
      2 C          -9.1254  -18.9858   22.3791 C.3     1  UNL1        0.0978
      3 C          -8.7122  -20.1106   23.2814 C.3     1  UNL1        0.0224
      4 C          -9.6571  -20.6158   24.3312 C.3     1  UNL1        0.0065
      5 C         -11.0151  -19.9963   24.4786 C.3     1  UNL1        0.0277
      6 C         -11.4284  -18.8715   23.5763 C.ar    1  UNL1       -0.0073
      7 C         -12.7864  -18.2519   23.7238 C.ar    1  UNL1       -0.0015
      8 C         -13.1996  -17.1272   22.8215 C.ar    1  UNL1        0.0203
      9 C         -12.2548  -16.6219   21.7717 C.ar    1  UNL1        0.0985
     10 N         -10.8968  -17.2415   21.6243 N.ar    1  UNL1       -0.2471
     11 C         -10.4835  -18.3663   22.5266 C.ar    1  UNL1        0.0695
     12 C          -7.5654  -17.1193   21.4665 C.3     1  UNL1        0.0886
     13 C          -6.8965  -14.8178   27.9089 C.ar    1  UNL1       -0.0003
     14 C          -8.3528  -15.0087   27.6045 C.ar    1  UNL1       -0.0003
     15 C          -8.7779  -15.5072   26.2551 C.ar    1  UNL1       -0.0045
     16 C          -7.7466  -15.8148   25.2102 C.ar    1  UNL1       -0.0234
     17 C          -6.2903  -15.6238   25.5146 C.ar    1  UNL1       -0.0103
     18 C          -5.8653  -15.1253   26.8640 C.ar    1  UNL1       -0.0032
     19 C          -5.2590  -15.9314   24.4697 C.3     1  UNL1        0.0953
     20 N          -5.6840  -16.4299   23.1203 N.3     1  UNL1       -0.2934
     21 C          -7.1404  -16.6208   22.8158 C.3     1  UNL1        0.0748
     22 C          -8.1716  -16.3133   23.8608 C.3     1  UNL1        0.0432
     23 H          -5.2339  -17.3352   22.9856 H       1  UNL1        0.1236
     24 C          -7.8507  -19.3365   20.1425 C.3     1  UNL1        0.0725
     25 C          -6.6411  -20.2230   20.1701 C.3     1  UNL1        0.0187
     26 C          -5.3366  -19.6958   20.6901 C.3     1  UNL1        0.0172
     27 C          -4.2950  -19.1957   19.7335 C.3     1  UNL1        0.0028
     28 C          -2.9905  -18.6685   20.2534 C.3     1  UNL1        0.0171
     29 C          -2.7276  -18.6414   21.7300 C.3     1  UNL1        0.0686
     30 N          -3.7692  -19.1415   22.6865 N.3     1  UNL1       -0.2975
     31 C          -5.0737  -19.6687   22.1666 C.3     1  UNL1        0.0686
     32 H          -3.9926  -18.3660   23.3104 H       1  UNL1        0.1232
@<TRIPOS>BOND
     1    13    14   ar
     2    14    15   ar
     3    15    16   ar
     4    16    17   ar
     5    17    18   ar
     6    17    19    1
     7    19    20    1
     8    20    21    1
     9    21    12    1
    10    12     1    1
    11     1    24    1
    12    24    25    1
    13    26    25    1
    14    26    27    1
    15    27    28    1
    16    28    29    1
    17    29    30    1
    18    30    31    1
    19     2     1    1
    20     2     3    1
    21     3     4    1
    22     4     5    1
    23     5     6    1
    24     6     7   ar
    25     7     8   ar
    26     8     9   ar
    27     9    10   ar
    28    10    11   ar
    29    21    22    1
    30    18    13   ar
    31    31    26    1
    32    11     2    1
    33    22    16    1
    34    11     6   ar
    35    20    23    1
    36    30    32    1
@<TRIPOS>MOLECULE
*****
 32 36 0 0 0
SMALL
GASTEIGER

@<TRIPOS>ATOM
      1 N          -6.0207  -19.1395   21.3687 N.3     1  UNL1       -0.2679
      2 C          -5.4666  -18.2929   22.4760 C.3     1  UNL1        0.0978
      3 C          -4.1471  -18.6418   23.0983 C.3     1  UNL1        0.0224
      4 C          -3.5930  -17.7951   24.2057 C.3     1  UNL1        0.0065
      5 C          -4.3583  -16.5997   24.6907 C.3     1  UNL1        0.0277
      6 C          -5.6778  -16.2509   24.0684 C.ar    1  UNL1       -0.0073
      7 C          -6.4432  -15.0555   24.5533 C.ar    1  UNL1       -0.0015
      8 C          -7.7626  -14.7067   23.9310 C.ar    1  UNL1        0.0203
      9 C          -8.3168  -15.5533   22.8237 C.ar    1  UNL1        0.0985
     10 N          -7.5514  -16.7487   22.3387 N.ar    1  UNL1       -0.2471
     11 C          -6.2320  -17.0975   22.9610 C.ar    1  UNL1        0.0695
     12 C          -7.1941  -20.0378   21.6266 C.3     1  UNL1        0.0886
     13 C         -13.4607  -17.8355   23.3957 C.ar    1  UNL1       -0.0003
     14 C         -12.8396  -18.5403   24.5651 C.ar    1  UNL1       -0.0003
     15 C         -11.4621  -19.1217   24.4452 C.ar    1  UNL1       -0.0045
     16 C         -10.7056  -18.9983   23.1558 C.ar    1  UNL1       -0.0234
     17 C         -11.3267  -18.2935   21.9865 C.ar    1  UNL1       -0.0103
     18 C         -12.7042  -17.7121   22.1064 C.ar    1  UNL1       -0.0032
     19 C         -10.5702  -18.1701   20.6970 C.3     1  UNL1        0.0953
     20 N          -9.1926  -18.7515   20.5771 N.3     1  UNL1       -0.2934
     21 C          -8.5716  -19.4563   21.7465 C.3     1  UNL1        0.0748
     22 C          -9.3281  -19.5797   23.0359 C.3     1  UNL1        0.0432
     23 H          -8.5689  -17.9827   20.3315 H       1  UNL1        0.1236
     24 C          -5.4016  -19.0879   20.0034 C.3     1  UNL1        0.0725
     25 C          -4.1168  -19.8138   19.7346 C.3     1  UNL1        0.0187
     26 C          -2.8107  -19.0800   19.8100 C.3     1  UNL1        0.0172
     27 C          -2.3551  -18.2392   18.6544 C.3     1  UNL1        0.0028
     28 C          -1.0490  -17.5054   18.7298 C.3     1  UNL1        0.0171
     29 C          -0.1986  -17.6124   19.9609 C.3     1  UNL1        0.0686
     30 N          -0.6543  -18.4532   21.1165 N.3     1  UNL1       -0.2975
     31 C          -1.9604  -19.1870   21.0410 C.3     1  UNL1        0.0686
     32 H          -0.7100  -17.8354   21.9262 H       1  UNL1        0.1232
@<TRIPOS>BOND
     1    13    14   ar
     2    14    15   ar
     3    15    16   ar
     4    16    17   ar
     5    17    18   ar
     6    17    19    1
     7    19    20    1
     8    20    21    1
     9    21    12    1
    10    12     1    1
    11     1    24    1
    12    24    25    1
    13    26    25    1
    14    26    27    1
    15    27    28    1
    16    28    29    1
    17    29    30    1
    18    30    31    1
    19     2     1    1
    20     2     3    1
    21     3     4    1
    22     4     5    1
    23     5     6    1
    24     6     7   ar
    25     7     8   ar
    26     8     9   ar
    27     9    10   ar
    28    10    11   ar
    29    21    22    1
    30    18    13   ar
    31    31    26    1
    32    11     2    1
    33    22    16    1
    34    11     6   ar
    35    20    23    1
    36    30    32    1
@<TRIPOS>MOLECULE
*****
 32 36 0 0 0
SMALL
GASTEIGER

@<TRIPOS>ATOM
      1 N          -8.5455  -19.0894   20.4391 N.3     1  UNL1       -0.2679
      2 C          -8.4855  -18.1929   21.6402 C.3     1  UNL1        0.0978
      3 C          -7.8014  -16.8611   21.5486 C.3     1  UNL1        0.0224
      4 C          -7.7414  -15.9646   22.7497 C.3     1  UNL1        0.0065
      5 C          -8.3654  -16.3999   24.0424 C.3     1  UNL1        0.0277
      6 C          -9.0494  -17.7317   24.1341 C.ar    1  UNL1       -0.0073
      7 C          -9.6734  -18.1670   25.4268 C.ar    1  UNL1       -0.0015
      8 C         -10.3574  -19.4988   25.5184 C.ar    1  UNL1        0.0203
      9 C         -10.4175  -20.3953   24.3173 C.ar    1  UNL1        0.0985
     10 N          -9.7935  -19.9600   23.0246 N.ar    1  UNL1       -0.2471
     11 C          -9.1095  -18.6282   22.9330 C.ar    1  UNL1        0.0695
     12 C          -7.3831  -19.9776   20.1072 C.3     1  UNL1        0.0886
     13 C          -0.8609  -17.9329   20.8346 C.ar    1  UNL1       -0.0003
     14 C          -1.2588  -17.8019   19.3944 C.ar    1  UNL1       -0.0003
     15 C          -2.6428  -18.1846   18.9608 C.ar    1  UNL1       -0.0045
     16 C          -3.6289  -18.6984   19.9676 C.ar    1  UNL1       -0.0234
     17 C          -3.2310  -18.8293   21.4078 C.ar    1  UNL1       -0.0103
     18 C          -1.8470  -18.4466   21.8414 C.ar    1  UNL1       -0.0032
     19 C          -4.2172  -19.3431   22.4147 C.3     1  UNL1        0.0953
     20 N          -5.6012  -19.7259   21.9811 N.3     1  UNL1       -0.2934
     21 C          -5.9991  -19.5948   20.5408 C.3     1  UNL1        0.0748
     22 C          -5.0130  -19.0811   19.5340 C.3     1  UNL1        0.0432
     23 H          -6.2483  -19.1493   22.5190 H       1  UNL1        0.1236
     24 C          -9.7680  -19.0978   19.5699 C.3     1  UNL1        0.0725
     25 C         -10.6568  -17.8909   19.5139 C.3     1  UNL1        0.0187
     26 C         -11.3872  -17.4397   20.7440 C.3     1  UNL1        0.0172
     27 C         -12.3051  -18.3853   21.4605 C.3     1  UNL1        0.0028
     28 C         -13.0354  -17.9341   22.6905 C.3     1  UNL1        0.0171
     29 C         -12.8478  -16.5372   23.2040 C.3     1  UNL1        0.0686
     30 N         -11.9300  -15.5916   22.4876 N.3     1  UNL1       -0.2975
     31 C         -11.1996  -16.0429   21.2575 C.3     1  UNL1        0.0686
     32 H         -11.2210  -15.3022   23.1614 H       1  UNL1        0.1232
@<TRIPOS>BOND
     1    13    14   ar
     2    14    15   ar
     3    15    16   ar
     4    16    17   ar
     5    17    18   ar
     6    17    19    1
     7    19    20    1
     8    20    21    1
     9    21    12    1
    10    12     1    1
    11     1    24    1
    12    24    25    1
    13    26    25    1
    14    26    27    1
    15    27    28    1
    16    28    29    1
    17    29    30    1
    18    30    31    1
    19     2     1    1
    20     2     3    1
    21     3     4    1
    22     4     5    1
    23     5     6    1
    24     6     7   ar
    25     7     8   ar
    26     8     9   ar
    27     9    10   ar
    28    10    11   ar
    29    21    22    1
    30    18    13   ar
    31    31    26    1
    32    11     2    1
    33    22    16    1
    34    11     6   ar
    35    20    23    1
    36    30    32    1
@<TRIPOS>MOLECULE
*****
 32 36 0 0 0
SMALL
GASTEIGER

@<TRIPOS>ATOM
      1 N          -8.7798  -19.3247   23.1056 N.3     1  UNL1       -0.2679
      2 C          -8.4773  -17.8644   23.2662 C.3     1  UNL1        0.0978
      3 C          -8.1400  -17.0318   22.0649 C.3     1  UNL1        0.0224
      4 C          -7.8376  -15.5714   22.2256 C.3     1  UNL1        0.0065
      5 C          -7.8724  -14.9436   23.5874 C.3     1  UNL1        0.0277
      6 C          -8.2096  -15.7762   24.7887 C.ar    1  UNL1       -0.0073
      7 C          -8.2444  -15.1485   26.1505 C.ar    1  UNL1       -0.0015
      8 C          -8.5817  -15.9811   27.3518 C.ar    1  UNL1        0.0203
      9 C          -8.8841  -17.4414   27.1912 C.ar    1  UNL1        0.0985
     10 N          -8.8493  -18.0692   25.8294 N.ar    1  UNL1       -0.2471
     11 C          -8.5121  -17.2366   24.6281 C.ar    1  UNL1        0.0695
     12 C          -7.6808  -20.2844   22.7571 C.3     1  UNL1        0.0886
     13 C          -1.8368  -18.1601   19.8270 C.ar    1  UNL1       -0.0003
     14 C          -1.6395  -18.2441   21.3116 C.ar    1  UNL1       -0.0003
     15 C          -2.7688  -18.6858   22.1945 C.ar    1  UNL1       -0.0045
     16 C          -4.0955  -19.0434   21.5928 C.ar    1  UNL1       -0.0234
     17 C          -4.2928  -18.9594   20.1083 C.ar    1  UNL1       -0.0103
     18 C          -3.1635  -18.5177   19.2254 C.ar    1  UNL1       -0.0032
     19 C          -5.6195  -19.3171   19.5066 C.3     1  UNL1        0.0953
     20 N          -6.7489  -19.7587   20.3895 N.3     1  UNL1       -0.2934
     21 C          -6.5515  -19.8427   21.8741 C.3     1  UNL1        0.0748
     22 C          -5.2248  -19.4851   22.4758 C.3     1  UNL1        0.0432
     23 H          -7.0212  -20.6902   20.0755 H       1  UNL1        0.1236
     24 C         -10.1811  -19.8255   23.2936 C.3     1  UNL1        0.0725
     25 C         -11.1367  -19.8321   22.1374 C.3     1  UNL1        0.0187
     26 C         -11.4737  -18.5499   21.4356 C.3     1  UNL1        0.0172
     27 C         -10.9835  -18.3082   20.0387 C.3     1  UNL1        0.0028
     28 C         -11.3206  -17.0260   19.3370 C.3     1  UNL1        0.0171
     29 C         -12.1478  -15.9856   20.0322 C.3     1  UNL1        0.0686
     30 N         -12.6380  -16.2274   21.4290 N.3     1  UNL1       -0.2975
     31 C         -12.3009  -17.5095   22.1308 C.3     1  UNL1        0.0686
     32 H         -13.6557  -16.1672   21.3985 H       1  UNL1        0.1232
@<TRIPOS>BOND
     1    13    14   ar
     2    14    15   ar
     3    15    16   ar
     4    16    17   ar
     5    17    18   ar
     6    17    19    1
     7    19    20    1
     8    20    21    1
     9    21    12    1
    10    12     1    1
    11     1    24    1
    12    24    25    1
    13    26    25    1
    14    26    27    1
    15    27    28    1
    16    28    29    1
    17    29    30    1
    18    30    31    1
    19     2     1    1
    20     2     3    1
    21     3     4    1
    22     4     5    1
    23     5     6    1
    24     6     7   ar
    25     7     8   ar
    26     8     9   ar
    27     9    10   ar
    28    10    11   ar
    29    21    22    1
    30    18    13   ar
    31    31    26    1
    32    11     2    1
    33    22    16    1
    34    11     6   ar
    35    20    23    1
    36    30    32    1
