@<TRIPOS>MOLECULE
*****
 22 24 0 0 0
SMALL
GASTEIGER

@<TRIPOS>ATOM
      1 C         -10.0866  -19.2900   21.1114 C.2     1  UNL1       -0.0420
      2 C          -9.1998  -19.2103   22.3186 C.2     1  UNL1       -0.0239
      3 C          -7.7752  -19.2425   21.8501 C.ar    1  UNL1       -0.0078
      4 C          -6.4730  -19.1939   22.5930 C.ar    1  UNL1        0.0002
      5 C          -5.1772  -19.2450   21.8392 C.ar    1  UNL1        0.0114
      6 C          -5.1835  -19.3445   20.3426 C.ar    1  UNL1        0.0574
      7 CL         -3.8876  -19.3955   19.5888 Cl      1  UNL1       -0.0823
      8 C          -6.4857  -19.3930   19.5997 C.ar    1  UNL1        0.0074
      9 C          -7.7815  -19.3420   20.3534 C.ar    1  UNL1       -0.0176
     10 C          -9.2101  -19.3714   19.8969 C.3     1  UNL1        0.0480
     11 C         -11.5866  -19.2886   21.1177 C.3     1  UNL1        0.0394
     12 C         -12.3353  -17.9889   21.1305 C.3     1  UNL1        0.0765
     13 C         -12.1226  -15.8537   22.5955 C.3     1  UNL1        0.0897
     14 N         -12.5749  -17.2741   22.4273 N.3     1  UNL1       -0.2700
     15 C         -13.2666  -17.9795   23.5559 C.3     1  UNL1        0.0897
     16 C          -9.6572  -19.1152   23.7439 C.3     1  UNL1        0.0733
     17 C          -9.2416  -17.9473   24.5887 C.ar    1  UNL1        0.0849
     18 C          -8.8781  -16.6444   23.9404 C.ar    1  UNL1        0.0185
     19 C          -8.4624  -15.4766   24.7850 C.ar    1  UNL1        0.0238
     20 C          -8.4104  -15.6117   26.2780 C.ar    1  UNL1        0.1222
     21 N          -8.7739  -16.9146   26.9263 N.ar    1  UNL1       -0.1467
     22 N          -9.1895  -18.0824   26.0817 N.ar    1  UNL1       -0.1520
@<TRIPOS>BOND
     1    13    14    1
     2    14    15    1
     3    14    12    1
     4    12    11    1
     5    11     1    1
     6     1     2    2
     7     2    16    1
     8    16    17    1
     9    17    18   ar
    10    18    19   ar
    11    19    20   ar
    12    20    21   ar
    13    21    22   ar
    14     2     3    1
    15     3     4   ar
    16     4     5   ar
    17     5     6   ar
    18     6     7    1
    19     6     8   ar
    20     8     9   ar
    21     9    10    1
    22    10     1    1
    23    22    17   ar
    24     9     3   ar
@<TRIPOS>MOLECULE
*****
 22 24 0 0 0
SMALL
GASTEIGER

@<TRIPOS>ATOM
      1 C          -9.8050  -18.9720   23.1910 C.2     1  UNL1       -0.0420
      2 C          -8.6722  -18.1294   22.6844 C.2     1  UNL1       -0.0239
      3 C          -8.2557  -17.2014   23.7868 C.ar    1  UNL1       -0.0078
      4 C          -7.1924  -16.1461   23.8624 C.ar    1  UNL1        0.0002
      5 C          -7.0046  -15.3598   25.1259 C.ar    1  UNL1        0.0114
      6 C          -7.8801  -15.6289   26.3138 C.ar    1  UNL1        0.0574
      7 CL         -7.6922  -14.8425   27.5773 Cl      1  UNL1       -0.0823
      8 C          -8.9434  -16.6841   26.2382 C.ar    1  UNL1        0.0074
      9 C          -9.1312  -17.4704   24.9747 C.ar    1  UNL1       -0.0176
     10 C         -10.0887  -18.5647   24.6065 C.3     1  UNL1        0.0480
     11 C         -10.5274  -20.0353   22.4178 C.3     1  UNL1        0.0394
     12 C         -11.2733  -19.6769   21.1668 C.3     1  UNL1        0.0765
     13 C         -11.3022  -17.4178   19.8839 C.3     1  UNL1        0.0897
     14 N         -11.8180  -18.2906   20.9894 N.3     1  UNL1       -0.2700
     15 C         -12.8786  -17.7771   21.9176 C.3     1  UNL1        0.0897
     16 C          -8.0627  -18.2021   21.3157 C.3     1  UNL1        0.0733
     17 C          -6.6276  -18.6076   21.1543 C.ar    1  UNL1        0.0849
     18 C          -5.8742  -19.1793   22.3186 C.ar    1  UNL1        0.0185
     19 C          -4.4392  -19.5848   22.1573 C.ar    1  UNL1        0.0238
     20 C          -3.7574  -19.4186   20.8315 C.ar    1  UNL1        0.1222
     21 N          -4.5107  -18.8470   19.6672 N.ar    1  UNL1       -0.1467
     22 N          -5.9458  -18.4415   19.8285 N.ar    1  UNL1       -0.1520
@<TRIPOS>BOND
     1    13    14    1
     2    14    15    1
     3    14    12    1
     4    12    11    1
     5    11     1    1
     6     1     2    2
     7     2    16    1
     8    16    17    1
     9    17    18   ar
    10    18    19   ar
    11    19    20   ar
    12    20    21   ar
    13    21    22   ar
    14     2     3    1
    15     3     4   ar
    16     4     5   ar
    17     5     6   ar
    18     6     7    1
    19     6     8   ar
    20     8     9   ar
    21     9    10    1
    22    10     1    1
    23    22    17   ar
    24     9     3   ar
@<TRIPOS>MOLECULE
*****
 22 24 0 0 0
SMALL
GASTEIGER

@<TRIPOS>ATOM
      1 C          -5.4656  -18.9234   22.2511 C.2     1  UNL1       -0.0420
      2 C          -5.6120  -19.5185   20.8820 C.2     1  UNL1       -0.0239
      3 C          -7.0530  -19.4081   20.4803 C.ar    1  UNL1       -0.0078
      4 C          -7.7837  -19.8259   19.2387 C.ar    1  UNL1        0.0002
      5 C          -9.2585  -19.5804   19.1179 C.ar    1  UNL1        0.0114
      6 C         -10.0026  -18.9171   20.2388 C.ar    1  UNL1        0.0574
      7 CL        -11.4775  -18.6715   20.1180 Cl      1  UNL1       -0.0823
      8 C          -9.2720  -18.4993   21.4803 C.ar    1  UNL1        0.0074
      9 C          -7.7972  -18.7448   21.6011 C.ar    1  UNL1       -0.0176
     10 C          -6.8161  -18.4453   22.6955 C.3     1  UNL1        0.0480
     11 C          -4.1922  -18.8240   23.0376 C.3     1  UNL1        0.0394
     12 C          -3.8637  -17.5606   23.7764 C.3     1  UNL1        0.0765
     13 C          -2.6362  -16.0664   22.0412 C.3     1  UNL1        0.0897
     14 N          -3.7463  -16.2645   23.0304 N.3     1  UNL1       -0.2700
     15 C          -4.7389  -15.1666   23.2736 C.3     1  UNL1        0.0897
     16 C          -4.5108  -20.1187   20.0591 C.3     1  UNL1        0.0733
     17 C          -3.2410  -19.3528   19.8326 C.ar    1  UNL1        0.0849
     18 C          -3.2088  -18.2319   18.8363 C.ar    1  UNL1        0.0185
     19 C          -1.9392  -17.4660   18.6098 C.ar    1  UNL1        0.0238
     20 C          -0.7017  -17.8211   19.3796 C.ar    1  UNL1        0.1222
     21 N          -0.7339  -18.9420   20.3758 N.ar    1  UNL1       -0.1467
     22 N          -2.0036  -19.7079   20.6023 N.ar    1  UNL1       -0.1520
@<TRIPOS>BOND
     1    13    14    1
     2    14    15    1
     3    14    12    1
     4    12    11    1
     5    11     1    1
     6     1     2    2
     7     2    16    1
     8    16    17    1
     9    17    18   ar
    10    18    19   ar
    11    19    20   ar
    12    20    21   ar
    13    21    22   ar
    14     2     3    1
    15     3     4   ar
    16     4     5   ar
    17     5     6   ar
    18     6     7    1
    19     6     8   ar
    20     8     9   ar
    21     9    10    1
    22    10     1    1
    23    22    17   ar
    24     9     3   ar
@<TRIPOS>MOLECULE
*****
 22 24 0 0 0
SMALL
GASTEIGER

@<TRIPOS>ATOM
      1 C          -7.4718  -17.4653   23.2544 C.2     1  UNL1       -0.0420
      2 C          -7.7533  -18.6309   22.3531 C.2     1  UNL1       -0.0239
      3 C          -6.4432  -19.1348   21.8241 C.ar    1  UNL1       -0.0078
      4 C          -6.1029  -20.2610   20.8936 C.ar    1  UNL1        0.0002
      5 C          -4.6715  -20.5331   20.5375 C.ar    1  UNL1        0.0114
      6 C          -3.5803  -19.6790   21.1118 C.ar    1  UNL1        0.0574
      7 CL         -2.1488  -19.9512   20.7557 Cl      1  UNL1       -0.0823
      8 C          -3.9206  -18.5528   22.0423 C.ar    1  UNL1        0.0074
      9 C          -5.3520  -18.2807   22.3984 C.ar    1  UNL1       -0.0176
     10 C          -5.9878  -17.2489   23.2824 C.3     1  UNL1        0.0480
     11 C          -8.4947  -16.6580   23.9972 C.3     1  UNL1        0.0394
     12 C          -8.0705  -15.4597   24.7935 C.3     1  UNL1        0.0765
     13 C          -8.2855  -16.1518   27.2885 C.3     1  UNL1        0.0897
     14 N          -7.4546  -15.6399   26.1493 N.3     1  UNL1       -0.2700
     15 C          -6.0079  -15.3082   26.3659 C.3     1  UNL1        0.0897
     16 C          -9.1071  -19.1937   22.0364 C.3     1  UNL1        0.0733
     17 C         -10.2103  -18.2839   21.5831 C.ar    1  UNL1        0.0849
     18 C         -11.5606  -18.3616   22.2316 C.ar    1  UNL1        0.0185
     19 C         -12.6638  -17.4519   21.7784 C.ar    1  UNL1        0.0238
     20 C         -12.4166  -16.4645   20.6766 C.ar    1  UNL1        0.1222
     21 N         -11.0663  -16.3868   20.0281 N.ar    1  UNL1       -0.1467
     22 N          -9.9631  -17.2965   20.4813 N.ar    1  UNL1       -0.1520
@<TRIPOS>BOND
     1    13    14    1
     2    14    15    1
     3    14    12    1
     4    12    11    1
     5    11     1    1
     6     1     2    2
     7     2    16    1
     8    16    17    1
     9    17    18   ar
    10    18    19   ar
    11    19    20   ar
    12    20    21   ar
    13    21    22   ar
    14     2     3    1
    15     3     4   ar
    16     4     5   ar
    17     5     6   ar
    18     6     7    1
    19     6     8   ar
    20     8     9   ar
    21     9    10    1
    22    10     1    1
    23    22    17   ar
    24     9     3   ar
@<TRIPOS>MOLECULE
*****
 22 24 0 0 0
SMALL
GASTEIGER

@<TRIPOS>ATOM
      1 C          -5.7621  -17.1838   23.3210 C.2     1  UNL1       -0.0420
      2 C          -4.9965  -18.2764   22.6354 C.2     1  UNL1       -0.0239
      3 C          -5.9080  -18.9242   21.6357 C.ar    1  UNL1       -0.0078
      4 C          -5.6996  -20.0550   20.6725 C.ar    1  UNL1        0.0002
      5 C          -6.8202  -20.4936   19.7770 C.ar    1  UNL1        0.0114
      6 C          -8.1492  -19.8014   19.8447 C.ar    1  UNL1        0.0574
      7 CL         -9.2698  -20.2400   18.9492 Cl      1  UNL1       -0.0823
      8 C          -8.3576  -18.6706   20.8080 C.ar    1  UNL1        0.0074
      9 C          -7.2370  -18.2320   21.7035 C.ar    1  UNL1       -0.0176
     10 C          -7.1468  -17.1564   22.7450 C.3     1  UNL1        0.0480
     11 C          -5.2355  -16.2777   24.3942 C.3     1  UNL1        0.0394
     12 C          -6.0958  -15.1729   24.9319 C.3     1  UNL1        0.0765
     13 C          -8.5854  -15.4724   25.6118 C.3     1  UNL1        0.0897
     14 N          -7.1305  -15.4689   25.9768 N.3     1  UNL1       -0.2700
     15 C          -6.7103  -15.7614   27.3867 C.3     1  UNL1        0.0897
     16 C          -3.5698  -18.6548   22.9026 C.3     1  UNL1        0.0733
     17 C          -2.5050  -18.3211   21.9000 C.ar    1  UNL1        0.0849
     18 C          -2.1583  -16.8883   21.6229 C.ar    1  UNL1        0.0185
     19 C          -1.0936  -16.5547   20.6204 C.ar    1  UNL1        0.0238
     20 C          -0.3756  -17.6539   19.8951 C.ar    1  UNL1        0.1222
     21 N          -0.7223  -19.0867   20.1722 N.ar    1  UNL1       -0.1467
     22 N          -1.7870  -19.4204   21.1747 N.ar    1  UNL1       -0.1520
@<TRIPOS>BOND
     1    13    14    1
     2    14    15    1
     3    14    12    1
     4    12    11    1
     5    11     1    1
     6     1     2    2
     7     2    16    1
     8    16    17    1
     9    17    18   ar
    10    18    19   ar
    11    19    20   ar
    12    20    21   ar
    13    21    22   ar
    14     2     3    1
    15     3     4   ar
    16     4     5   ar
    17     5     6   ar
    18     6     7    1
    19     6     8   ar
    20     8     9   ar
    21     9    10    1
    22    10     1    1
    23    22    17   ar
    24     9     3   ar
@<TRIPOS>MOLECULE
*****
 22 24 0 0 0
SMALL
GASTEIGER

@<TRIPOS>ATOM
      1 C          -7.5521  -18.4575   22.1831 C.2     1  UNL1       -0.0420
      2 C          -8.0954  -17.1097   22.5550 C.2     1  UNL1       -0.0239
      3 C          -9.5916  -17.1732   22.4687 C.ar    1  UNL1       -0.0078
      4 C         -10.6560  -16.1472   22.7224 C.ar    1  UNL1        0.0002
      5 C         -12.1017  -16.5082   22.5509 C.ar    1  UNL1        0.0114
      6 C         -12.4831  -17.8952   22.1256 C.ar    1  UNL1        0.0574
      7 CL        -13.9289  -18.2562   21.9541 Cl      1  UNL1       -0.0823
      8 C         -11.4187  -18.9212   21.8719 C.ar    1  UNL1        0.0074
      9 C          -9.9729  -18.5602   22.0435 C.ar    1  UNL1       -0.0176
     10 C          -8.7124  -19.3539   21.8669 C.3     1  UNL1        0.0480
     11 C          -6.1028  -18.8414   22.1356 C.3     1  UNL1        0.0394
     12 C          -5.4690  -19.2178   20.8293 C.3     1  UNL1        0.0765
     13 C          -3.3508  -18.8314   19.3754 C.3     1  UNL1        0.0897
     14 N          -3.9758  -19.2015   20.6878 N.3     1  UNL1       -0.2700
     15 C          -3.1076  -19.5552   21.8588 C.3     1  UNL1        0.0897
     16 C          -7.2849  -15.9092   22.9448 C.3     1  UNL1        0.0733
     17 C          -7.0185  -15.6221   24.3928 C.ar    1  UNL1        0.0849
     18 C          -8.0667  -15.9239   25.4225 C.ar    1  UNL1        0.0185
     19 C          -7.8003  -15.6368   26.8704 C.ar    1  UNL1        0.0238
     20 C          -6.4857  -15.0480   27.2887 C.ar    1  UNL1        0.1222
     21 N          -5.4375  -14.7462   26.2591 N.ar    1  UNL1       -0.1467
     22 N          -5.7038  -15.0333   24.8111 N.ar    1  UNL1       -0.1520
@<TRIPOS>BOND
     1    13    14    1
     2    14    15    1
     3    14    12    1
     4    12    11    1
     5    11     1    1
     6     1     2    2
     7     2    16    1
     8    16    17    1
     9    17    18   ar
    10    18    19   ar
    11    19    20   ar
    12    20    21   ar
    13    21    22   ar
    14     2     3    1
    15     3     4   ar
    16     4     5   ar
    17     5     6   ar
    18     6     7    1
    19     6     8   ar
    20     8     9   ar
    21     9    10    1
    22    10     1    1
    23    22    17   ar
    24     9     3   ar
@<TRIPOS>MOLECULE
*****
 22 24 0 0 0
SMALL
GASTEIGER

@<TRIPOS>ATOM
      1 C          -9.9250  -18.5419   24.4755 C.2     1  UNL1       -0.0420
      2 C          -8.9206  -17.7828   23.6600 C.2     1  UNL1       -0.0239
      3 C          -8.1843  -16.8536   24.5789 C.ar    1  UNL1       -0.0078
      4 C          -7.0847  -15.8631   24.3346 C.ar    1  UNL1        0.0002
      5 C          -6.5344  -15.0574   25.4738 C.ar    1  UNL1        0.0114
      6 C          -7.0837  -15.2421   26.8573 C.ar    1  UNL1        0.0574
      7 CL         -6.5333  -14.4363   27.9966 Cl      1  UNL1       -0.0823
      8 C          -8.1833  -16.2326   27.1016 C.ar    1  UNL1        0.0074
      9 C          -8.7336  -17.0383   25.9624 C.ar    1  UNL1       -0.0176
     10 C          -9.8094  -18.0817   25.8985 C.3     1  UNL1        0.0480
     11 C         -10.8776  -19.5790   23.9588 C.3     1  UNL1        0.0394
     12 C         -12.0386  -19.1702   23.1016 C.3     1  UNL1        0.0765
     13 C         -13.9691  -18.2316   24.5652 C.3     1  UNL1        0.0897
     14 N         -12.9133  -18.0257   23.5197 N.3     1  UNL1       -0.2700
     15 C         -12.7324  -16.6752   22.8925 C.3     1  UNL1        0.0897
     16 C          -8.6926  -17.9276   22.1845 C.3     1  UNL1        0.0733
     17 C          -9.5882  -17.2163   21.2138 C.ar    1  UNL1        0.0849
     18 C         -10.5514  -17.9981   20.3706 C.ar    1  UNL1        0.0185
     19 C         -11.4470  -17.2869   19.4000 C.ar    1  UNL1        0.0238
     20 C         -11.3792  -15.7938   19.2725 C.ar    1  UNL1        0.1222
     21 N         -10.4160  -15.0121   20.1157 N.ar    1  UNL1       -0.1467
     22 N          -9.5204  -15.7232   21.0863 N.ar    1  UNL1       -0.1520
@<TRIPOS>BOND
     1    13    14    1
     2    14    15    1
     3    14    12    1
     4    12    11    1
     5    11     1    1
     6     1     2    2
     7     2    16    1
     8    16    17    1
     9    17    18   ar
    10    18    19   ar
    11    19    20   ar
    12    20    21   ar
    13    21    22   ar
    14     2     3    1
    15     3     4   ar
    16     4     5   ar
    17     5     6   ar
    18     6     7    1
    19     6     8   ar
    20     8     9   ar
    21     9    10    1
    22    10     1    1
    23    22    17   ar
    24     9     3   ar
@<TRIPOS>MOLECULE
*****
 22 24 0 0 0
SMALL
GASTEIGER

@<TRIPOS>ATOM
      1 C          -9.9912  -16.6899   23.4475 C.2     1  UNL1       -0.0420
      2 C          -8.7251  -17.0620   22.7344 C.2     1  UNL1       -0.0239
      3 C          -7.5712  -16.5218   23.5260 C.ar    1  UNL1       -0.0078
      4 C          -6.0885  -16.5815   23.3073 C.ar    1  UNL1        0.0002
      5 C          -5.1587  -15.9352   24.2910 C.ar    1  UNL1        0.0114
      6 C          -5.7116  -15.2292   25.4935 C.ar    1  UNL1        0.0574
      7 CL         -4.7817  -14.5829   26.4772 Cl      1  UNL1       -0.0823
      8 C          -7.1943  -15.1695   25.7122 C.ar    1  UNL1        0.0074
      9 C          -8.1241  -15.8158   24.7284 C.ar    1  UNL1       -0.0176
     10 C          -9.6197  -15.9197   24.6799 C.3     1  UNL1        0.0480
     11 C         -11.3841  -17.0285   23.0058 C.3     1  UNL1        0.0394
     12 C         -11.9647  -18.3749   23.3221 C.3     1  UNL1        0.0765
     13 C         -10.3646  -20.1710   24.3039 C.3     1  UNL1        0.0897
     14 N         -11.1334  -19.6108   23.1441 N.3     1  UNL1       -0.2700
     15 C         -11.0709  -20.2864   21.8063 C.3     1  UNL1        0.0897
     16 C          -8.6296  -17.8381   21.4543 C.3     1  UNL1        0.0733
     17 C          -7.4294  -18.6969   21.1856 C.ar    1  UNL1        0.0849
     18 C          -7.2141  -19.9534   21.9761 C.ar    1  UNL1        0.0185
     19 C          -6.0140  -20.8122   21.7075 C.ar    1  UNL1        0.0238
     20 C          -5.0292  -20.4144   20.6483 C.ar    1  UNL1        0.1222
     21 N          -5.2445  -19.1579   19.8578 N.ar    1  UNL1       -0.1467
     22 N          -6.4446  -18.2992   20.1264 N.ar    1  UNL1       -0.1520
@<TRIPOS>BOND
     1    13    14    1
     2    14    15    1
     3    14    12    1
     4    12    11    1
     5    11     1    1
     6     1     2    2
     7     2    16    1
     8    16    17    1
     9    17    18   ar
    10    18    19   ar
    11    19    20   ar
    12    20    21   ar
    13    21    22   ar
    14     2     3    1
    15     3     4   ar
    16     4     5   ar
    17     5     6   ar
    18     6     7    1
    19     6     8   ar
    20     8     9   ar
    21     9    10    1
    22    10     1    1
    23    22    17   ar
    24     9     3   ar
@<TRIPOS>MOLECULE
*****
 22 24 0 0 0
SMALL
GASTEIGER

@<TRIPOS>ATOM
      1 C         -12.1258   -6.2934   18.9427 C.2     1  UNL1       -0.0420
      2 C         -13.3453   -5.6882   19.5724 C.2     1  UNL1       -0.0239
      3 C         -14.5103   -6.5886   19.2858 C.ar    1  UNL1       -0.0078
      4 C         -15.9614   -6.5008   19.6553 C.ar    1  UNL1        0.0002
      5 C         -16.9129   -7.5746   19.2180 C.ar    1  UNL1        0.0114
      6 C         -16.4134   -8.7363   18.4111 C.ar    1  UNL1        0.0574
      7 CL        -17.3651   -9.8101   17.9737 Cl      1  UNL1       -0.0823
      8 C         -14.9624   -8.8241   18.0416 C.ar    1  UNL1        0.0074
      9 C         -14.0108   -7.7503   18.4790 C.ar    1  UNL1       -0.0176
     10 C         -12.5371   -7.5678   18.2669 C.3     1  UNL1        0.0480
     11 C         -10.7385   -5.7242   18.9819 C.3     1  UNL1        0.0394
     12 C          -9.8771   -5.7626   17.7545 C.3     1  UNL1        0.0765
     13 C          -8.8968   -3.8265   16.3260 C.3     1  UNL1        0.0897
     14 N         -10.0449   -4.7217   16.6876 N.3     1  UNL1       -0.2700
     15 C         -11.3606   -4.5761   15.9822 C.3     1  UNL1        0.0897
     16 C         -13.3917   -4.4075   20.3519 C.3     1  UNL1        0.0733
     17 C         -13.4410   -3.0925   19.6317 C.ar    1  UNL1        0.0849
     18 C         -12.1674   -2.4022   19.2428 C.ar    1  UNL1        0.0185
     19 C         -12.2166   -1.0873   18.5227 C.ar    1  UNL1        0.0238
     20 C         -13.5396   -0.4628   18.1914 C.ar    1  UNL1        0.1222
     21 N         -14.8132   -1.1531   18.5803 N.ar    1  UNL1       -0.1467
     22 N         -14.7640   -2.4680   19.3004 N.ar    1  UNL1       -0.1520
@<TRIPOS>BOND
     1    13    14    1
     2    14    15    1
     3    14    12    1
     4    12    11    1
     5    11     1    1
     6     1     2    2
     7     2    16    1
     8    16    17    1
     9    17    18   ar
    10    18    19   ar
    11    19    20   ar
    12    20    21   ar
    13    21    22   ar
    14     2     3    1
    15     3     4   ar
    16     4     5   ar
    17     5     6   ar
    18     6     7    1
    19     6     8   ar
    20     8     9   ar
    21     9    10    1
    22    10     1    1
    23    22    17   ar
    24     9     3   ar
