@<TRIPOS>MOLECULE
*****
 12 13 0 0 0
SMALL
GASTEIGER

@<TRIPOS>ATOM
      1 C         -10.8253  -19.3780   21.8587 C.3     1  UNL1        0.0324
      2 C         -10.0420  -20.0619   22.9397 C.3     1  UNL1        0.0196
      3 C          -9.4537  -20.5934   24.2130 C.3     1  UNL1        0.0686
      4 N         -10.2228  -20.0064   25.3593 N.3     1  UNL1       -0.2975
      5 C         -11.2865  -19.1122   24.7943 C.3     1  UNL1        0.0686
      6 C         -11.1747  -19.1465   23.2989 C.3     1  UNL1        0.0183
      7 C         -12.3114  -18.2040   23.0350 C.3     1  UNL1        0.0015
      8 H          -9.5965  -19.4653   25.9554 H       1  UNL1        0.1232
      9 C         -11.0758  -19.1167   20.4030 C.3     1  UNL1        0.1422
     10 O         -10.5686  -17.8553   19.7692 O.3     1  UNL1       -0.3538
     11 C         -11.7243  -15.6080   19.1661 C.3     1  UNL1        0.0346
     12 C         -11.1269  -16.5279   20.1892 C.3     1  UNL1        0.1422
@<TRIPOS>BOND
     1    11    12    1
     2    12    10    1
     3    10     9    1
     4     1     9    1
     5     1     2    1
     6     2     3    1
     7     3     4    1
     8     4     5    1
     9     5     6    1
    10     6     7    1
    11     6     1    1
    12     6     2    1
    13     4     8    1
@<TRIPOS>MOLECULE
*****
 12 13 0 0 0
SMALL
GASTEIGER

@<TRIPOS>ATOM
      1 C         -10.7171  -19.4499   21.8074 C.3     1  UNL1        0.0324
      2 C         -10.0223  -20.1027   22.9654 C.3     1  UNL1        0.0196
      3 C          -9.5250  -20.5840   24.2962 C.3     1  UNL1        0.0686
      4 N         -10.3251  -19.9001   25.3649 N.3     1  UNL1       -0.2975
      5 C         -11.3169  -18.9962   24.6946 C.3     1  UNL1        0.0686
      6 C         -11.1297  -19.1214   23.2116 C.3     1  UNL1        0.0183
      7 C         -12.2077  -18.1487   22.8349 C.3     1  UNL1        0.0015
      8 H          -9.7067  -19.3524   25.9632 H       1  UNL1        0.1232
      9 C         -10.8801  -19.2627   20.3281 C.3     1  UNL1        0.1422
     10 O          -9.7469  -18.7151   19.5120 O.3     1  UNL1       -0.3538
     11 C          -7.3445  -19.5525   20.0387 C.3     1  UNL1        0.0346
     12 C          -8.5729  -19.5873   19.1786 C.3     1  UNL1        0.1422
@<TRIPOS>BOND
     1    11    12    1
     2    12    10    1
     3    10     9    1
     4     1     9    1
     5     1     2    1
     6     2     3    1
     7     3     4    1
     8     4     5    1
     9     5     6    1
    10     6     7    1
    11     6     1    1
    12     6     2    1
    13     4     8    1
@<TRIPOS>MOLECULE
*****
 12 13 0 0 0
SMALL
GASTEIGER

@<TRIPOS>ATOM
      1 C         -10.3385  -16.8924   23.3435 C.3     1  UNL1        0.0324
      2 C         -10.7458  -16.4108   21.9825 C.3     1  UNL1        0.0196
      3 C         -11.3954  -16.1243   20.6612 C.3     1  UNL1        0.0686
      4 N         -12.6396  -16.9568   20.5662 N.3     1  UNL1       -0.2975
      5 C         -12.7589  -17.7578   21.8288 C.3     1  UNL1        0.0686
      6 C         -11.5885  -17.4204   22.7042 C.3     1  UNL1        0.0183
      7 C         -11.9691  -18.3317   23.8331 C.3     1  UNL1        0.0015
      8 H         -12.5765  -17.5831   19.7636 H       1  UNL1        0.1232
      9 C          -9.3816  -16.8656   24.4983 C.3     1  UNL1        0.1422
     10 O          -8.8219  -15.5593   24.9784 O.3     1  UNL1       -0.3538
     11 C          -8.2097  -15.9822   27.4677 C.3     1  UNL1        0.0346
     12 C          -7.8152  -15.5382   26.0903 C.3     1  UNL1        0.1422
@<TRIPOS>BOND
     1    11    12    1
     2    12    10    1
     3    10     9    1
     4     1     9    1
     5     1     2    1
     6     2     3    1
     7     3     4    1
     8     4     5    1
     9     5     6    1
    10     6     7    1
    11     6     1    1
    12     6     2    1
    13     4     8    1
@<TRIPOS>MOLECULE
*****
 12 13 0 0 0
SMALL
GASTEIGER

@<TRIPOS>ATOM
      1 C          -4.7447  -19.0549   20.2501 C.3     1  UNL1        0.0324
      2 C          -3.3866  -18.7663   19.6824 C.3     1  UNL1        0.0196
      3 C          -1.9314  -18.5260   19.4090 C.3     1  UNL1        0.0686
      4 N          -1.1833  -18.6972   20.6978 N.3     1  UNL1       -0.2975
      5 C          -2.1760  -19.0433   21.7677 C.3     1  UNL1        0.0686
      6 C          -3.5378  -19.0860   21.1402 C.3     1  UNL1        0.0183
      7 C          -4.2782  -19.4385   22.3962 C.3     1  UNL1        0.0015
      8 H          -0.7041  -17.8294   20.9378 H       1  UNL1        0.1232
      9 C          -6.2257  -19.2036   20.0639 C.3     1  UNL1        0.1422
     10 O          -7.1603  -18.1807   20.6383 O.3     1  UNL1       -0.3538
     11 C          -8.1893  -19.5898   22.5633 C.3     1  UNL1        0.0346
     12 C          -8.3553  -18.6187   21.4322 C.3     1  UNL1        0.1422
@<TRIPOS>BOND
     1    11    12    1
     2    12    10    1
     3    10     9    1
     4     1     9    1
     5     1     2    1
     6     2     3    1
     7     3     4    1
     8     4     5    1
     9     5     6    1
    10     6     7    1
    11     6     1    1
    12     6     2    1
    13     4     8    1
@<TRIPOS>MOLECULE
*****
 12 13 0 0 0
SMALL
GASTEIGER

@<TRIPOS>ATOM
      1 C         -10.7049  -18.8977   20.2927 C.3     1  UNL1        0.0324
      2 C         -11.5415  -17.6911   20.5996 C.3     1  UNL1        0.0196
      3 C         -12.4126  -16.6206   21.1870 C.3     1  UNL1        0.0686
      4 N         -12.7523  -17.0188   22.5927 N.3     1  UNL1       -0.2975
      5 C         -12.0911  -18.3355   22.8741 C.3     1  UNL1        0.0686
      6 C         -11.3428  -18.7510   21.6423 C.3     1  UNL1        0.0183
      7 C         -10.8150  -20.0371   22.2058 C.3     1  UNL1        0.0015
      8 H         -13.7633  -17.1110   22.6917 H       1  UNL1        0.1232
      9 C          -9.8535  -19.6789   19.3362 C.3     1  UNL1        0.1422
     10 O          -8.4594  -19.2201   19.0261 O.3     1  UNL1       -0.3538
     11 C          -7.2027  -18.6922   21.2378 C.3     1  UNL1        0.0346
     12 C          -7.3441  -19.5079   19.9870 C.3     1  UNL1        0.1422
@<TRIPOS>BOND
     1    11    12    1
     2    12    10    1
     3    10     9    1
     4     1     9    1
     5     1     2    1
     6     2     3    1
     7     3     4    1
     8     4     5    1
     9     5     6    1
    10     6     7    1
    11     6     1    1
    12     6     2    1
    13     4     8    1
@<TRIPOS>MOLECULE
*****
 12 13 0 0 0
SMALL
GASTEIGER

@<TRIPOS>ATOM
      1 C          -5.0803  -18.9775   21.7658 C.3     1  UNL1        0.0324
      2 C          -3.8711  -18.3762   22.4185 C.3     1  UNL1        0.0196
      3 C          -2.5037  -17.9533   22.8675 C.3     1  UNL1        0.0686
      4 N          -1.4950  -18.6811   22.0293 N.3     1  UNL1       -0.2975
      5 C          -2.2388  -19.5538   21.0622 C.3     1  UNL1        0.0686
      6 C          -3.7073  -19.3654   21.3028 C.3     1  UNL1        0.0183
      7 C          -4.1641  -20.3192   20.2390 C.3     1  UNL1        0.0015
      8 H          -0.8988  -19.2551   22.6256 H       1  UNL1        0.1232
      9 C          -6.5713  -19.1008   21.6562 C.3     1  UNL1        0.1422
     10 O          -7.2732  -18.6341   20.4155 O.3     1  UNL1       -0.3538
     11 C          -9.5329  -19.5159   19.4847 C.3     1  UNL1        0.0346
     12 C          -8.0386  -19.6120   19.5740 C.3     1  UNL1        0.1422
@<TRIPOS>BOND
     1    11    12    1
     2    12    10    1
     3    10     9    1
     4     1     9    1
     5     1     2    1
     6     2     3    1
     7     3     4    1
     8     4     5    1
     9     5     6    1
    10     6     7    1
    11     6     1    1
    12     6     2    1
    13     4     8    1
@<TRIPOS>MOLECULE
*****
 12 13 0 0 0
SMALL
GASTEIGER

@<TRIPOS>ATOM
      1 C          -9.0795  -17.5142   23.0396 C.3     1  UNL1        0.0324
      2 C          -9.6636  -18.0923   24.2944 C.3     1  UNL1        0.0196
      3 C         -10.1693  -18.9451   25.4200 C.3     1  UNL1        0.0686
      4 N          -9.9164  -20.3801   25.0640 N.3     1  UNL1       -0.2975
      5 C          -9.2544  -20.4142   23.7185 C.3     1  UNL1        0.0686
      6 C          -9.0981  -19.0003   23.2428 C.3     1  UNL1        0.0183
      7 C          -8.4400  -19.3450   21.9397 C.3     1  UNL1        0.0015
      8 H         -10.7998  -20.8887   25.0281 H       1  UNL1        0.1232
      9 C          -8.7314  -16.3225   22.1978 C.3     1  UNL1        0.1422
     10 O          -9.6509  -15.8891   21.0948 O.3     1  UNL1       -0.3538
     11 C         -11.2665  -17.5965   19.9882 C.3     1  UNL1        0.0346
     12 C         -11.0178  -16.4955   20.9761 C.3     1  UNL1        0.1422
@<TRIPOS>BOND
     1    11    12    1
     2    12    10    1
     3    10     9    1
     4     1     9    1
     5     1     2    1
     6     2     3    1
     7     3     4    1
     8     4     5    1
     9     5     6    1
    10     6     7    1
    11     6     1    1
    12     6     2    1
    13     4     8    1
@<TRIPOS>MOLECULE
*****
 12 13 0 0 0
SMALL
GASTEIGER

@<TRIPOS>ATOM
      1 C          -9.4276  -17.3156   24.2861 C.3     1  UNL1        0.0324
      2 C          -8.6796  -16.3050   25.1041 C.3     1  UNL1        0.0196
      3 C          -7.8133  -15.2066   25.6453 C.3     1  UNL1        0.0686
      4 N          -7.0913  -14.5749   24.4922 N.3     1  UNL1       -0.2975
      5 C          -7.5113  -15.2830   23.2383 C.3     1  UNL1        0.0686
      6 C          -8.4930  -16.3523   23.6165 C.3     1  UNL1        0.0183
      7 C          -8.7176  -16.8589   22.2226 C.3     1  UNL1        0.0015
      8 H          -6.0838  -14.6684   24.6216 H       1  UNL1        0.1232
      9 C         -10.3992  -18.4552   24.2004 C.3     1  UNL1        0.1422
     10 O         -11.8642  -18.1808   24.0317 O.3     1  UNL1       -0.3538
     11 C         -12.4030  -16.1614   22.4884 C.3     1  UNL1        0.0346
     12 C         -12.3812  -17.6415   22.7309 C.3     1  UNL1        0.1422
@<TRIPOS>BOND
     1    11    12    1
     2    12    10    1
     3    10     9    1
     4     1     9    1
     5     1     2    1
     6     2     3    1
     7     3     4    1
     8     4     5    1
     9     5     6    1
    10     6     7    1
    11     6     1    1
    12     6     2    1
    13     4     8    1
@<TRIPOS>MOLECULE
*****
 12 13 0 0 0
SMALL
GASTEIGER

@<TRIPOS>ATOM
      1 C         -11.7479  -18.2070   22.9296 C.3     1  UNL1        0.0324
      2 C         -12.1311  -17.1380   21.9496 C.3     1  UNL1        0.0196
      3 C         -12.3922  -16.2653   20.7579 C.3     1  UNL1        0.0686
      4 N         -11.8881  -16.9812   19.5399 N.3     1  UNL1       -0.2975
      5 C         -11.3155  -18.2963   19.9789 C.3     1  UNL1        0.0686
      6 C         -11.4657  -18.3932   21.4682 C.3     1  UNL1        0.0183
      7 C         -10.8341  -19.7472   21.6017 C.3     1  UNL1        0.0015
      8 H         -11.1653  -16.4235   19.0850 H       1  UNL1        0.1232
      9 C         -11.6896  -18.7167   24.3391 C.3     1  UNL1        0.1422
     10 O         -10.4833  -18.4412   25.1870 O.3     1  UNL1       -0.3538
     11 C          -9.1025  -16.2988   24.6837 C.3     1  UNL1        0.0346
     12 C          -9.2766  -17.7853   24.5838 C.3     1  UNL1        0.1422
@<TRIPOS>BOND
     1    11    12    1
     2    12    10    1
     3    10     9    1
     4     1     9    1
     5     1     2    1
     6     2     3    1
     7     3     4    1
     8     4     5    1
     9     5     6    1
    10     6     7    1
    11     6     1    1
    12     6     2    1
    13     4     8    1
