@<TRIPOS>MOLECULE
*****
 30 33 0 0 0
SMALL
GASTEIGER

@<TRIPOS>ATOM
      1 C          -7.5595  -17.1993   23.0347 C.2     1  UNL1        0.0020
      2 C          -8.7654  -17.4278   22.1723 C.2     1  UNL1        0.0130
      3 C         -10.1144  -16.9575   22.6296 C.3     1  UNL1        0.1542
      4 C          -9.9713  -17.6562   21.3100 C.3     1  UNL1        0.0614
      5 C         -11.1772  -17.8846   20.4477 C.3     1  UNL1        0.0725
      6 N         -12.5262  -17.4143   20.9049 N.3     1  UNL1       -0.2972
      7 C         -12.6693  -16.7157   22.2245 C.3     1  UNL1        0.0725
      8 C         -11.4634  -16.4872   23.0868 C.3     1  UNL1        0.0614
      9 O         -10.2575  -16.2588   23.9492 O.3     1  UNL1       -0.4785
     10 C          -9.0516  -16.0304   24.8115 C.ar    1  UNL1        0.1386
     11 C          -9.1947  -15.3317   26.1312 C.ar    1  UNL1        0.0369
     12 C          -7.9888  -15.1032   26.9935 C.ar    1  UNL1        0.0031
     13 C          -6.6398  -15.5735   26.5362 C.ar    1  UNL1        0.0002
     14 C          -6.4967  -16.2722   25.2167 C.ar    1  UNL1        0.0030
     15 C          -7.7026  -16.5006   24.3543 C.ar    1  UNL1        0.0338
     16 H         -13.1283  -18.2369   20.9405 H       1  UNL1        0.1233
     17 C          -3.5125  -18.6101   21.6629 C.ar    1  UNL1        0.0810
     18 C          -3.6194  -17.5730   22.7413 C.ar    1  UNL1        0.0068
     19 C          -4.9684  -17.1027   23.1986 C.ar    1  UNL1        0.0003
     20 C          -6.2105  -17.6696   22.5774 C.ar    1  UNL1        0.0021
     21 C          -6.1037  -18.7067   21.4990 C.ar    1  UNL1        0.0298
     22 C          -4.7547  -19.1770   21.0417 C.ar    1  UNL1        0.1445
     23 F          -4.6478  -20.2140   19.9633 F       1  UNL1       -0.2040
     24 N          -1.3678  -18.2520   20.2410 N.am    1  UNL1       -0.2760
     25 C          -2.1635  -19.0803   21.2056 C.2     1  UNL1        0.2512
     26 O          -1.6103  -20.3790   21.7131 O.2     1  UNL1       -0.2698
     27 C           1.2104  -17.9441   20.1495 C.3     1  UNL1        0.0233
     28 C          -0.0188  -18.7223   19.7837 C.3     1  UNL1        0.0938
     29 C          -1.9211  -16.9533   19.7335 C.3     1  UNL1        0.0938
     30 C          -2.7499  -16.9285   18.4836 C.3     1  UNL1        0.0233
@<TRIPOS>BOND
     1    27    28    1
     2    28    24    1
     3    24    29    1
     4    29    30    1
     5    24    25   am
     6    25    26    2
     7    25    17    1
     8    17    18   ar
     9    18    19   ar
    10    19    20   ar
    11    20     1    1
    12     1     2    2
    13     2     3    1
    14     3     4    1
    15     4     5    1
    16     5     6    1
    17     6     7    1
    18     7     8    1
    19     3     9    1
    20     9    10    1
    21    10    11   ar
    22    11    12   ar
    23    12    13   ar
    24    13    14   ar
    25    14    15   ar
    26    20    21   ar
    27    21    22   ar
    28    22    23    1
    29    22    17   ar
    30    15     1    1
    31     8     3    1
    32    15    10   ar
    33     6    16    1
@<TRIPOS>MOLECULE
*****
 30 33 0 0 0
SMALL
GASTEIGER

@<TRIPOS>ATOM
      1 C         -13.9390   -4.8721   18.6492 C.2     1  UNL1        0.0020
      2 C         -15.0133   -5.9009   18.4550 C.2     1  UNL1        0.0130
      3 C         -14.6525   -7.3540   18.3638 C.3     1  UNL1        0.1542
      4 C         -16.0875   -6.9296   18.2608 C.3     1  UNL1        0.0614
      5 C         -17.1617   -7.9583   18.0666 C.3     1  UNL1        0.0725
      6 N         -16.8009   -9.4114   17.9754 N.3     1  UNL1       -0.2972
      7 C         -15.3660   -9.8358   18.0784 C.3     1  UNL1        0.0725
      8 C         -14.2917   -8.8071   18.2726 C.3     1  UNL1        0.0614
      9 O         -13.2174   -7.7783   18.4668 O.3     1  UNL1       -0.4785
     10 C         -12.1432   -6.7496   18.6610 C.ar    1  UNL1        0.1386
     11 C         -10.7081   -7.1740   18.7641 C.ar    1  UNL1        0.0369
     12 C          -9.6339   -6.1453   18.9583 C.ar    1  UNL1        0.0031
     13 C          -9.9947   -4.6922   19.0495 C.ar    1  UNL1        0.0002
     14 C         -11.4297   -4.2678   18.9464 C.ar    1  UNL1        0.0030
     15 C         -12.5040   -5.2965   18.7522 C.ar    1  UNL1        0.0338
     16 H         -17.1422   -9.7435   17.0734 H       1  UNL1        0.1233
     17 C         -15.0213   -0.5128   18.9228 C.ar    1  UNL1        0.0810
     18 C         -15.0634   -1.3744   20.1499 C.ar    1  UNL1        0.0068
     19 C         -14.7026   -2.8276   20.0587 C.ar    1  UNL1        0.0003
     20 C         -14.2998   -3.4190   18.7404 C.ar    1  UNL1        0.0021
     21 C         -14.2577   -2.5573   17.5133 C.ar    1  UNL1        0.0298
     22 C         -14.6184   -1.1042   17.6045 C.ar    1  UNL1        0.1445
     23 F         -14.5764   -0.2426   16.3774 F       1  UNL1       -0.2040
     24 N         -16.8228    1.3575   19.0033 N.am    1  UNL1       -0.2760
     25 C         -15.3821    0.9403   19.0140 C.2     1  UNL1        0.2512
     26 O         -14.3020    1.9763   19.1159 O.2     1  UNL1       -0.2698
     27 C         -17.2498    3.4844   20.4331 C.3     1  UNL1        0.0233
     28 C         -17.1836    2.8106   19.0945 C.3     1  UNL1        0.0938
     29 C         -17.9029    0.3215   18.9014 C.3     1  UNL1        0.0938
     30 C         -18.5746   -0.1862   20.1428 C.3     1  UNL1        0.0233
@<TRIPOS>BOND
     1    27    28    1
     2    28    24    1
     3    24    29    1
     4    29    30    1
     5    24    25   am
     6    25    26    2
     7    25    17    1
     8    17    18   ar
     9    18    19   ar
    10    19    20   ar
    11    20     1    1
    12     1     2    2
    13     2     3    1
    14     3     4    1
    15     4     5    1
    16     5     6    1
    17     6     7    1
    18     7     8    1
    19     3     9    1
    20     9    10    1
    21    10    11   ar
    22    11    12   ar
    23    12    13   ar
    24    13    14   ar
    25    14    15   ar
    26    20    21   ar
    27    21    22   ar
    28    22    23    1
    29    22    17   ar
    30    15     1    1
    31     8     3    1
    32    15    10   ar
    33     6    16    1
@<TRIPOS>MOLECULE
*****
 30 33 0 0 0
SMALL
GASTEIGER

@<TRIPOS>ATOM
      1 C           6.9800   -4.0025   24.6154 C.2     1  UNL1        0.0020
      2 C           6.5425   -3.2158   25.8154 C.2     1  UNL1        0.0130
      3 C           6.8236   -3.7336   27.1948 C.3     1  UNL1        0.1542
      4 C           6.1050   -2.4292   27.0153 C.3     1  UNL1        0.0614
      5 C           5.6676   -1.6426   28.2153 C.3     1  UNL1        0.0725
      6 N           5.9487   -2.1604   29.5947 N.3     1  UNL1       -0.2972
      7 C           6.6673   -3.4647   29.7742 C.3     1  UNL1        0.0725
      8 C           7.1047   -4.2513   28.5743 C.3     1  UNL1        0.0614
      9 O           7.5422   -5.0380   27.3743 O.3     1  UNL1       -0.4785
     10 C           7.9797   -5.8246   26.1744 C.ar    1  UNL1        0.1386
     11 C           8.6983   -7.1290   26.3539 C.ar    1  UNL1        0.0369
     12 C           9.1357   -7.9156   25.1539 C.ar    1  UNL1        0.0031
     13 C           8.8546   -7.3978   23.7745 C.ar    1  UNL1        0.0002
     14 C           8.1360   -6.0935   23.5950 C.ar    1  UNL1        0.0030
     15 C           7.6985   -5.3068   24.7949 C.ar    1  UNL1        0.0338
     16 H           5.0476   -2.2537   30.0635 H       1  UNL1        0.1233
     17 C           6.1366   -2.4491   20.4771 C.ar    1  UNL1        0.0810
     18 C           7.4209   -2.0923   21.1648 C.ar    1  UNL1        0.0068
     19 C           7.7021   -2.6100   22.5443 C.ar    1  UNL1        0.0003
     20 C           6.6988   -3.4847   23.2360 C.ar    1  UNL1        0.0021
     21 C           5.4144   -3.8416   22.5482 C.ar    1  UNL1        0.0298
     22 C           5.1333   -3.3239   21.1688 C.ar    1  UNL1        0.1445
     23 F           3.8490   -3.6807   20.4810 F       1  UNL1       -0.2040
     24 N           5.0060   -0.7088   18.9141 N.am    1  UNL1       -0.2760
     25 C           5.8555   -1.9314   19.0976 C.2     1  UNL1        0.2512
     26 O           6.4238   -2.6362   17.9017 O.2     1  UNL1       -0.2698
     27 C           3.6752   -0.8466   16.6869 C.3     1  UNL1        0.0233
     28 C           4.7249   -0.1910   17.5346 C.3     1  UNL1        0.0938
     29 C           4.4377   -0.0039   20.1100 C.3     1  UNL1        0.0938
     30 C           3.0276   -0.2777   20.5420 C.3     1  UNL1        0.0233
@<TRIPOS>BOND
     1    27    28    1
     2    28    24    1
     3    24    29    1
     4    29    30    1
     5    24    25   am
     6    25    26    2
     7    25    17    1
     8    17    18   ar
     9    18    19   ar
    10    19    20   ar
    11    20     1    1
    12     1     2    2
    13     2     3    1
    14     3     4    1
    15     4     5    1
    16     5     6    1
    17     6     7    1
    18     7     8    1
    19     3     9    1
    20     9    10    1
    21    10    11   ar
    22    11    12   ar
    23    12    13   ar
    24    13    14   ar
    25    14    15   ar
    26    20    21   ar
    27    21    22   ar
    28    22    23    1
    29    22    17   ar
    30    15     1    1
    31     8     3    1
    32    15    10   ar
    33     6    16    1
@<TRIPOS>MOLECULE
*****
 30 33 0 0 0
SMALL
GASTEIGER

@<TRIPOS>ATOM
      1 C           2.3659   -0.0469   22.5137 C.2     1  UNL1        0.0020
      2 C           3.2219   -1.2732   22.3977 C.2     1  UNL1        0.0130
      3 C           3.5139   -1.8591   21.0480 C.3     1  UNL1        0.1542
      4 C           4.0778   -2.4995   22.2816 C.3     1  UNL1        0.0614
      5 C           4.9338   -3.7258   22.1656 C.3     1  UNL1        0.0725
      6 N           5.2258   -4.3116   20.8159 N.3     1  UNL1       -0.2972
      7 C           4.6619   -3.6712   19.5823 C.3     1  UNL1        0.0725
      8 C           3.8059   -2.4449   19.6984 C.3     1  UNL1        0.0614
      9 O           2.9499   -1.2186   19.8144 O.3     1  UNL1       -0.4785
     10 C           2.0940    0.0077   19.9305 C.ar    1  UNL1        0.1386
     11 C           1.5300    0.6482   18.6969 C.ar    1  UNL1        0.0369
     12 C           0.6740    1.8745   18.8129 C.ar    1  UNL1        0.0031
     13 C           0.3820    2.4604   20.1625 C.ar    1  UNL1        0.0002
     14 C           0.9460    1.8199   21.3961 C.ar    1  UNL1        0.0030
     15 C           1.8020    0.5936   21.2801 C.ar    1  UNL1        0.0338
     16 H           4.8835   -5.2724   20.8317 H       1  UNL1        0.1233
     17 C           1.4899    1.7107   26.5626 C.ar    1  UNL1        0.0810
     18 C           2.9010    1.3766   26.1794 C.ar    1  UNL1        0.0068
     19 C           3.1931    0.7907   24.8298 C.ar    1  UNL1        0.0003
     20 C           2.0739    0.5390   23.8633 C.ar    1  UNL1        0.0021
     21 C           0.6626    0.8731   24.2465 C.ar    1  UNL1        0.0298
     22 C           0.3706    1.4590   25.5961 C.ar    1  UNL1        0.1445
     23 F          -1.0406    1.7931   25.9793 F       1  UNL1       -0.2040
     24 N           0.6226    1.4336   28.9959 N.am    1  UNL1       -0.2760
     25 C           1.1978    2.2965   27.9122 C.2     1  UNL1        0.2512
     26 O           1.4811    3.7454   28.1781 O.2     1  UNL1       -0.2698
     27 C           1.3553    1.9343   31.4378 C.3     1  UNL1        0.0233
     28 C           0.3306    2.0195   30.3455 C.3     1  UNL1        0.0938
     29 C           0.3394   -0.0153   28.7300 C.3     1  UNL1        0.0938
     30 C          -1.0755   -0.5132   28.7195 C.3     1  UNL1        0.0233
@<TRIPOS>BOND
     1    27    28    1
     2    28    24    1
     3    24    29    1
     4    29    30    1
     5    24    25   am
     6    25    26    2
     7    25    17    1
     8    17    18   ar
     9    18    19   ar
    10    19    20   ar
    11    20     1    1
    12     1     2    2
    13     2     3    1
    14     3     4    1
    15     4     5    1
    16     5     6    1
    17     6     7    1
    18     7     8    1
    19     3     9    1
    20     9    10    1
    21    10    11   ar
    22    11    12   ar
    23    12    13   ar
    24    13    14   ar
    25    14    15   ar
    26    20    21   ar
    27    21    22   ar
    28    22    23    1
    29    22    17   ar
    30    15     1    1
    31     8     3    1
    32    15    10   ar
    33     6    16    1
@<TRIPOS>MOLECULE
*****
 30 33 0 0 0
SMALL
GASTEIGER

@<TRIPOS>ATOM
      1 C         -14.4638   -4.0516   18.9331 C.2     1  UNL1        0.0020
      2 C         -12.9683   -4.1459   18.8628 C.2     1  UNL1        0.0130
      3 C         -12.2960   -5.4835   18.9563 C.3     1  UNL1        0.1542
      4 C         -11.4730   -4.2402   18.7925 C.3     1  UNL1        0.0614
      5 C          -9.9776   -4.3345   18.7223 C.3     1  UNL1        0.0725
      6 N          -9.3053   -5.6721   18.8157 N.3     1  UNL1       -0.2972
      7 C         -10.1282   -6.9154   18.9795 C.3     1  UNL1        0.0725
      8 C         -11.6236   -6.8211   19.0498 C.3     1  UNL1        0.0614
      9 O         -13.1190   -6.7268   19.1201 O.3     1  UNL1       -0.4785
     10 C         -14.6144   -6.6325   19.1903 C.ar    1  UNL1        0.1386
     11 C         -15.4374   -7.8759   19.3541 C.ar    1  UNL1        0.0369
     12 C         -16.9328   -7.7816   19.4244 C.ar    1  UNL1        0.0031
     13 C         -17.6052   -6.4440   19.3309 C.ar    1  UNL1        0.0002
     14 C         -16.7822   -5.2007   19.1672 C.ar    1  UNL1        0.0030
     15 C         -15.2867   -5.2949   19.0969 C.ar    1  UNL1        0.0338
     16 H          -8.6742   -5.6292   19.6159 H       1  UNL1        0.1233
     17 C         -16.4809   -0.0388   18.6527 C.ar    1  UNL1        0.0810
     18 C         -16.2132   -0.8323   17.4083 C.ar    1  UNL1        0.0068
     19 C         -15.5409   -2.1699   17.5018 C.ar    1  UNL1        0.0003
     20 C         -15.1362   -2.7140   18.8397 C.ar    1  UNL1        0.0021
     21 C         -15.4038   -1.9206   20.0842 C.ar    1  UNL1        0.0298
     22 C         -16.0762   -0.5830   19.9908 C.ar    1  UNL1        0.1445
     23 F         -16.3439    0.2105   21.2352 F       1  UNL1       -0.2040
     24 N         -16.3295    2.5438   18.4139 N.am    1  UNL1       -0.2760
     25 C         -17.1533    1.2988   18.5593 C.2     1  UNL1        0.2512
     26 O         -18.6496    1.3913   18.6112 O.2     1  UNL1       -0.2698
     27 C         -17.2737    4.6728   19.5654 C.3     1  UNL1        0.0233
     28 C         -17.0018    3.8814   18.3204 C.3     1  UNL1        0.0938
     29 C         -14.8332    2.4512   18.3619 C.3     1  UNL1        0.0938
     30 C         -14.1251    2.4850   17.0400 C.3     1  UNL1        0.0233
@<TRIPOS>BOND
     1    27    28    1
     2    28    24    1
     3    24    29    1
     4    29    30    1
     5    24    25   am
     6    25    26    2
     7    25    17    1
     8    17    18   ar
     9    18    19   ar
    10    19    20   ar
    11    20     1    1
    12     1     2    2
    13     2     3    1
    14     3     4    1
    15     4     5    1
    16     5     6    1
    17     6     7    1
    18     7     8    1
    19     3     9    1
    20     9    10    1
    21    10    11   ar
    22    11    12   ar
    23    12    13   ar
    24    13    14   ar
    25    14    15   ar
    26    20    21   ar
    27    21    22   ar
    28    22    23    1
    29    22    17   ar
    30    15     1    1
    31     8     3    1
    32    15    10   ar
    33     6    16    1
@<TRIPOS>MOLECULE
*****
 30 33 0 0 0
SMALL
GASTEIGER

@<TRIPOS>ATOM
      1 C         -14.0858   -3.5041   19.1456 C.2     1  UNL1        0.0020
      2 C         -12.6385   -3.8860   19.0482 C.2     1  UNL1        0.0130
      3 C         -12.2429   -5.3329   19.0499 C.3     1  UNL1        0.1542
      4 C         -11.1912   -4.2679   18.9509 C.3     1  UNL1        0.0614
      5 C          -9.7439   -4.6498   18.8536 C.3     1  UNL1        0.0725
      6 N          -9.3483   -6.0967   18.8552 N.3     1  UNL1       -0.2972
      7 C         -10.4000   -7.1617   18.9542 C.3     1  UNL1        0.0725
      8 C         -11.8472   -6.7798   19.0516 C.3     1  UNL1        0.0614
      9 O         -13.2946   -6.3979   19.1489 O.3     1  UNL1       -0.4785
     10 C         -14.7419   -6.0159   19.2462 C.ar    1  UNL1        0.1386
     11 C         -15.7936   -7.0809   19.3453 C.ar    1  UNL1        0.0369
     12 C         -17.2409   -6.6990   19.4426 C.ar    1  UNL1        0.0031
     13 C         -17.6365   -5.2521   19.4409 C.ar    1  UNL1        0.0002
     14 C         -16.5848   -4.1871   19.3419 C.ar    1  UNL1        0.0030
     15 C         -15.1375   -4.5690   19.2446 C.ar    1  UNL1        0.0338
     16 H          -8.7197   -6.2292   19.6475 H       1  UNL1        0.1233
     17 C         -15.2727    0.8366   19.1406 C.ar    1  UNL1        0.0810
     18 C         -16.0061   -0.1405   20.0108 C.ar    1  UNL1        0.0068
     19 C         -15.6105   -1.5874   20.0125 C.ar    1  UNL1        0.0003
     20 C         -14.4814   -2.0572   19.1439 C.ar    1  UNL1        0.0021
     21 C         -13.7479   -1.0801   18.2736 C.ar    1  UNL1        0.0298
     22 C         -14.1435    0.3668   18.2719 C.ar    1  UNL1        0.1445
     23 F         -13.4101    1.3438   17.4017 F       1  UNL1       -0.2040
     24 N         -16.7406    2.7667   18.2081 N.am    1  UNL1       -0.2760
     25 C         -15.6683    2.2835   19.1389 C.2     1  UNL1        0.2512
     26 O         -14.9914    3.2471   20.0681 O.2     1  UNL1       -0.2698
     27 C         -16.3777    5.1976   17.3659 C.3     1  UNL1        0.0233
     28 C         -17.1363    4.2136   18.2064 C.3     1  UNL1        0.0938
     29 C         -17.4175    1.8030   17.2789 C.3     1  UNL1        0.0938
     30 C         -18.7267    1.1819   17.6660 C.3     1  UNL1        0.0233
@<TRIPOS>BOND
     1    27    28    1
     2    28    24    1
     3    24    29    1
     4    29    30    1
     5    24    25   am
     6    25    26    2
     7    25    17    1
     8    17    18   ar
     9    18    19   ar
    10    19    20   ar
    11    20     1    1
    12     1     2    2
    13     2     3    1
    14     3     4    1
    15     4     5    1
    16     5     6    1
    17     6     7    1
    18     7     8    1
    19     3     9    1
    20     9    10    1
    21    10    11   ar
    22    11    12   ar
    23    12    13   ar
    24    13    14   ar
    25    14    15   ar
    26    20    21   ar
    27    21    22   ar
    28    22    23    1
    29    22    17   ar
    30    15     1    1
    31     8     3    1
    32    15    10   ar
    33     6    16    1
@<TRIPOS>MOLECULE
*****
 30 33 0 0 0
SMALL
GASTEIGER

@<TRIPOS>ATOM
      1 C         -15.7930   -1.1967   19.1216 C.2     1  UNL1        0.0020
      2 C         -15.2800    0.1319   18.6506 C.2     1  UNL1        0.0130
      3 C         -16.1820    1.3304   18.6602 C.3     1  UNL1        0.1542
      4 C         -14.7671    1.4604   18.1796 C.3     1  UNL1        0.0614
      5 C         -14.2541    2.7890   17.7086 C.3     1  UNL1        0.0725
      6 N         -15.1561    3.9874   17.7182 N.3     1  UNL1       -0.2972
      7 C         -16.5710    3.8574   18.1989 C.3     1  UNL1        0.0725
      8 C         -17.0840    2.5289   18.6699 C.3     1  UNL1        0.0614
      9 O         -17.5970    1.2003   19.1409 O.3     1  UNL1       -0.4785
     10 C         -18.1099   -0.1282   19.6119 C.ar    1  UNL1        0.1386
     11 C         -19.5249   -0.2584   20.0926 C.ar    1  UNL1        0.0369
     12 C         -20.0378   -1.5869   20.5636 C.ar    1  UNL1        0.0031
     13 C         -19.1358   -2.7853   20.5539 C.ar    1  UNL1        0.0002
     14 C         -17.7209   -2.6553   20.0733 C.ar    1  UNL1        0.0030
     15 C         -17.2079   -1.3267   19.6022 C.ar    1  UNL1        0.0338
     16 H         -15.2015    4.3295   16.7584 H       1  UNL1        0.1233
     17 C         -13.0871   -4.7921   19.0927 C.ar    1  UNL1        0.0810
     18 C         -13.4411   -4.1303   20.3913 C.ar    1  UNL1        0.0068
     19 C         -14.3431   -2.9318   20.4010 C.ar    1  UNL1        0.0003
     20 C         -14.8910   -2.3951   19.1119 C.ar    1  UNL1        0.0021
     21 C         -14.5370   -3.0569   17.8132 C.ar    1  UNL1        0.0298
     22 C         -13.6350   -4.2554   17.8035 C.ar    1  UNL1        0.1445
     23 F         -13.2810   -4.9172   16.5048 F       1  UNL1       -0.2040
     24 N         -10.7026   -5.8124   18.9397 N.am    1  UNL1       -0.2760
     25 C         -12.1851   -5.9906   19.0830 C.2     1  UNL1        0.2512
     26 O         -12.7656   -7.3672   19.2166 O.2     1  UNL1       -0.2698
     27 C          -9.8596   -7.9848   17.7907 C.3     1  UNL1        0.0233
     28 C          -9.8006   -7.0109   18.9301 C.3     1  UNL1        0.0938
     29 C         -10.1221   -4.4357   18.8061 C.3     1  UNL1        0.0938
     30 C          -9.6827   -3.9342   17.4625 C.3     1  UNL1        0.0233
@<TRIPOS>BOND
     1    27    28    1
     2    28    24    1
     3    24    29    1
     4    29    30    1
     5    24    25   am
     6    25    26    2
     7    25    17    1
     8    17    18   ar
     9    18    19   ar
    10    19    20   ar
    11    20     1    1
    12     1     2    2
    13     2     3    1
    14     3     4    1
    15     4     5    1
    16     5     6    1
    17     6     7    1
    18     7     8    1
    19     3     9    1
    20     9    10    1
    21    10    11   ar
    22    11    12   ar
    23    12    13   ar
    24    13    14   ar
    25    14    15   ar
    26    20    21   ar
    27    21    22   ar
    28    22    23    1
    29    22    17   ar
    30    15     1    1
    31     8     3    1
    32    15    10   ar
    33     6    16    1
@<TRIPOS>MOLECULE
*****
 30 33 0 0 0
SMALL
GASTEIGER

@<TRIPOS>ATOM
      1 C           2.8512    0.2801   26.2371 C.2     1  UNL1        0.0020
      2 C           3.7330   -0.2844   27.3113 C.2     1  UNL1        0.0130
      3 C           3.2781   -0.2681   28.7406 C.3     1  UNL1        0.1542
      4 C           4.6146   -0.8490   28.3855 C.3     1  UNL1        0.0614
      5 C           5.4963   -1.4135   29.4597 C.3     1  UNL1        0.0725
      6 N           5.0415   -1.3971   30.8889 N.3     1  UNL1       -0.2972
      7 C           3.7049   -0.8163   31.2441 C.3     1  UNL1        0.0725
      8 C           2.8232   -0.2518   30.1699 C.3     1  UNL1        0.0614
      9 O           1.9414    0.3128   29.0957 O.3     1  UNL1       -0.4785
     10 C           1.0597    0.8773   28.0215 C.ar    1  UNL1        0.1386
     11 C          -0.2769    1.4582   28.3766 C.ar    1  UNL1        0.0369
     12 C          -1.1586    2.0228   27.3024 C.ar    1  UNL1        0.0031
     13 C          -0.7037    2.0064   25.8732 C.ar    1  UNL1        0.0002
     14 C           0.6328    1.4256   25.5180 C.ar    1  UNL1        0.0030
     15 C           1.5146    0.8610   26.5922 C.ar    1  UNL1        0.0338
     16 H           5.7400   -0.8713   31.4143 H       1  UNL1        0.1233
     17 C           4.2158    0.2311   21.9493 C.ar    1  UNL1        0.0810
     18 C           4.3388    1.4863   22.7612 C.ar    1  UNL1        0.0068
     19 C           3.8839    1.5027   24.1905 C.ar    1  UNL1        0.0003
     20 C           3.3061    0.2638   24.8079 C.ar    1  UNL1        0.0021
     21 C           3.1831   -0.9915   23.9960 C.ar    1  UNL1        0.0298
     22 C           3.6379   -1.0079   22.5667 C.ar    1  UNL1        0.1445
     23 F           3.5150   -2.2631   21.7548 F       1  UNL1       -0.2040
     24 N           3.6876    0.4738   19.4171 N.am    1  UNL1       -0.2760
     25 C           4.6707    0.2148   20.5200 C.2     1  UNL1        0.2512
     26 O           6.1087   -0.0607   20.1937 O.2     1  UNL1       -0.2698
     27 C           3.7799   -0.6948   17.0985 C.3     1  UNL1        0.0233
     28 C           4.1425    0.4575   17.9878 C.3     1  UNL1        0.0938
     29 C           2.2497    0.7493   19.7434 C.3     1  UNL1        0.0938
     30 C           1.2665   -0.3814   19.8132 C.3     1  UNL1        0.0233
@<TRIPOS>BOND
     1    27    28    1
     2    28    24    1
     3    24    29    1
     4    29    30    1
     5    24    25   am
     6    25    26    2
     7    25    17    1
     8    17    18   ar
     9    18    19   ar
    10    19    20   ar
    11    20     1    1
    12     1     2    2
    13     2     3    1
    14     3     4    1
    15     4     5    1
    16     5     6    1
    17     6     7    1
    18     7     8    1
    19     3     9    1
    20     9    10    1
    21    10    11   ar
    22    11    12   ar
    23    12    13   ar
    24    13    14   ar
    25    14    15   ar
    26    20    21   ar
    27    21    22   ar
    28    22    23    1
    29    22    17   ar
    30    15     1    1
    31     8     3    1
    32    15    10   ar
    33     6    16    1
@<TRIPOS>MOLECULE
*****
 30 33 0 0 0
SMALL
GASTEIGER

@<TRIPOS>ATOM
      1 C           5.9046   -2.3495   30.3593 C.2     1  UNL1        0.0020
      2 C           6.5221   -3.7028   30.1660 C.2     1  UNL1        0.0130
      3 C           6.6249   -4.2906   28.7898 C.3     1  UNL1        0.1542
      4 C           7.1396   -5.0560   29.9726 C.3     1  UNL1        0.0614
      5 C           7.7571   -6.4093   29.7792 C.3     1  UNL1        0.0725
      6 N           7.8599   -6.9970   28.4030 N.3     1  UNL1       -0.2972
      7 C           7.3453   -6.2316   27.2202 C.3     1  UNL1        0.0725
      8 C           6.7278   -4.8783   27.4136 C.3     1  UNL1        0.0614
      9 O           6.1103   -3.5250   27.6069 O.3     1  UNL1       -0.4785
     10 C           5.4928   -2.1718   27.8003 C.ar    1  UNL1        0.1386
     11 C           4.9781   -1.4063   26.6174 C.ar    1  UNL1        0.0369
     12 C           4.3606   -0.0530   26.8107 C.ar    1  UNL1        0.0031
     13 C           4.2578    0.5347   28.1870 C.ar    1  UNL1        0.0002
     14 C           4.7724   -0.2307   29.3698 C.ar    1  UNL1        0.0030
     15 C           5.3899   -1.5840   29.1765 C.ar    1  UNL1        0.0338
     16 H           7.3549   -7.8830   28.4228 H       1  UNL1        0.1233
     17 C           5.5960   -0.5862   34.4880 C.ar    1  UNL1        0.0810
     18 C           4.5601   -1.5595   34.0087 C.ar    1  UNL1        0.0068
     19 C           4.6630   -2.1472   32.6325 C.ar    1  UNL1        0.0003
     20 C           5.8017   -1.7618   31.7355 C.ar    1  UNL1        0.0021
     21 C           6.8377   -0.7885   32.2147 C.ar    1  UNL1        0.0298
     22 C           6.7348   -0.2007   33.5910 C.ar    1  UNL1        0.1445
     23 F           7.7707    0.7725   34.0702 F       1  UNL1       -0.2040
     24 N           4.5941    1.1762   36.1128 N.am    1  UNL1       -0.2760
     25 C           5.4931    0.0015   35.8642 C.2     1  UNL1        0.2512
     26 O           6.2894   -0.5855   36.9918 O.2     1  UNL1       -0.2698
     27 C           3.6018    1.1238   38.5133 C.3     1  UNL1        0.0233
     28 C           4.4912    1.7639   37.4890 C.3     1  UNL1        0.0938
     29 C           3.7978    1.7632   34.9851 C.3     1  UNL1        0.0938
     30 C           2.6033    2.6219   35.2778 C.3     1  UNL1        0.0233
@<TRIPOS>BOND
     1    27    28    1
     2    28    24    1
     3    24    29    1
     4    29    30    1
     5    24    25   am
     6    25    26    2
     7    25    17    1
     8    17    18   ar
     9    18    19   ar
    10    19    20   ar
    11    20     1    1
    12     1     2    2
    13     2     3    1
    14     3     4    1
    15     4     5    1
    16     5     6    1
    17     6     7    1
    18     7     8    1
    19     3     9    1
    20     9    10    1
    21    10    11   ar
    22    11    12   ar
    23    12    13   ar
    24    13    14   ar
    25    14    15   ar
    26    20    21   ar
    27    21    22   ar
    28    22    23    1
    29    22    17   ar
    30    15     1    1
    31     8     3    1
    32    15    10   ar
    33     6    16    1
