@<TRIPOS>MOLECULE
*****
 32 35 0 0 0
SMALL
GASTEIGER

@<TRIPOS>ATOM
      1 C          -7.6251  -17.4255   23.0279 C.ar    1  UNL1        0.0537
      2 C          -9.0774  -17.7580   22.8536 C.ar    1  UNL1        0.0045
      3 C         -10.0813  -17.2858   23.8631 C.ar    1  UNL1        0.0002
      4 C          -9.6331  -16.4812   25.0469 C.ar    1  UNL1        0.0000
      5 C          -8.1808  -16.1487   25.2214 C.ar    1  UNL1        0.0001
      6 C          -7.7325  -15.3441   26.4053 C.ar    1  UNL1        0.0000
      7 C          -6.2803  -15.0117   26.5797 C.ar    1  UNL1        0.0000
      8 C          -5.2763  -15.4839   25.5702 C.ar    1  UNL1        0.0000
      9 C          -5.7246  -16.2885   24.3863 C.ar    1  UNL1        0.0001
     10 C          -7.1768  -16.6209   24.2119 C.ar    1  UNL1        0.0044
     11 C         -11.5337  -17.6182   23.6886 C.ar    1  UNL1        0.0008
     12 C         -12.1541  -17.5757   22.3237 C.ar    1  UNL1        0.0001
     13 C         -13.6063  -17.9081   22.1493 C.ar    1  UNL1        0.0009
     14 C         -14.4381  -18.2831   23.3399 C.ar    1  UNL1        0.0114
     15 C         -13.8177  -18.3257   24.7048 C.ar    1  UNL1        0.0577
     16 CL        -14.6495  -18.7007   25.8954 Cl      1  UNL1       -0.0822
     17 C         -12.3654  -17.9932   24.8792 C.ar    1  UNL1        0.0114
     18 N          -5.3178  -18.4836   22.4743 N.am    1  UNL1       -0.2809
     19 C          -6.6212  -17.8977   22.0184 C.2     1  UNL1        0.2495
     20 O          -6.9206  -17.7840   20.5530 O.2     1  UNL1       -0.2698
     21 H          -5.1213  -18.5583   23.4361 H       1  UNL1        0.1552
     22 C          -5.9326  -20.8556   20.7435 C.3     1  UNL1        0.0323
     23 C          -4.6213  -20.1418   20.5994 C.ar    1  UNL1       -0.0087
     24 C          -3.6173  -20.6140   19.5899 C.ar    1  UNL1       -0.0030
     25 C          -2.3059  -19.9001   19.4458 C.ar    1  UNL1        0.0006
     26 C          -1.9985  -18.7142   20.3112 C.ar    1  UNL1        0.0112
     27 C          -3.0025  -18.2420   21.3207 C.ar    1  UNL1       -0.0076
     28 C          -2.6950  -17.0560   22.1862 C.3     1  UNL1        0.0324
     29 C          -4.3138  -18.9558   21.4648 C.ar    1  UNL1        0.0425
     30 C          -0.6871  -18.0004   20.1672 C.2     1  UNL1        0.0726
     31 O           0.5618  -18.7778   19.8742 O.co2   1  UNL1       -0.5446
     32 O          -0.6246  -16.5091   20.3161 O.co2   1  UNL1       -0.5446
@<TRIPOS>UNITY_ATOM_ATTR
31 1
charge -1
@<TRIPOS>BOND
     1    22    23    1
     2    23    24   ar
     3    24    25   ar
     4    25    26   ar
     5    26    30    1
     6    30    31   ar
     7    30    32   ar
     8    26    27   ar
     9    27    28    1
    10    27    29   ar
    11    29    18    1
    12    18    19   am
    13    19    20    2
    14    19     1    1
    15     1     2   ar
    16     2     3   ar
    17     3    11    1
    18    11    12   ar
    19    12    13   ar
    20    13    14   ar
    21    14    15   ar
    22    15    16    1
    23    15    17   ar
    24     3     4   ar
    25     4     5   ar
    26     5     6   ar
    27     6     7   ar
    28     7     8   ar
    29     8     9   ar
    30     9    10   ar
    31    29    23   ar
    32    10     1   ar
    33    17    11   ar
    34    10     5   ar
    35    18    21    1
@<TRIPOS>MOLECULE
*****
 32 35 0 0 0
SMALL
GASTEIGER

@<TRIPOS>ATOM
      1 C           6.8908   -4.1420   25.1505 C.ar    1  UNL1        0.0537
      2 C           6.6684   -3.9365   26.6196 C.ar    1  UNL1        0.0045
      3 C           7.2830   -4.8803   27.6104 C.ar    1  UNL1        0.0002
      4 C           8.1199   -6.0294   27.1321 C.ar    1  UNL1        0.0000
      5 C           8.3424   -6.2349   25.6629 C.ar    1  UNL1        0.0001
      6 C           9.1794   -7.3841   25.1846 C.ar    1  UNL1        0.0000
      7 C           9.4018   -7.5896   23.7155 C.ar    1  UNL1        0.0000
      8 C           8.7872   -6.6458   22.7247 C.ar    1  UNL1        0.0000
      9 C           7.9503   -5.4966   23.2030 C.ar    1  UNL1        0.0001
     10 C           7.7279   -5.2912   24.6721 C.ar    1  UNL1        0.0044
     11 C           7.0605   -4.6748   29.0795 C.ar    1  UNL1        0.0008
     12 C           7.2278   -5.8221   30.0311 C.ar    1  UNL1        0.0001
     13 C           7.0053   -5.6166   31.5002 C.ar    1  UNL1        0.0009
     14 C           6.6156   -4.2637   32.0177 C.ar    1  UNL1        0.0114
     15 C           6.4483   -3.1164   31.0661 C.ar    1  UNL1        0.0577
     16 CL          6.0585   -1.7635   31.5836 Cl      1  UNL1       -0.0822
     17 C           6.6707   -3.3219   29.5970 C.ar    1  UNL1        0.0114
     18 N           4.8639   -3.4081   23.7004 N.am    1  UNL1       -0.2809
     19 C           6.2763   -3.1982   24.1597 C.2     1  UNL1        0.2495
     20 O           7.0742   -2.0446   23.6281 O.2     1  UNL1       -0.2698
     21 H           4.3402   -4.1652   24.0492 H       1  UNL1        0.1552
     22 C           4.9917   -4.0210   20.7664 C.3     1  UNL1        0.0323
     23 C           4.3132   -2.7708   21.2426 C.ar    1  UNL1       -0.0087
     24 C           3.6987   -1.8271   20.2518 C.ar    1  UNL1       -0.0030
     25 C           3.0202   -0.5768   20.7280 C.ar    1  UNL1        0.0006
     26 C           2.9563   -0.2704   22.1949 C.ar    1  UNL1        0.0112
     27 C           3.5709   -1.2142   23.1857 C.ar    1  UNL1       -0.0076
     28 C           3.5070   -0.9077   24.6528 C.3     1  UNL1        0.0324
     29 C           4.2493   -2.4643   22.7096 C.ar    1  UNL1        0.0425
     30 C           2.2779    0.9798   22.6712 C.2     1  UNL1        0.0726
     31 O           0.7840    1.0197   22.8005 O.co2   1  UNL1       -0.5446
     32 O           3.0933    2.1901   23.0180 O.co2   1  UNL1       -0.5446
@<TRIPOS>UNITY_ATOM_ATTR
31 1
charge -1
@<TRIPOS>BOND
     1    22    23    1
     2    23    24   ar
     3    24    25   ar
     4    25    26   ar
     5    26    30    1
     6    30    31   ar
     7    30    32   ar
     8    26    27   ar
     9    27    28    1
    10    27    29   ar
    11    29    18    1
    12    18    19   am
    13    19    20    2
    14    19     1    1
    15     1     2   ar
    16     2     3   ar
    17     3    11    1
    18    11    12   ar
    19    12    13   ar
    20    13    14   ar
    21    14    15   ar
    22    15    16    1
    23    15    17   ar
    24     3     4   ar
    25     4     5   ar
    26     5     6   ar
    27     6     7   ar
    28     7     8   ar
    29     8     9   ar
    30     9    10   ar
    31    29    23   ar
    32    10     1   ar
    33    17    11   ar
    34    10     5   ar
    35    18    21    1
@<TRIPOS>MOLECULE
*****
 32 35 0 0 0
SMALL
GASTEIGER

@<TRIPOS>ATOM
      1 C           0.7363    1.1566   22.2657 C.ar    1  UNL1        0.0537
      2 C           0.9163    0.8431   23.7214 C.ar    1  UNL1        0.0045
      3 C           0.2745    1.7134   24.7610 C.ar    1  UNL1        0.0002
      4 C          -0.5472    2.8972   24.3448 C.ar    1  UNL1        0.0000
      5 C          -0.7273    3.2108   22.8890 C.ar    1  UNL1        0.0001
      6 C          -1.5490    4.3946   22.4728 C.ar    1  UNL1        0.0000
      7 C          -1.7290    4.7081   21.0171 C.ar    1  UNL1        0.0000
      8 C          -1.0872    3.8378   19.9775 C.ar    1  UNL1        0.0000
      9 C          -0.2655    2.6540   20.3937 C.ar    1  UNL1        0.0001
     10 C          -0.0855    2.3405   21.8494 C.ar    1  UNL1        0.0044
     11 C           0.4546    1.3998   26.2168 C.ar    1  UNL1        0.0008
     12 C           1.8091    1.5245   26.8490 C.ar    1  UNL1        0.0001
     13 C           1.9891    1.2109   28.3047 C.ar    1  UNL1        0.0009
     14 C           0.8145    0.7727   29.1283 C.ar    1  UNL1        0.0114
     15 C          -0.5400    0.6479   28.4962 C.ar    1  UNL1        0.0577
     16 CL         -1.7146    0.2097   29.3198 Cl      1  UNL1       -0.0822
     17 C          -0.7200    0.9615   27.0404 C.ar    1  UNL1        0.0114
     18 N           2.8690    0.2892   21.0619 N.am    1  UNL1       -0.2809
     19 C           1.3781    0.2863   21.2261 C.2     1  UNL1        0.2495
     20 O           0.5288   -0.5869   20.3506 O.2     1  UNL1       -0.2698
     21 H           3.4264    0.8623   21.6365 H       1  UNL1        0.1552
     22 C           3.1111    1.2605   18.2339 C.3     1  UNL1        0.0323
     23 C           3.6318   -0.0954   18.6083 C.ar    1  UNL1       -0.0087
     24 C           4.2736   -0.9657   17.5687 C.ar    1  UNL1       -0.0030
     25 C           4.7944   -2.3217   17.9432 C.ar    1  UNL1        0.0006
     26 C           4.6733   -2.8073   19.3572 C.ar    1  UNL1        0.0112
     27 C           4.0316   -1.9370   20.3968 C.ar    1  UNL1       -0.0076
     28 C           3.9106   -2.4227   21.8109 C.3     1  UNL1        0.0324
     29 C           3.5108   -0.5811   20.0224 C.ar    1  UNL1        0.0425
     30 C           5.1941   -4.1633   19.7317 C.2     1  UNL1        0.0726
     31 O           6.4862   -4.2892   20.4832 O.co2   1  UNL1       -0.5446
     32 O           4.4228   -5.3933   19.3548 O.co2   1  UNL1       -0.5446
@<TRIPOS>UNITY_ATOM_ATTR
31 1
charge -1
@<TRIPOS>BOND
     1    22    23    1
     2    23    24   ar
     3    24    25   ar
     4    25    26   ar
     5    26    30    1
     6    30    31   ar
     7    30    32   ar
     8    26    27   ar
     9    27    28    1
    10    27    29   ar
    11    29    18    1
    12    18    19   am
    13    19    20    2
    14    19     1    1
    15     1     2   ar
    16     2     3   ar
    17     3    11    1
    18    11    12   ar
    19    12    13   ar
    20    13    14   ar
    21    14    15   ar
    22    15    16    1
    23    15    17   ar
    24     3     4   ar
    25     4     5   ar
    26     5     6   ar
    27     6     7   ar
    28     7     8   ar
    29     8     9   ar
    30     9    10   ar
    31    29    23   ar
    32    10     1   ar
    33    17    11   ar
    34    10     5   ar
    35    18    21    1
@<TRIPOS>MOLECULE
*****
 32 35 0 0 0
SMALL
GASTEIGER

@<TRIPOS>ATOM
      1 C          -1.5174    3.6336   20.2342 C.ar    1  UNL1        0.0537
      2 C          -0.5289    2.5184   20.4043 C.ar    1  UNL1        0.0045
      3 C           0.2872    2.0545   19.2343 C.ar    1  UNL1        0.0002
      4 C           0.1147    2.7059   17.8942 C.ar    1  UNL1        0.0000
      5 C          -0.8739    3.8212   17.7241 C.ar    1  UNL1        0.0001
      6 C          -1.0463    4.4726   16.3840 C.ar    1  UNL1        0.0000
      7 C          -2.0348    5.5879   16.2139 C.ar    1  UNL1        0.0000
      8 C          -2.8509    6.0517   17.3838 C.ar    1  UNL1        0.0000
      9 C          -2.6785    5.4003   18.7239 C.ar    1  UNL1        0.0001
     10 C          -1.6899    4.2851   18.8940 C.ar    1  UNL1        0.0044
     11 C           1.2758    0.9392   19.4045 C.ar    1  UNL1        0.0008
     12 C           1.3301    0.1755   20.6944 C.ar    1  UNL1        0.0001
     13 C           2.3187   -0.9397   20.8645 C.ar    1  UNL1        0.0009
     14 C           3.2528   -1.2913   19.7447 C.ar    1  UNL1        0.0114
     15 C           3.1984   -0.5275   18.4549 C.ar    1  UNL1        0.0577
     16 CL          4.1326   -0.8791   17.3352 Cl      1  UNL1       -0.0822
     17 C           2.2099    0.5877   18.2848 C.ar    1  UNL1        0.0114
     18 N          -3.3811    3.1988   21.9913 N.am    1  UNL1       -0.2809
     19 C          -2.3335    4.0975   21.4042 C.2     1  UNL1        0.2495
     20 O          -2.1019    5.4601   21.9870 O.2     1  UNL1       -0.2698
     21 H          -3.5331    2.3045   21.6088 H       1  UNL1        0.1552
     22 C          -2.2161    3.1283   24.7550 C.3     1  UNL1        0.0323
     23 C          -3.6147    3.6274   24.5432 C.ar    1  UNL1       -0.0087
     24 C          -4.4307    4.0912   25.7131 C.ar    1  UNL1       -0.0030
     25 C          -5.8294    4.5903   25.5013 C.ar    1  UNL1        0.0006
     26 C          -6.4118    4.6256   24.1195 C.ar    1  UNL1        0.0112
     27 C          -5.5958    4.1617   22.9495 C.ar    1  UNL1       -0.0076
     28 C          -6.1783    4.1970   21.5676 C.3     1  UNL1        0.0324
     29 C          -4.1972    3.6626   23.1613 C.ar    1  UNL1        0.0425
     30 C          -7.8105    5.1247   23.9076 C.2     1  UNL1        0.0726
     31 O          -8.0706    6.5966   23.7827 O.co2   1  UNL1       -0.5446
     32 O          -8.9488    4.1518   23.8206 O.co2   1  UNL1       -0.5446
@<TRIPOS>UNITY_ATOM_ATTR
31 1
charge -1
@<TRIPOS>BOND
     1    22    23    1
     2    23    24   ar
     3    24    25   ar
     4    25    26   ar
     5    26    30    1
     6    30    31   ar
     7    30    32   ar
     8    26    27   ar
     9    27    28    1
    10    27    29   ar
    11    29    18    1
    12    18    19   am
    13    19    20    2
    14    19     1    1
    15     1     2   ar
    16     2     3   ar
    17     3    11    1
    18    11    12   ar
    19    12    13   ar
    20    13    14   ar
    21    14    15   ar
    22    15    16    1
    23    15    17   ar
    24     3     4   ar
    25     4     5   ar
    26     5     6   ar
    27     6     7   ar
    28     7     8   ar
    29     8     9   ar
    30     9    10   ar
    31    29    23   ar
    32    10     1   ar
    33    17    11   ar
    34    10     5   ar
    35    18    21    1
@<TRIPOS>MOLECULE
*****
 32 35 0 0 0
SMALL
GASTEIGER

@<TRIPOS>ATOM
      1 C           1.9152    0.7922   23.9405 C.ar    1  UNL1        0.0537
      2 C           2.7759   -0.2937   23.3661 C.ar    1  UNL1        0.0045
      3 C           2.6399   -0.6733   21.9213 C.ar    1  UNL1        0.0002
      4 C           1.6432    0.0331   21.0509 C.ar    1  UNL1        0.0000
      5 C           0.7825    1.1190   21.6253 C.ar    1  UNL1        0.0001
      6 C          -0.2142    1.8254   20.7549 C.ar    1  UNL1        0.0000
      7 C          -1.0749    2.9113   21.3293 C.ar    1  UNL1        0.0000
      8 C          -0.9389    3.2909   22.7741 C.ar    1  UNL1        0.0000
      9 C           0.0577    2.5845   23.6445 C.ar    1  UNL1        0.0001
     10 C           0.9184    1.4986   23.0701 C.ar    1  UNL1        0.0044
     11 C           3.5007   -1.7592   21.3470 C.ar    1  UNL1        0.0008
     12 C           3.2652   -2.2409   19.9461 C.ar    1  UNL1        0.0001
     13 C           4.1260   -3.3268   19.3718 C.ar    1  UNL1        0.0009
     14 C           5.2221   -3.9311   20.1984 C.ar    1  UNL1        0.0114
     15 C           5.4576   -3.4494   21.5993 C.ar    1  UNL1        0.0577
     16 CL          6.5537   -4.0537   22.4259 Cl      1  UNL1       -0.0822
     17 C           4.5968   -2.3635   22.1736 C.ar    1  UNL1        0.0114
     18 N           1.2231    0.4762   26.4247 N.am    1  UNL1       -0.2809
     19 C           2.0512    1.1718   25.3853 C.2     1  UNL1        0.2495
     20 O           3.0154    2.2470   25.7907 O.2     1  UNL1       -0.2698
     21 H           0.5903   -0.2295   26.1586 H       1  UNL1        0.1552
     22 C          -0.5286    2.6180   27.5842 C.3     1  UNL1        0.0323
     23 C           0.4832    1.9267   28.4492 C.ar    1  UNL1       -0.0087
     24 C           0.6192    2.3063   29.8940 C.ar    1  UNL1       -0.0030
     25 C           1.6310    1.6149   30.7591 C.ar    1  UNL1        0.0006
     26 C           2.5069    0.5441   30.1793 C.ar    1  UNL1        0.0112
     27 C           2.3709    0.1645   28.7345 C.ar    1  UNL1       -0.0076
     28 C           3.2468   -0.9064   28.1547 C.3     1  UNL1        0.0324
     29 C           1.3591    0.8558   27.8695 C.ar    1  UNL1        0.0425
     30 C           3.5188   -0.1473   31.0443 C.2     1  UNL1        0.0726
     31 O           4.9010    0.4192   31.1807 O.co2   1  UNL1       -0.5446
     32 O           3.1484   -1.4050   31.7730 O.co2   1  UNL1       -0.5446
@<TRIPOS>UNITY_ATOM_ATTR
31 1
charge -1
@<TRIPOS>BOND
     1    22    23    1
     2    23    24   ar
     3    24    25   ar
     4    25    26   ar
     5    26    30    1
     6    30    31   ar
     7    30    32   ar
     8    26    27   ar
     9    27    28    1
    10    27    29   ar
    11    29    18    1
    12    18    19   am
    13    19    20    2
    14    19     1    1
    15     1     2   ar
    16     2     3   ar
    17     3    11    1
    18    11    12   ar
    19    12    13   ar
    20    13    14   ar
    21    14    15   ar
    22    15    16    1
    23    15    17   ar
    24     3     4   ar
    25     4     5   ar
    26     5     6   ar
    27     6     7   ar
    28     7     8   ar
    29     8     9   ar
    30     9    10   ar
    31    29    23   ar
    32    10     1   ar
    33    17    11   ar
    34    10     5   ar
    35    18    21    1
@<TRIPOS>MOLECULE
*****
 32 35 0 0 0
SMALL
GASTEIGER

@<TRIPOS>ATOM
      1 C           3.6021   -0.7094   25.0408 C.ar    1  UNL1        0.0537
      2 C           4.6831   -1.7493   25.0369 C.ar    1  UNL1        0.0045
      3 C           5.0243   -2.4719   23.7675 C.ar    1  UNL1        0.0002
      4 C           4.2845   -2.1545   22.5018 C.ar    1  UNL1        0.0000
      5 C           3.2034   -1.1146   22.5056 C.ar    1  UNL1        0.0001
      6 C           2.4636   -0.7972   21.2399 C.ar    1  UNL1        0.0000
      7 C           1.3827    0.2427   21.2437 C.ar    1  UNL1        0.0000
      8 C           1.0415    0.9653   22.5132 C.ar    1  UNL1        0.0000
      9 C           1.7813    0.6479   23.7789 C.ar    1  UNL1        0.0001
     10 C           2.8623   -0.3920   23.7751 C.ar    1  UNL1        0.0044
     11 C           6.1053   -3.5118   23.7637 C.ar    1  UNL1        0.0008
     12 C           6.4723   -4.2167   25.0359 C.ar    1  UNL1        0.0001
     13 C           7.5533   -5.2566   25.0321 C.ar    1  UNL1        0.0009
     14 C           8.2673   -5.5916   23.7561 C.ar    1  UNL1        0.0114
     15 C           7.9002   -4.8867   22.4840 C.ar    1  UNL1        0.0577
     16 CL          8.6142   -5.2218   21.2080 Cl      1  UNL1       -0.0822
     17 C           6.8193   -3.8468   22.4878 C.ar    1  UNL1        0.0114
     18 N           2.3848   -0.6441   27.3350 N.am    1  UNL1       -0.2809
     19 C           3.2610    0.0131   26.3102 C.2     1  UNL1        0.2495
     20 O           3.7961    1.3930   26.5548 O.2     1  UNL1       -0.2698
     21 H           2.0336   -1.5497   27.1745 H       1  UNL1        0.1552
     22 C          -0.1196    0.9994   27.4989 C.3     1  UNL1        0.0323
     23 C           0.7914    0.9002   28.6864 C.ar    1  UNL1       -0.0087
     24 C           0.4502    1.6228   29.9559 C.ar    1  UNL1       -0.0030
     25 C           1.3613    1.5236   31.1434 C.ar    1  UNL1        0.0006
     26 C           2.6135    0.7018   31.0614 C.ar    1  UNL1        0.0112
     27 C           2.9547   -0.0207   29.7920 C.ar    1  UNL1       -0.0076
     28 C           4.2069   -0.8425   29.7101 C.3     1  UNL1        0.0324
     29 C           2.0436    0.0785   28.6045 C.ar    1  UNL1        0.0425
     30 C           3.5246    0.6026   32.2490 C.2     1  UNL1        0.0726
     31 O           3.4758   -0.6086   33.1325 O.co2   1  UNL1       -0.5446
     32 O           4.4844    1.7145   32.5529 O.co2   1  UNL1       -0.5446
@<TRIPOS>UNITY_ATOM_ATTR
31 1
charge -1
@<TRIPOS>BOND
     1    22    23    1
     2    23    24   ar
     3    24    25   ar
     4    25    26   ar
     5    26    30    1
     6    30    31   ar
     7    30    32   ar
     8    26    27   ar
     9    27    28    1
    10    27    29   ar
    11    29    18    1
    12    18    19   am
    13    19    20    2
    14    19     1    1
    15     1     2   ar
    16     2     3   ar
    17     3    11    1
    18    11    12   ar
    19    12    13   ar
    20    13    14   ar
    21    14    15   ar
    22    15    16    1
    23    15    17   ar
    24     3     4   ar
    25     4     5   ar
    26     5     6   ar
    27     6     7   ar
    28     7     8   ar
    29     8     9   ar
    30     9    10   ar
    31    29    23   ar
    32    10     1   ar
    33    17    11   ar
    34    10     5   ar
    35    18    21    1
@<TRIPOS>MOLECULE
*****
 32 35 0 0 0
SMALL
GASTEIGER

@<TRIPOS>ATOM
      1 C           7.0581   -4.2970   25.1345 C.ar    1  UNL1        0.0537
      2 C           6.7757   -3.9679   26.5704 C.ar    1  UNL1        0.0045
      3 C           7.3192   -4.8425   27.6611 C.ar    1  UNL1        0.0002
      4 C           8.1452   -6.0461   27.3160 C.ar    1  UNL1        0.0000
      5 C           8.4276   -6.3752   25.8800 C.ar    1  UNL1        0.0001
      6 C           9.2535   -7.5787   25.5348 C.ar    1  UNL1        0.0000
      7 C           9.5359   -7.9078   24.0988 C.ar    1  UNL1        0.0000
      8 C           8.9923   -7.0332   23.0081 C.ar    1  UNL1        0.0000
      9 C           8.1664   -5.8296   23.3533 C.ar    1  UNL1        0.0001
     10 C           7.8840   -5.5006   24.7892 C.ar    1  UNL1        0.0044
     11 C           7.0368   -4.5134   29.0971 C.ar    1  UNL1        0.0008
     12 C           7.1799   -5.5710   30.1511 C.ar    1  UNL1        0.0001
     13 C           6.8975   -5.2419   31.5870 C.ar    1  UNL1        0.0009
     14 C           6.4720   -3.8552   31.9690 C.ar    1  UNL1        0.0114
     15 C           6.3289   -2.7975   30.9150 C.ar    1  UNL1        0.0577
     16 CL          5.9034   -1.4108   31.2969 Cl      1  UNL1       -0.0822
     17 C           6.6113   -3.1266   29.4791 C.ar    1  UNL1        0.0114
     18 N           7.4429   -2.5592   23.2418 N.am    1  UNL1       -0.2809
     19 C           6.5146   -3.4224   24.0437 C.2     1  UNL1        0.2495
     20 O           5.0426   -3.4111   23.7549 O.2     1  UNL1       -0.2698
     21 H           8.4089   -2.5666   23.4314 H       1  UNL1        0.1552
     22 C           6.9047    0.3437   23.7747 C.3     1  UNL1        0.0323
     23 C           6.6303   -0.2332   22.4176 C.ar    1  UNL1       -0.0087
     24 C           6.0867    0.6414   21.3268 C.ar    1  UNL1       -0.0030
     25 C           5.8123    0.0645   19.9696 C.ar    1  UNL1        0.0006
     26 C           6.0814   -1.3869   19.7032 C.ar    1  UNL1        0.0112
     27 C           6.6249   -2.2615   20.7940 C.ar    1  UNL1       -0.0076
     28 C           6.8940   -3.7129   20.5275 C.3     1  UNL1        0.0324
     29 C           6.8993   -1.6846   22.1511 C.ar    1  UNL1        0.0425
     30 C           5.8069   -1.9638   18.3460 C.2     1  UNL1        0.0726
     31 O           6.9420   -2.2415   17.4056 O.co2   1  UNL1       -0.5446
     32 O           4.3974   -2.2630   17.9293 O.co2   1  UNL1       -0.5446
@<TRIPOS>UNITY_ATOM_ATTR
31 1
charge -1
@<TRIPOS>BOND
     1    22    23    1
     2    23    24   ar
     3    24    25   ar
     4    25    26   ar
     5    26    30    1
     6    30    31   ar
     7    30    32   ar
     8    26    27   ar
     9    27    28    1
    10    27    29   ar
    11    29    18    1
    12    18    19   am
    13    19    20    2
    14    19     1    1
    15     1     2   ar
    16     2     3   ar
    17     3    11    1
    18    11    12   ar
    19    12    13   ar
    20    13    14   ar
    21    14    15   ar
    22    15    16    1
    23    15    17   ar
    24     3     4   ar
    25     4     5   ar
    26     5     6   ar
    27     6     7   ar
    28     7     8   ar
    29     8     9   ar
    30     9    10   ar
    31    29    23   ar
    32    10     1   ar
    33    17    11   ar
    34    10     5   ar
    35    18    21    1
@<TRIPOS>MOLECULE
*****
 32 35 0 0 0
SMALL
GASTEIGER

@<TRIPOS>ATOM
      1 C           3.6320   -0.7298   24.0622 C.ar    1  UNL1        0.0537
      2 C           4.6459   -1.6734   24.6380 C.ar    1  UNL1        0.0045
      3 C           5.2234   -2.7648   23.7864 C.ar    1  UNL1        0.0002
      4 C           4.7870   -2.9126   22.3590 C.ar    1  UNL1        0.0000
      5 C           3.7731   -1.9690   21.7830 C.ar    1  UNL1        0.0001
      6 C           3.3367   -2.1168   20.3556 C.ar    1  UNL1        0.0000
      7 C           2.3229   -1.1732   19.7797 C.ar    1  UNL1        0.0000
      8 C           1.7453   -0.0818   20.6314 C.ar    1  UNL1        0.0000
      9 C           2.1817    0.0660   22.0588 C.ar    1  UNL1        0.0001
     10 C           3.1956   -0.8776   22.6347 C.ar    1  UNL1        0.0044
     11 C           6.2373   -3.7084   24.3623 C.ar    1  UNL1        0.0008
     12 C           6.9464   -4.6834   23.4699 C.ar    1  UNL1        0.0001
     13 C           7.9603   -5.6270   24.0458 C.ar    1  UNL1        0.0009
     14 C           8.2651   -5.5955   25.5142 C.ar    1  UNL1        0.0114
     15 C           7.5560   -4.6205   26.4066 C.ar    1  UNL1        0.0577
     16 CL          7.8608   -4.5890   27.8750 Cl      1  UNL1       -0.0822
     17 C           6.5421   -3.6769   25.8307 C.ar    1  UNL1        0.0114
     18 N           1.6491    0.2492   25.4259 N.am    1  UNL1       -0.2809
     19 C           3.0545    0.3617   24.9138 C.2     1  UNL1        0.2495
     20 O           3.8824    1.5656   25.2533 O.2     1  UNL1       -0.2698
     21 H           1.1058   -0.5410   25.2031 H       1  UNL1        0.1552
     22 C           0.1107    2.4889   24.1543 C.3     1  UNL1        0.0323
     23 C           0.3024    2.4605   25.6417 C.ar    1  UNL1       -0.0087
     24 C          -0.2751    3.5519   26.4933 C.ar    1  UNL1       -0.0030
     25 C          -0.0834    3.5235   27.9808 C.ar    1  UNL1        0.0006
     26 C           0.6858    2.4036   28.6166 C.ar    1  UNL1        0.0112
     27 C           1.2633    1.3122   27.7650 C.ar    1  UNL1       -0.0076
     28 C           2.0326    0.1923   28.4008 C.3     1  UNL1        0.0324
     29 C           1.0716    1.3406   26.2776 C.ar    1  UNL1        0.0425
     30 C           0.8775    2.3752   30.1041 C.2     1  UNL1        0.0726
     31 O           1.9638    3.1941   30.7360 O.co2   1  UNL1       -0.5446
     32 O          -0.0171    1.5279   30.9595 O.co2   1  UNL1       -0.5446
@<TRIPOS>UNITY_ATOM_ATTR
31 1
charge -1
@<TRIPOS>BOND
     1    22    23    1
     2    23    24   ar
     3    24    25   ar
     4    25    26   ar
     5    26    30    1
     6    30    31   ar
     7    30    32   ar
     8    26    27   ar
     9    27    28    1
    10    27    29   ar
    11    29    18    1
    12    18    19   am
    13    19    20    2
    14    19     1    1
    15     1     2   ar
    16     2     3   ar
    17     3    11    1
    18    11    12   ar
    19    12    13   ar
    20    13    14   ar
    21    14    15   ar
    22    15    16    1
    23    15    17   ar
    24     3     4   ar
    25     4     5   ar
    26     5     6   ar
    27     6     7   ar
    28     7     8   ar
    29     8     9   ar
    30     9    10   ar
    31    29    23   ar
    32    10     1   ar
    33    17    11   ar
    34    10     5   ar
    35    18    21    1
@<TRIPOS>MOLECULE
*****
 32 35 0 0 0
SMALL
GASTEIGER

@<TRIPOS>ATOM
      1 C           4.0600   -1.0944   24.1832 C.ar    1  UNL1        0.0537
      2 C           5.0494   -2.0442   24.7905 C.ar    1  UNL1        0.0045
      3 C           5.5916   -3.1830   23.9786 C.ar    1  UNL1        0.0002
      4 C           5.1443   -3.3719   22.5594 C.ar    1  UNL1        0.0000
      5 C           4.1548   -2.4221   21.9520 C.ar    1  UNL1        0.0001
      6 C           3.7076   -2.6111   20.5328 C.ar    1  UNL1        0.0000
      7 C           2.7181   -1.6613   19.9255 C.ar    1  UNL1        0.0000
      8 C           2.1760   -0.5225   20.7375 C.ar    1  UNL1        0.0000
      9 C           2.6232   -0.3335   22.1567 C.ar    1  UNL1        0.0001
     10 C           3.6127   -1.2833   22.7640 C.ar    1  UNL1        0.0044
     11 C           6.5811   -4.1328   24.5859 C.ar    1  UNL1        0.0008
     12 C           7.4056   -5.0225   23.7036 C.ar    1  UNL1        0.0001
     13 C           8.3950   -5.9722   24.3109 C.ar    1  UNL1        0.0009
     14 C           8.5599   -6.0323   25.8006 C.ar    1  UNL1        0.0114
     15 C           7.7354   -5.1427   26.6830 C.ar    1  UNL1        0.0577
     16 CL          7.9002   -5.2028   28.1727 Cl      1  UNL1       -0.0822
     17 C           6.7460   -4.1929   26.0756 C.ar    1  UNL1        0.0114
     18 N           2.4301   -0.2009   25.9985 N.am    1  UNL1       -0.2809
     19 C           3.5178    0.0444   24.9952 C.2     1  UNL1        0.2495
     20 O           4.0634    1.4286   24.8037 O.2     1  UNL1       -0.2698
     21 H           2.0721   -1.1093   26.1242 H       1  UNL1        0.1552
     22 C           3.6550    0.4639   28.6552 C.3     1  UNL1        0.0323
     23 C           2.5004    1.2703   28.1388 C.ar    1  UNL1       -0.0087
     24 C           1.9583    2.4090   28.9508 C.ar    1  UNL1       -0.0030
     25 C           0.8036    3.2154   28.4343 C.ar    1  UNL1        0.0006
     26 C           0.1912    2.8830   27.1060 C.ar    1  UNL1        0.0112
     27 C           0.7334    1.7442   26.2941 C.ar    1  UNL1       -0.0076
     28 C           0.1209    1.4119   24.9657 C.3     1  UNL1        0.0324
     29 C           1.8880    0.9379   26.8105 C.ar    1  UNL1        0.0425
     30 C          -0.9634    3.6894   26.5896 C.2     1  UNL1        0.0726
     31 O          -0.7128    4.9739   25.8565 O.co2   1  UNL1       -0.5446
     32 O          -2.3685    3.2113   26.8062 O.co2   1  UNL1       -0.5446
@<TRIPOS>UNITY_ATOM_ATTR
31 1
charge -1
@<TRIPOS>BOND
     1    22    23    1
     2    23    24   ar
     3    24    25   ar
     4    25    26   ar
     5    26    30    1
     6    30    31   ar
     7    30    32   ar
     8    26    27   ar
     9    27    28    1
    10    27    29   ar
    11    29    18    1
    12    18    19   am
    13    19    20    2
    14    19     1    1
    15     1     2   ar
    16     2     3   ar
    17     3    11    1
    18    11    12   ar
    19    12    13   ar
    20    13    14   ar
    21    14    15   ar
    22    15    16    1
    23    15    17   ar
    24     3     4   ar
    25     4     5   ar
    26     5     6   ar
    27     6     7   ar
    28     7     8   ar
    29     8     9   ar
    30     9    10   ar
    31    29    23   ar
    32    10     1   ar
    33    17    11   ar
    34    10     5   ar
    35    18    21    1
