@<TRIPOS>MOLECULE
*****
 25 27 0 0 0
SMALL
GASTEIGER

@<TRIPOS>ATOM
      1 C          -4.6760  -15.4072   24.2064 C.3     1  UNL1        0.0522
      2 C          -5.2507  -16.6051   23.5101 C.ar    1  UNL1        0.0625
      3 C          -4.3531  -17.5261   22.7381 C.ar    1  UNL1        0.0522
      4 C          -4.9278  -18.7240   22.0418 C.ar    1  UNL1        0.1483
      5 C          -6.4001  -19.0008   22.1174 C.ar    1  UNL1        0.0612
      6 C          -7.2976  -18.0797   22.8893 C.ar    1  UNL1        0.1374
      7 N          -6.7229  -16.8819   23.5856 N.ar    1  UNL1       -0.2449
      8 C          -8.7700  -18.3564   22.9649 C.2     1  UNL1        0.2684
      9 O          -9.3491  -19.5375   22.2439 O.2     1  UNL1       -0.2681
     10 N          -9.6631  -17.4522   23.7615 N.am    1  UNL1       -0.2646
     11 H          -9.2830  -16.6771   24.2347 H       1  UNL1        0.1566
     12 C         -11.1355  -17.7290   23.8371 C.ar    1  UNL1        0.1345
     13 C         -12.0590  -17.1646   22.7986 C.ar    1  UNL1        0.0354
     14 C         -13.5313  -17.4413   22.8743 C.ar    1  UNL1        0.0158
     15 C         -14.0800  -18.2825   23.9885 C.ar    1  UNL1        0.0769
     16 CL        -15.5524  -18.5592   24.0641 Cl      1  UNL1       -0.0806
     17 C         -13.1565  -18.8469   25.0270 C.ar    1  UNL1        0.1116
     18 N         -11.6843  -18.5701   24.9513 N.ar    1  UNL1       -0.2281
     19 O          -4.0301  -19.6451   21.2698 O.3     1  UNL1       -0.4502
     20 C          -2.8262  -19.0991   20.5610 C.ar    1  UNL1        0.1835
     21 C          -2.9381  -18.6399   19.1373 C.ar    1  UNL1        0.1396
     22 N          -1.7342  -18.0939   18.4286 N.ar    1  UNL1       -0.2192
     23 C          -0.4183  -18.0071   19.1434 C.ar    1  UNL1        0.1991
     24 N          -0.3064  -18.4662   20.5670 N.ar    1  UNL1       -0.2192
     25 C          -1.5103  -19.0122   21.2758 C.ar    1  UNL1        0.1396
@<TRIPOS>BOND
     1     1     2    1
     2     2     3   ar
     3     3     4   ar
     4     4    19    1
     5    19    20    1
     6    20    21   ar
     7    21    22   ar
     8    22    23   ar
     9    23    24   ar
    10    24    25   ar
    11     4     5   ar
    12     5     6   ar
    13     6     8    1
    14     8     9    2
    15     8    10   am
    16    10    12    1
    17    12    13   ar
    18    13    14   ar
    19    14    15   ar
    20    15    16    1
    21    15    17   ar
    22    17    18   ar
    23     6     7   ar
    24     7     2   ar
    25    25    20   ar
    26    18    12   ar
    27    10    11    1
@<TRIPOS>MOLECULE
*****
 25 27 0 0 0
SMALL
GASTEIGER

@<TRIPOS>ATOM
      1 C           4.8155   -2.7734   33.2635 C.3     1  UNL1        0.0522
      2 C           4.3066   -1.3655   33.3573 C.ar    1  UNL1        0.0625
      3 C           4.6495   -0.5219   34.5492 C.ar    1  UNL1        0.0522
      4 C           4.1407    0.8860   34.6430 C.ar    1  UNL1        0.1483
      5 C           3.2889    1.4504   33.5448 C.ar    1  UNL1        0.0612
      6 C           2.9460    0.6068   32.3529 C.ar    1  UNL1        0.1374
      7 N           3.4549   -0.8012   32.2591 N.ar    1  UNL1       -0.2449
      8 C           2.0942    1.1711   31.2546 C.2     1  UNL1        0.2684
      9 O           1.3595    2.4620   31.4635 O.2     1  UNL1       -0.2681
     10 N           1.9773    0.4445   29.9476 N.am    1  UNL1       -0.2646
     11 H           2.4595   -0.4028   29.8106 H       1  UNL1        0.1566
     12 C           1.1255    1.0088   28.8494 C.ar    1  UNL1        0.1345
     13 C          -0.3593    0.7968   28.8676 C.ar    1  UNL1        0.0354
     14 C          -1.2110    1.3611   27.7694 C.ar    1  UNL1        0.0158
     15 C          -0.5779    2.1375   26.6530 C.ar    1  UNL1        0.0769
     16 CL         -1.4297    2.7018   25.5547 Cl      1  UNL1       -0.0806
     17 C           0.9068    2.3495   26.6347 C.ar    1  UNL1        0.1116
     18 N           1.7585    1.7852   27.7329 N.ar    1  UNL1       -0.2281
     19 O           4.4836    1.7296   35.8350 O.3     1  UNL1       -0.4502
     20 C           3.4917    1.8933   36.9483 C.ar    1  UNL1        0.1835
     21 C           3.5897    1.0323   38.1727 C.ar    1  UNL1        0.1396
     22 N           2.5978    1.1960   39.2859 N.ar    1  UNL1       -0.2192
     23 C           1.5080    2.2207   39.1748 C.ar    1  UNL1        0.1991
     24 N           1.4101    3.0817   37.9505 N.ar    1  UNL1       -0.2192
     25 C           2.4019    2.9180   36.8372 C.ar    1  UNL1        0.1396
@<TRIPOS>BOND
     1     1     2    1
     2     2     3   ar
     3     3     4   ar
     4     4    19    1
     5    19    20    1
     6    20    21   ar
     7    21    22   ar
     8    22    23   ar
     9    23    24   ar
    10    24    25   ar
    11     4     5   ar
    12     5     6   ar
    13     6     8    1
    14     8     9    2
    15     8    10   am
    16    10    12    1
    17    12    13   ar
    18    13    14   ar
    19    14    15   ar
    20    15    16    1
    21    15    17   ar
    22    17    18   ar
    23     6     7   ar
    24     7     2   ar
    25    25    20   ar
    26    18    12   ar
    27    10    11    1
@<TRIPOS>MOLECULE
*****
 25 27 0 0 0
SMALL
GASTEIGER

@<TRIPOS>ATOM
      1 C           9.0683   -7.7318   24.4405 C.3     1  UNL1        0.0522
      2 C           8.2032   -6.5165   24.5973 C.ar    1  UNL1        0.0625
      3 C           7.7338   -6.1008   25.9599 C.ar    1  UNL1        0.0522
      4 C           6.8686   -4.8855   26.1168 C.ar    1  UNL1        0.1483
      5 C           6.4729   -4.0859   24.9110 C.ar    1  UNL1        0.0612
      6 C           6.9423   -4.5016   23.5484 C.ar    1  UNL1        0.1374
      7 N           7.8075   -5.7169   23.3915 N.ar    1  UNL1       -0.2449
      8 C           6.5466   -3.7020   22.3425 C.2     1  UNL1        0.2684
      9 O           7.4987   -2.6983   21.7626 O.2     1  UNL1       -0.2681
     10 N           5.1989   -3.9060   21.7165 N.am    1  UNL1       -0.2646
     11 H           4.5740   -4.5648   22.0970 H       1  UNL1        0.1566
     12 C           4.8032   -3.1064   20.5106 C.ar    1  UNL1        0.1345
     13 C           3.7200   -2.0743   20.6175 C.ar    1  UNL1        0.0354
     14 C           3.3244   -1.2747   19.4116 C.ar    1  UNL1        0.0158
     15 C           4.0118   -1.5073   18.0989 C.ar    1  UNL1        0.0769
     16 CL          3.6161   -0.7077   16.8930 Cl      1  UNL1       -0.0806
     17 C           5.0950   -2.5394   17.9920 C.ar    1  UNL1        0.1116
     18 N           5.4906   -3.3390   19.1978 N.ar    1  UNL1       -0.2281
     19 O           6.3992   -4.4698   27.4795 O.3     1  UNL1       -0.4502
     20 C           7.2848   -4.6750   28.6727 C.ar    1  UNL1        0.1835
     21 C           6.8409   -5.5711   29.7908 C.ar    1  UNL1        0.1396
     22 N           7.7265   -5.7763   30.9840 N.ar    1  UNL1       -0.2192
     23 C           9.0559   -5.0855   31.0591 C.ar    1  UNL1        0.1991
     24 N           9.4996   -4.1895   29.9410 N.ar    1  UNL1       -0.2192
     25 C           8.6141   -3.9843   28.7478 C.ar    1  UNL1        0.1396
@<TRIPOS>BOND
     1     1     2    1
     2     2     3   ar
     3     3     4   ar
     4     4    19    1
     5    19    20    1
     6    20    21   ar
     7    21    22   ar
     8    22    23   ar
     9    23    24   ar
    10    24    25   ar
    11     4     5   ar
    12     5     6   ar
    13     6     8    1
    14     8     9    2
    15     8    10   am
    16    10    12    1
    17    12    13   ar
    18    13    14   ar
    19    14    15   ar
    20    15    16    1
    21    15    17   ar
    22    17    18   ar
    23     6     7   ar
    24     7     2   ar
    25    25    20   ar
    26    18    12   ar
    27    10    11    1
@<TRIPOS>MOLECULE
*****
 25 27 0 0 0
SMALL
GASTEIGER

@<TRIPOS>ATOM
      1 C          -5.6123  -21.5742   19.7250 C.3     1  UNL1        0.0522
      2 C          -5.7215  -20.4499   20.7118 C.ar    1  UNL1        0.0625
      3 C          -4.4923  -19.7020   21.1358 C.ar    1  UNL1        0.0522
      4 C          -4.6016  -18.5777   22.1227 C.ar    1  UNL1        0.1483
      5 C          -5.9400  -18.2011   22.6855 C.ar    1  UNL1        0.0612
      6 C          -7.1691  -18.9490   22.2615 C.ar    1  UNL1        0.1374
      7 N          -7.0599  -20.0733   21.2747 N.ar    1  UNL1       -0.2449
      8 C          -8.5076  -18.5725   22.8244 C.2     1  UNL1        0.2684
      9 O          -8.6372  -17.3685   23.7097 O.2     1  UNL1       -0.2681
     10 N          -9.7165  -19.3999   22.5020 N.am    1  UNL1       -0.2646
     11 H          -9.6314  -20.1901   21.9210 H       1  UNL1        0.1566
     12 C         -11.0550  -19.0234   23.0649 C.ar    1  UNL1        0.1345
     13 C         -12.0860  -18.3829   22.1835 C.ar    1  UNL1        0.0354
     14 C         -13.4244  -18.0064   22.7464 C.ar    1  UNL1        0.0158
     15 C         -13.7318  -18.2705   24.1906 C.ar    1  UNL1        0.0769
     16 CL        -15.0703  -17.8940   24.7535 Cl      1  UNL1       -0.0806
     17 C         -12.7009  -18.9110   25.0719 C.ar    1  UNL1        0.1116
     18 N         -11.3624  -19.2874   24.5091 N.ar    1  UNL1       -0.2281
     19 O          -3.3723  -17.8298   22.5467 O.3     1  UNL1       -0.4502
     20 C          -2.1962  -17.7338   21.6207 C.ar    1  UNL1        0.1835
     21 C          -1.6180  -16.3924   21.2793 C.ar    1  UNL1        0.1396
     22 N          -0.4418  -16.2964   20.3533 N.ar    1  UNL1       -0.2192
     23 C           0.1561  -17.5417   19.7687 C.ar    1  UNL1        0.1991
     24 N          -0.4221  -18.8830   20.1101 N.ar    1  UNL1       -0.2192
     25 C          -1.5982  -18.9790   21.0361 C.ar    1  UNL1        0.1396
@<TRIPOS>BOND
     1     1     2    1
     2     2     3   ar
     3     3     4   ar
     4     4    19    1
     5    19    20    1
     6    20    21   ar
     7    21    22   ar
     8    22    23   ar
     9    23    24   ar
    10    24    25   ar
    11     4     5   ar
    12     5     6   ar
    13     6     8    1
    14     8     9    2
    15     8    10   am
    16    10    12    1
    17    12    13   ar
    18    13    14   ar
    19    14    15   ar
    20    15    16    1
    21    15    17   ar
    22    17    18   ar
    23     6     7   ar
    24     7     2   ar
    25    25    20   ar
    26    18    12   ar
    27    10    11    1
@<TRIPOS>MOLECULE
*****
 25 27 0 0 0
SMALL
GASTEIGER

@<TRIPOS>ATOM
      1 C           9.2296   -0.7259   30.4839 C.3     1  UNL1        0.0522
      2 C           8.1525   -1.5632   31.1073 C.ar    1  UNL1        0.0625
      3 C           8.0066   -3.0056   30.7225 C.ar    1  UNL1        0.0522
      4 C           6.9294   -3.8429   31.3458 C.ar    1  UNL1        0.1483
      5 C           5.9981   -3.2378   32.3540 C.ar    1  UNL1        0.0612
      6 C           6.1440   -1.7954   32.7388 C.ar    1  UNL1        0.1374
      7 N           7.2211   -0.9581   32.1155 N.ar    1  UNL1       -0.2449
      8 C           5.2126   -1.1903   33.7471 C.2     1  UNL1        0.2684
      9 O           3.9349   -1.8908   34.1031 O.2     1  UNL1       -0.2681
     10 N           5.5590    0.1153   34.3992 N.am    1  UNL1       -0.2646
     11 H           6.3976    0.5751   34.1655 H       1  UNL1        0.1566
     12 C           4.6277    0.7205   35.4074 C.ar    1  UNL1        0.1345
     13 C           4.6759    0.2710   36.8377 C.ar    1  UNL1        0.0354
     14 C           3.7446    0.8762   37.8458 C.ar    1  UNL1        0.0158
     15 C           2.7651    1.9309   37.4237 C.ar    1  UNL1        0.0769
     16 CL          1.8337    2.5360   38.4319 Cl      1  UNL1       -0.0806
     17 C           2.7168    2.3803   35.9935 C.ar    1  UNL1        0.1116
     18 N           3.6481    1.7752   34.9854 N.ar    1  UNL1       -0.2281
     19 O           6.7836   -5.2854   30.9610 O.3     1  UNL1       -0.4502
     20 C           7.1118   -5.7261   29.5653 C.ar    1  UNL1        0.1835
     21 C           8.3274   -6.5674   29.3107 C.ar    1  UNL1        0.1396
     22 N           8.6556   -7.0081   27.9150 N.ar    1  UNL1       -0.2192
     23 C           7.7682   -6.6075   26.7738 C.ar    1  UNL1        0.1991
     24 N           6.5528   -5.7663   27.0284 N.ar    1  UNL1       -0.2192
     25 C           6.2245   -5.3256   28.4241 C.ar    1  UNL1        0.1396
@<TRIPOS>BOND
     1     1     2    1
     2     2     3   ar
     3     3     4   ar
     4     4    19    1
     5    19    20    1
     6    20    21   ar
     7    21    22   ar
     8    22    23   ar
     9    23    24   ar
    10    24    25   ar
    11     4     5   ar
    12     5     6   ar
    13     6     8    1
    14     8     9    2
    15     8    10   am
    16    10    12    1
    17    12    13   ar
    18    13    14   ar
    19    14    15   ar
    20    15    16    1
    21    15    17   ar
    22    17    18   ar
    23     6     7   ar
    24     7     2   ar
    25    25    20   ar
    26    18    12   ar
    27    10    11    1
@<TRIPOS>MOLECULE
*****
 25 27 0 0 0
SMALL
GASTEIGER

@<TRIPOS>ATOM
      1 C           4.5834    3.5868   17.9245 C.3     1  UNL1        0.0522
      2 C           3.7392    2.3977   18.2755 C.ar    1  UNL1        0.0625
      3 C           4.1713    1.0224   17.8611 C.ar    1  UNL1        0.0522
      4 C           3.3270   -0.1667   18.2121 C.ar    1  UNL1        0.1483
      5 C           2.0506    0.0195   18.9776 C.ar    1  UNL1        0.0612
      6 C           1.6184    1.3948   19.3920 C.ar    1  UNL1        0.1374
      7 N           2.4627    2.5839   19.0410 N.ar    1  UNL1       -0.2449
      8 C           0.3419    1.5810   20.1575 C.2     1  UNL1        0.2684
      9 O          -0.3313    0.4002   20.7919 O.2     1  UNL1       -0.2681
     10 N          -0.2614    2.9481   20.2885 N.am    1  UNL1       -0.2646
     11 H           0.1804    3.7231   19.8722 H       1  UNL1        0.1566
     12 C          -1.5379    3.1343   21.0540 C.ar    1  UNL1        0.1345
     13 C          -1.4944    3.5365   22.4984 C.ar    1  UNL1        0.0354
     14 C          -2.7709    3.7228   23.2638 C.ar    1  UNL1        0.0158
     15 C          -4.0909    3.5068   22.5848 C.ar    1  UNL1        0.0769
     16 CL         -5.3674    3.6930   23.3503 Cl      1  UNL1       -0.0806
     17 C          -4.1344    3.1045   21.1405 C.ar    1  UNL1        0.1116
     18 N          -2.8579    2.9183   20.3751 N.ar    1  UNL1       -0.2281
     19 O           3.7592   -1.5420   17.7977 O.3     1  UNL1       -0.4502
     20 C           4.6768   -2.3371   18.6785 C.ar    1  UNL1        0.1835
     21 C           6.1468   -2.0385   18.6940 C.ar    1  UNL1        0.1396
     22 N           7.0643   -2.8335   19.5749 N.ar    1  UNL1       -0.2192
     23 C           6.5119   -3.9272   20.4403 C.ar    1  UNL1        0.1991
     24 N           5.0421   -4.2258   20.4248 N.ar    1  UNL1       -0.2192
     25 C           4.1245   -3.4307   19.5439 C.ar    1  UNL1        0.1396
@<TRIPOS>BOND
     1     1     2    1
     2     2     3   ar
     3     3     4   ar
     4     4    19    1
     5    19    20    1
     6    20    21   ar
     7    21    22   ar
     8    22    23   ar
     9    23    24   ar
    10    24    25   ar
    11     4     5   ar
    12     5     6   ar
    13     6     8    1
    14     8     9    2
    15     8    10   am
    16    10    12    1
    17    12    13   ar
    18    13    14   ar
    19    14    15   ar
    20    15    16    1
    21    15    17   ar
    22    17    18   ar
    23     6     7   ar
    24     7     2   ar
    25    25    20   ar
    26    18    12   ar
    27    10    11    1
@<TRIPOS>MOLECULE
*****
 25 27 0 0 0
SMALL
GASTEIGER

@<TRIPOS>ATOM
      1 C           7.1421    0.7365   16.8821 C.3     1  UNL1        0.0522
      2 C           6.1119   -0.1127   17.5659 C.ar    1  UNL1        0.0625
      3 C           4.6527    0.1661   17.3589 C.ar    1  UNL1        0.0522
      4 C           3.6225   -0.6831   18.0427 C.ar    1  UNL1        0.1483
      5 C           4.0515   -1.8110   18.9336 C.ar    1  UNL1        0.0612
      6 C           5.5107   -2.0898   19.1406 C.ar    1  UNL1        0.1374
      7 N           6.5409   -1.2406   18.4568 N.ar    1  UNL1       -0.2449
      8 C           5.9398   -3.2177   20.0315 C.2     1  UNL1        0.2684
      9 O           5.3036   -4.5688   19.8902 O.2     1  UNL1       -0.2681
     10 N           7.0050   -2.9947   21.0638 N.am    1  UNL1       -0.2646
     11 H           7.4226   -2.1079   21.1565 H       1  UNL1        0.1566
     12 C           7.4341   -4.1226   21.9547 C.ar    1  UNL1        0.1345
     13 C           6.9505   -4.1836   23.3732 C.ar    1  UNL1        0.0354
     14 C           7.3795   -5.3115   24.2640 C.ar    1  UNL1        0.0158
     15 C           8.2923   -6.3785   23.7363 C.ar    1  UNL1        0.0769
     16 CL          8.7214   -7.5064   24.6272 Cl      1  UNL1       -0.0806
     17 C           8.7759   -6.3175   22.3178 C.ar    1  UNL1        0.1116
     18 N           8.3468   -5.1896   21.4269 N.ar    1  UNL1       -0.2281
     19 O           2.1632   -0.4043   17.8356 O.3     1  UNL1       -0.4502
     20 C           1.4096    0.4263   18.8317 C.ar    1  UNL1        0.1835
     21 C           1.2178    1.8945   18.5917 C.ar    1  UNL1        0.1396
     22 N           0.4642    2.7251   19.5878 N.ar    1  UNL1       -0.2192
     23 C          -0.0976    2.0874   20.8239 C.ar    1  UNL1        0.1991
     24 N           0.0942    0.6192   21.0638 N.ar    1  UNL1       -0.2192
     25 C           0.8478   -0.2113   20.0677 C.ar    1  UNL1        0.1396
@<TRIPOS>BOND
     1     1     2    1
     2     2     3   ar
     3     3     4   ar
     4     4    19    1
     5    19    20    1
     6    20    21   ar
     7    21    22   ar
     8    22    23   ar
     9    23    24   ar
    10    24    25   ar
    11     4     5   ar
    12     5     6   ar
    13     6     8    1
    14     8     9    2
    15     8    10   am
    16    10    12    1
    17    12    13   ar
    18    13    14   ar
    19    14    15   ar
    20    15    16    1
    21    15    17   ar
    22    17    18   ar
    23     6     7   ar
    24     7     2   ar
    25    25    20   ar
    26    18    12   ar
    27    10    11    1
@<TRIPOS>MOLECULE
*****
 25 27 0 0 0
SMALL
GASTEIGER

@<TRIPOS>ATOM
      1 C           3.0605   -0.1032   24.3404 C.3     1  UNL1        0.0522
      2 C           2.6970   -0.3109   22.9000 C.ar    1  UNL1        0.0625
      3 C           3.3419   -1.4147   22.1154 C.ar    1  UNL1        0.0522
      4 C           2.9784   -1.6224   20.6751 C.ar    1  UNL1        0.1483
      5 C           1.9700   -0.7263   20.0193 C.ar    1  UNL1        0.0612
      6 C           1.3252    0.3776   20.8039 C.ar    1  UNL1        0.1374
      7 N           1.6887    0.5853   22.2443 N.ar    1  UNL1       -0.2449
      8 C           0.3168    1.2738   20.1481 C.2     1  UNL1        0.2684
      9 O           0.1978    1.3012   18.6531 O.2     1  UNL1       -0.2681
     10 N          -0.5724    2.1426   20.9873 N.am    1  UNL1       -0.2646
     11 H          -0.4943    2.1246   21.9685 H       1  UNL1        0.1566
     12 C          -1.5808    3.0389   20.3315 C.ar    1  UNL1        0.1345
     13 C          -1.1238    4.1659   19.4536 C.ar    1  UNL1        0.0354
     14 C          -2.1322    5.0621   18.7978 C.ar    1  UNL1        0.0158
     15 C          -3.5976    4.8312   19.0201 C.ar    1  UNL1        0.0769
     16 CL         -4.6060    5.7274   18.3643 Cl      1  UNL1       -0.0806
     17 C          -4.0546    3.7041   19.8980 C.ar    1  UNL1        0.1116
     18 N          -3.0462    2.8080   20.5538 N.ar    1  UNL1       -0.2281
     19 O           3.6233   -2.7264   19.8904 O.3     1  UNL1       -0.4502
     20 C           5.0458   -2.5904   19.4345 C.ar    1  UNL1        0.1835
     21 C           5.3456   -2.1064   18.0466 C.ar    1  UNL1        0.1396
     22 N           6.7681   -1.9704   17.5907 N.ar    1  UNL1       -0.2192
     23 C           7.8909   -2.3184   18.5226 C.ar    1  UNL1        0.1991
     24 N           7.5911   -2.8023   19.9103 N.ar    1  UNL1       -0.2192
     25 C           6.1686   -2.9383   20.3663 C.ar    1  UNL1        0.1396
@<TRIPOS>BOND
     1     1     2    1
     2     2     3   ar
     3     3     4   ar
     4     4    19    1
     5    19    20    1
     6    20    21   ar
     7    21    22   ar
     8    22    23   ar
     9    23    24   ar
    10    24    25   ar
    11     4     5   ar
    12     5     6   ar
    13     6     8    1
    14     8     9    2
    15     8    10   am
    16    10    12    1
    17    12    13   ar
    18    13    14   ar
    19    14    15   ar
    20    15    16    1
    21    15    17   ar
    22    17    18   ar
    23     6     7   ar
    24     7     2   ar
    25    25    20   ar
    26    18    12   ar
    27    10    11    1
@<TRIPOS>MOLECULE
*****
 25 27 0 0 0
SMALL
GASTEIGER

@<TRIPOS>ATOM
      1 C           4.7164   -0.3942   35.9276 C.3     1  UNL1        0.0522
      2 C           4.7718   -0.4129   34.4288 C.ar    1  UNL1        0.0625
      3 C           5.9584   -1.0067   33.7294 C.ar    1  UNL1        0.0522
      4 C           6.0137   -1.0253   32.2305 C.ar    1  UNL1        0.1483
      5 C           4.8824   -0.4501   31.4310 C.ar    1  UNL1        0.0612
      6 C           3.6958    0.1437   32.1304 C.ar    1  UNL1        0.1374
      7 N           3.6404    0.1623   33.6293 N.ar    1  UNL1       -0.2449
      8 C           2.5644    0.7189   31.3309 C.2     1  UNL1        0.2684
      9 O           1.4344    1.4186   32.0263 O.2     1  UNL1       -0.2681
     10 N           2.5630    0.5945   29.8361 N.am    1  UNL1       -0.2646
     11 H           3.3047    0.1353   29.3797 H       1  UNL1        0.1566
     12 C           1.4316    1.1697   29.0367 C.ar    1  UNL1        0.1345
     13 C           0.2459    0.3172   28.6941 C.ar    1  UNL1        0.0354
     14 C          -0.8854    0.8925   27.8946 C.ar    1  UNL1        0.0158
     15 C          -0.8311    2.3202   27.4378 C.ar    1  UNL1        0.0769
     16 CL         -1.9625    2.8954   26.6383 Cl      1  UNL1       -0.0806
     17 C           0.3546    3.1726   27.7803 C.ar    1  UNL1        0.1116
     18 N           1.4859    2.5974   28.5798 N.ar    1  UNL1       -0.2281
     19 O           7.2005   -1.6192   31.5311 O.3     1  UNL1       -0.4502
     20 C           7.1004   -2.9801   30.9083 C.ar    1  UNL1        0.1835
     21 C           6.9854   -4.1965   31.7784 C.ar    1  UNL1        0.1396
     22 N           6.8853   -5.5574   31.1555 N.ar    1  UNL1       -0.2192
     23 C           6.9001   -5.7018   29.6625 C.ar    1  UNL1        0.1991
     24 N           7.0151   -4.4854   28.7924 N.ar    1  UNL1       -0.2192
     25 C           7.1152   -3.1245   29.4153 C.ar    1  UNL1        0.1396
@<TRIPOS>BOND
     1     1     2    1
     2     2     3   ar
     3     3     4   ar
     4     4    19    1
     5    19    20    1
     6    20    21   ar
     7    21    22   ar
     8    22    23   ar
     9    23    24   ar
    10    24    25   ar
    11     4     5   ar
    12     5     6   ar
    13     6     8    1
    14     8     9    2
    15     8    10   am
    16    10    12    1
    17    12    13   ar
    18    13    14   ar
    19    14    15   ar
    20    15    16    1
    21    15    17   ar
    22    17    18   ar
    23     6     7   ar
    24     7     2   ar
    25    25    20   ar
    26    18    12   ar
    27    10    11    1
