@<TRIPOS>MOLECULE
*****
 21 23 0 0 0
SMALL
GASTEIGER

@<TRIPOS>ATOM
      1 C          -9.4063  -17.3508   22.2352 C.2     1  UNL1        0.1819
      2 O          -8.8779  -17.6445   20.8625 O.2     1  UNL1       -0.2903
      3 C          -8.5033  -16.7563   23.2752 C.2     1  UNL1        0.0205
      4 C          -7.1351  -16.2746   22.8936 C.2     1  UNL1        0.0301
      5 C          -6.2322  -15.6801   23.9335 C.2     1  UNL1        0.1571
      6 F          -4.8639  -15.1983   23.5519 F       1  UNL1       -0.2026
      7 C          -6.6976  -15.5675   25.3550 C.2     1  UNL1        0.1050
      8 N          -6.0346  -15.0303   26.5886 N.2     1  UNL1       -0.2419
      9 C          -6.9931  -15.1802   27.7326 C.2     1  UNL1        0.0986
     10 C          -8.2486  -15.8099   27.2060 C.2     1  UNL1        0.0183
     11 C          -8.0659  -16.0493   25.7366 C.2     1  UNL1        0.0037
     12 C          -8.9688  -16.6437   24.6966 C.3     1  UNL1        0.0573
     13 C         -10.8376  -17.6516   22.5682 C.3     1  UNL1        0.0977
     14 C         -12.1679  -18.2485   22.9206 C.3     1  UNL1        0.0233
     15 C         -13.1743  -17.1377   22.9757 C.3     1  UNL1        0.0189
     16 C         -12.4662  -15.8543   22.6574 C.3     1  UNL1        0.0689
     17 N         -11.0220  -16.1718   22.4055 N.3     1  UNL1       -0.2938
     18 H         -10.4361  -15.6742   23.0760 H       1  UNL1        0.1235
     19 C         -10.3540  -19.0684   22.6612 C.3     1  UNL1        0.0219
     20 C          -9.6045  -20.7170   24.5242 C.3     1  UNL1        0.0001
     21 C         -10.6750  -19.8924   23.8728 C.3     1  UNL1        0.0018
@<TRIPOS>BOND
     1    20    21    1
     2    21    19    1
     3    19    13    1
     4    13     1    1
     5     1     2    2
     6     1     3    1
     7     3     4    2
     8     4     5    1
     9     5     6    1
    10     5     7    2
    11     7     8    1
    12     8     9    2
    13     9    10    1
    14    10    11    2
    15    11    12    1
    16    13    14    1
    17    14    15    1
    18    15    16    1
    19    16    17    1
    20    17    13    1
    21    12     3    1
    22    11     7    1
    23    17    18    1
@<TRIPOS>MOLECULE
*****
 21 23 0 0 0
SMALL
GASTEIGER

@<TRIPOS>ATOM
      1 C          -9.5313  -19.2556   20.3023 C.2     1  UNL1        0.1819
      2 O          -9.8471  -20.0275   19.0556 O.2     1  UNL1       -0.2903
      3 C          -8.1105  -19.1294   20.7667 C.2     1  UNL1        0.0205
      4 C          -7.7657  -18.1815   21.8767 C.2     1  UNL1        0.0301
      5 C          -6.3449  -18.0553   22.3411 C.2     1  UNL1        0.1571
      6 F          -6.0001  -17.1072   23.4512 F       1  UNL1       -0.2026
      7 C          -5.2691  -18.8771   21.6953 C.2     1  UNL1        0.1050
      8 N          -3.7916  -18.9662   21.9387 N.2     1  UNL1       -0.2419
      9 C          -3.2234  -19.9692   20.9791 C.2     1  UNL1        0.0986
     10 C          -4.3497  -20.5001   20.1425 C.2     1  UNL1        0.0183
     11 C          -5.6140  -19.8252   20.5852 C.2     1  UNL1        0.0037
     12 C          -7.0347  -19.9513   20.1209 C.3     1  UNL1        0.0573
     13 C         -10.6362  -18.6099   21.0848 C.3     1  UNL1        0.0977
     14 C         -11.7494  -18.2383   22.0191 C.3     1  UNL1        0.0233
     15 C         -12.1666  -16.8318   21.7068 C.3     1  UNL1        0.0189
     16 C         -11.3112  -16.3340   20.5797 C.3     1  UNL1        0.0689
     17 N         -10.3654  -17.4329   20.1952 N.3     1  UNL1       -0.2938
     18 H          -9.4025  -17.1198   20.3188 H       1  UNL1        0.1235
     19 C         -10.6760  -19.9219   21.8108 C.3     1  UNL1        0.0219
     20 C          -9.6056  -20.4491   24.1187 C.3     1  UNL1        0.0001
     21 C         -10.7640  -19.9482   23.3080 C.3     1  UNL1        0.0018
@<TRIPOS>BOND
     1    20    21    1
     2    21    19    1
     3    19    13    1
     4    13     1    1
     5     1     2    2
     6     1     3    1
     7     3     4    2
     8     4     5    1
     9     5     6    1
    10     5     7    2
    11     7     8    1
    12     8     9    2
    13     9    10    1
    14    10    11    2
    15    11    12    1
    16    13    14    1
    17    14    15    1
    18    15    16    1
    19    16    17    1
    20    17    13    1
    21    12     3    1
    22    11     7    1
    23    17    18    1
@<TRIPOS>MOLECULE
*****
 21 23 0 0 0
SMALL
GASTEIGER

@<TRIPOS>ATOM
      1 C          -9.9064  -16.4334   21.8091 C.2     1  UNL1        0.1819
      2 O         -10.3040  -15.3263   20.8786 O.2     1  UNL1       -0.2903
      3 C          -8.9300  -16.1681   22.9166 C.2     1  UNL1        0.0205
      4 C          -7.5672  -15.6267   22.6013 C.2     1  UNL1        0.0301
      5 C          -6.5909  -15.3614   23.7087 C.2     1  UNL1        0.1571
      6 F          -5.2280  -14.8199   23.3934 F       1  UNL1       -0.2026
      7 C          -6.9775  -15.6376   25.1315 C.2     1  UNL1        0.1050
      8 N          -6.2325  -15.4763   26.4234 N.2     1  UNL1       -0.2419
      9 C          -7.1349  -15.9181   27.5371 C.2     1  UNL1        0.0986
     10 C          -8.4377  -16.3524   26.9335 C.2     1  UNL1        0.0183
     11 C          -8.3403  -16.1791   25.4468 C.2     1  UNL1        0.0037
     12 C          -9.3166  -16.4443   24.3393 C.3     1  UNL1        0.0573
     13 C         -10.4851  -17.8060   21.6323 C.3     1  UNL1        0.0977
     14 C         -11.2920  -19.0705   21.6413 C.3     1  UNL1        0.0233
     15 C         -10.5779  -20.0820   20.7948 C.3     1  UNL1        0.0189
     16 C          -9.3297  -19.4428   20.2625 C.3     1  UNL1        0.0689
     17 N          -9.2723  -18.0361   20.7801 N.3     1  UNL1       -0.2938
     18 H          -9.2683  -17.3799   19.9992 H       1  UNL1        0.1235
     19 C         -11.5769  -17.2889   22.5215 C.3     1  UNL1        0.0219
     20 C         -13.6991  -17.8225   23.9220 C.3     1  UNL1        0.0001
     21 C         -12.3702  -18.2412   23.3663 C.3     1  UNL1        0.0018
@<TRIPOS>BOND
     1    20    21    1
     2    21    19    1
     3    19    13    1
     4    13     1    1
     5     1     2    2
     6     1     3    1
     7     3     4    2
     8     4     5    1
     9     5     6    1
    10     5     7    2
    11     7     8    1
    12     8     9    2
    13     9    10    1
    14    10    11    2
    15    11    12    1
    16    13    14    1
    17    14    15    1
    18    15    16    1
    19    16    17    1
    20    17    13    1
    21    12     3    1
    22    11     7    1
    23    17    18    1
@<TRIPOS>MOLECULE
*****
 21 23 0 0 0
SMALL
GASTEIGER

@<TRIPOS>ATOM
      1 C          -9.5839  -19.0147   20.4895 C.2     1  UNL1        0.1819
      2 O         -10.0435  -19.5788   19.1779 O.2     1  UNL1       -0.2903
      3 C          -8.1346  -19.0854   20.8699 C.2     1  UNL1        0.0205
      4 C          -7.2288  -20.0708   20.1930 C.2     1  UNL1        0.0301
      5 C          -5.7795  -20.1415   20.5733 C.2     1  UNL1        0.1571
      6 F          -4.8736  -21.1269   19.8963 F       1  UNL1       -0.2026
      7 C          -5.2361  -19.2267   21.6306 C.2     1  UNL1        0.1050
      8 N          -3.8621  -19.0677   22.2109 N.2     1  UNL1       -0.2419
      9 C          -3.9188  -17.9840   23.2464 C.2     1  UNL1        0.0986
     10 C          -5.3279  -17.4732   23.3062 C.2     1  UNL1        0.0183
     11 C          -6.1421  -18.2412   22.3076 C.2     1  UNL1        0.0037
     12 C          -7.5913  -18.1706   21.9272 C.3     1  UNL1        0.0573
     13 C         -10.5736  -18.3798   21.4209 C.3     1  UNL1        0.0977
     14 C         -11.5818  -18.0325   22.4760 C.3     1  UNL1        0.0233
     15 C         -11.9094  -16.5749   22.3420 C.3     1  UNL1        0.0189
     16 C         -11.1038  -16.0214   21.2043 C.3     1  UNL1        0.0689
     17 N         -10.2782  -17.1368   20.6350 N.3     1  UNL1       -0.2938
     18 H          -9.2873  -16.9071   20.7100 H       1  UNL1        0.1235
     19 C         -10.6621  -19.7555   22.0122 C.3     1  UNL1        0.0219
     20 C          -9.4409  -20.5703   24.1558 C.3     1  UNL1        0.0001
     21 C         -10.6318  -19.9354   23.5011 C.3     1  UNL1        0.0018
@<TRIPOS>BOND
     1    20    21    1
     2    21    19    1
     3    19    13    1
     4    13     1    1
     5     1     2    2
     6     1     3    1
     7     3     4    2
     8     4     5    1
     9     5     6    1
    10     5     7    2
    11     7     8    1
    12     8     9    2
    13     9    10    1
    14    10    11    2
    15    11    12    1
    16    13    14    1
    17    14    15    1
    18    15    16    1
    19    16    17    1
    20    17    13    1
    21    12     3    1
    22    11     7    1
    23    17    18    1
@<TRIPOS>MOLECULE
*****
 21 23 0 0 0
SMALL
GASTEIGER

@<TRIPOS>ATOM
      1 C         -10.3852  -18.7930   22.4235 C.2     1  UNL1        0.1819
      2 O         -10.7648  -20.2261   22.6516 O.2     1  UNL1       -0.2903
      3 C          -8.9607  -18.3572   22.6000 C.2     1  UNL1        0.0205
      4 C          -7.8429  -19.2365   22.1236 C.2     1  UNL1        0.0301
      5 C          -6.4184  -18.8007   22.3000 C.2     1  UNL1        0.1571
      6 F          -5.3005  -19.6801   21.8235 F       1  UNL1       -0.2026
      7 C          -6.1120  -17.4855   22.9530 C.2     1  UNL1        0.1050
      8 N          -4.8161  -16.7958   23.2612 N.2     1  UNL1       -0.2419
      9 C          -5.1332  -15.4902   23.9281 C.2     1  UNL1        0.0986
     10 C          -6.6250  -15.3730   24.0321 C.2     1  UNL1        0.0183
     11 C          -7.2299  -16.6062   23.4294 C.2     1  UNL1        0.0037
     12 C          -8.6543  -17.0420   23.2530 C.3     1  UNL1        0.0573
     13 C         -11.4300  -17.7956   22.0189 C.3     1  UNL1        0.0977
     14 C         -12.5932  -16.8561   21.8988 C.3     1  UNL1        0.0233
     15 C         -12.5271  -16.2069   20.5483 C.3     1  UNL1        0.0189
     16 C         -11.3231  -16.7452   19.8337 C.3     1  UNL1        0.0689
     17 N         -10.6450  -17.7270   20.7426 N.3     1  UNL1       -0.2938
     18 H          -9.6929  -17.4175   20.9379 H       1  UNL1        0.1235
     19 C         -11.9965  -18.0728   23.3799 C.3     1  UNL1        0.0219
     20 C         -14.0624  -18.3733   24.9265 C.3     1  UNL1        0.0001
     21 C         -13.4694  -17.9265   23.6231 C.3     1  UNL1        0.0018
@<TRIPOS>BOND
     1    20    21    1
     2    21    19    1
     3    19    13    1
     4    13     1    1
     5     1     2    2
     6     1     3    1
     7     3     4    2
     8     4     5    1
     9     5     6    1
    10     5     7    2
    11     7     8    1
    12     8     9    2
    13     9    10    1
    14    10    11    2
    15    11    12    1
    16    13    14    1
    17    14    15    1
    18    15    16    1
    19    16    17    1
    20    17    13    1
    21    12     3    1
    22    11     7    1
    23    17    18    1
@<TRIPOS>MOLECULE
*****
 21 23 0 0 0
SMALL
GASTEIGER

@<TRIPOS>ATOM
      1 C         -10.4584  -18.8731   22.4675 C.2     1  UNL1        0.1819
      2 O         -10.9100  -20.2657   22.7934 O.2     1  UNL1       -0.2903
      3 C          -9.0045  -18.5153   22.5593 C.2     1  UNL1        0.0205
      4 C          -8.5925  -17.1925   23.1340 C.2     1  UNL1        0.0301
      5 C          -7.1386  -16.8347   23.2258 C.2     1  UNL1        0.1571
      6 F          -6.7266  -15.5118   23.8005 F       1  UNL1       -0.2026
      7 C          -6.0969  -17.7998   22.7429 C.2     1  UNL1        0.1050
      8 N          -4.5992  -17.7245   22.7057 N.2     1  UNL1       -0.2419
      9 C          -4.0857  -19.0009   22.1081 C.2     1  UNL1        0.0986
     10 C          -5.2659  -19.8650   21.7759 C.2     1  UNL1        0.0183
     11 C          -6.5089  -19.1227   22.1682 C.2     1  UNL1        0.0037
     12 C          -7.9627  -19.4804   22.0764 C.3     1  UNL1        0.0573
     13 C         -11.4605  -17.8380   22.0499 C.3     1  UNL1        0.0977
     14 C         -12.5790  -16.8469   21.9200 C.3     1  UNL1        0.0233
     15 C         -12.5039  -16.2401   20.5504 C.3     1  UNL1        0.0189
     16 C         -11.3390  -16.8561   19.8337 C.3     1  UNL1        0.0689
     17 N         -10.6941  -17.8436   20.7605 N.3     1  UNL1       -0.2938
     18 H          -9.7252  -17.5752   20.9325 H       1  UNL1        0.1235
     19 C         -12.0174  -18.0488   23.4267 C.3     1  UNL1        0.0219
     20 C         -14.1129  -18.4470   24.9099 C.3     1  UNL1        0.0001
     21 C         -13.4846  -17.8650   23.6785 C.3     1  UNL1        0.0018
@<TRIPOS>BOND
     1    20    21    1
     2    21    19    1
     3    19    13    1
     4    13     1    1
     5     1     2    2
     6     1     3    1
     7     3     4    2
     8     4     5    1
     9     5     6    1
    10     5     7    2
    11     7     8    1
    12     8     9    2
    13     9    10    1
    14    10    11    2
    15    11    12    1
    16    13    14    1
    17    14    15    1
    18    15    16    1
    19    16    17    1
    20    17    13    1
    21    12     3    1
    22    11     7    1
    23    17    18    1
@<TRIPOS>MOLECULE
*****
 21 23 0 0 0
SMALL
GASTEIGER

@<TRIPOS>ATOM
      1 C          -9.2301  -17.0174   23.2010 C.2     1  UNL1        0.1819
      2 O          -8.7820  -15.7269   23.8205 O.2     1  UNL1       -0.2903
      3 C          -8.2643  -17.8407   22.4014 C.2     1  UNL1        0.0205
      4 C          -8.7452  -18.6129   21.2088 C.2     1  UNL1        0.0301
      5 C          -7.7794  -19.4363   20.4092 C.2     1  UNL1        0.1571
      6 F          -8.2603  -20.2086   19.2165 F       1  UNL1       -0.2026
      7 C          -6.3327  -19.4874   20.8023 C.2     1  UNL1        0.1050
      8 N          -5.1566  -20.2062   20.2105 N.2     1  UNL1       -0.2419
      9 C          -3.9489  -19.8781   21.0374 C.2     1  UNL1        0.0986
     10 C          -4.3786  -18.9566   22.1402 C.2     1  UNL1        0.0183
     11 C          -5.8518  -18.7151   21.9949 C.2     1  UNL1        0.0037
     12 C          -6.8177  -17.8918   22.7945 C.3     1  UNL1        0.0573
     13 C         -10.6441  -17.4846   23.3811 C.3     1  UNL1        0.0977
     14 C         -11.9371  -18.1232   23.7941 C.3     1  UNL1        0.0233
     15 C         -13.0196  -17.6001   22.8974 C.3     1  UNL1        0.0189
     16 C         -12.3958  -16.6382   21.9301 C.3     1  UNL1        0.0689
     17 N         -10.9277  -16.5668   22.2290 N.3     1  UNL1       -0.2938
     18 H         -10.6709  -15.6111   22.4764 H       1  UNL1        0.1235
     19 C         -10.0649  -18.3047   24.4955 C.3     1  UNL1        0.0219
     20 C          -9.4526  -20.8182   24.2564 C.3     1  UNL1        0.0001
     21 C         -10.4370  -19.7512   24.6339 C.3     1  UNL1        0.0018
@<TRIPOS>BOND
     1    20    21    1
     2    21    19    1
     3    19    13    1
     4    13     1    1
     5     1     2    2
     6     1     3    1
     7     3     4    2
     8     4     5    1
     9     5     6    1
    10     5     7    2
    11     7     8    1
    12     8     9    2
    13     9    10    1
    14    10    11    2
    15    11    12    1
    16    13    14    1
    17    14    15    1
    18    15    16    1
    19    16    17    1
    20    17    13    1
    21    12     3    1
    22    11     7    1
    23    17    18    1
@<TRIPOS>MOLECULE
*****
 21 23 0 0 0
SMALL
GASTEIGER

@<TRIPOS>ATOM
      1 C          -9.2282  -16.6711   23.5728 C.2     1  UNL1        0.1819
      2 O          -9.1774  -15.6341   24.6553 O.2     1  UNL1       -0.2903
      3 C          -7.9597  -17.2978   23.0743 C.2     1  UNL1        0.0205
      4 C          -6.6333  -16.7990   23.5657 C.2     1  UNL1        0.0301
      5 C          -5.3648  -17.4257   23.0673 C.2     1  UNL1        0.1571
      6 F          -4.0383  -16.9268   23.5587 F       1  UNL1       -0.2026
      7 C          -5.4230  -18.5512   22.0774 C.2     1  UNL1        0.1050
      8 N          -4.3486  -19.3592   21.4120 N.2     1  UNL1       -0.2419
      9 C          -5.0111  -20.3573   20.5094 C.2     1  UNL1        0.0986
     10 C          -6.4950  -20.1663   20.6169 C.2     1  UNL1        0.0183
     11 C          -6.7496  -19.0500   21.5860 C.2     1  UNL1        0.0037
     12 C          -8.0179  -18.4233   22.0845 C.3     1  UNL1        0.0573
     13 C         -10.5474  -17.0815   22.9886 C.3     1  UNL1        0.0977
     14 C         -11.8813  -17.6808   22.6543 C.3     1  UNL1        0.0233
     15 C         -12.3598  -17.0620   21.3745 C.3     1  UNL1        0.0189
     16 C         -11.3217  -16.0802   20.9179 C.3     1  UNL1        0.0689
     17 N         -10.2016  -16.0923   21.9154 N.3     1  UNL1       -0.2938
     18 H         -10.0911  -15.1638   22.3230 H       1  UNL1        0.1235
     19 C         -10.6174  -17.9850   24.1840 C.3     1  UNL1        0.0219
     20 C          -9.8585  -20.4562   24.4434 C.3     1  UNL1        0.0001
     21 C         -10.8802  -19.4506   24.0020 C.3     1  UNL1        0.0018
@<TRIPOS>BOND
     1    20    21    1
     2    21    19    1
     3    19    13    1
     4    13     1    1
     5     1     2    2
     6     1     3    1
     7     3     4    2
     8     4     5    1
     9     5     6    1
    10     5     7    2
    11     7     8    1
    12     8     9    2
    13     9    10    1
    14    10    11    2
    15    11    12    1
    16    13    14    1
    17    14    15    1
    18    15    16    1
    19    16    17    1
    20    17    13    1
    21    12     3    1
    22    11     7    1
    23    17    18    1
@<TRIPOS>MOLECULE
*****
 21 23 0 0 0
SMALL
GASTEIGER

@<TRIPOS>ATOM
      1 C          -8.6773  -17.5892   21.9968 C.2     1  UNL1        0.1819
      2 O          -8.7225  -16.1148   21.7250 O.2     1  UNL1       -0.2903
      3 C          -7.4301  -18.3686   21.7014 C.2     1  UNL1        0.0205
      4 C          -7.4924  -19.5744   20.8116 C.2     1  UNL1        0.0301
      5 C          -6.2451  -20.3538   20.5161 C.2     1  UNL1        0.1571
      6 F          -6.3074  -21.5597   19.6263 F       1  UNL1       -0.2026
      7 C          -4.9358  -19.9271   21.1106 C.2     1  UNL1        0.1050
      8 N          -3.5512  -20.4934   20.9998 N.2     1  UNL1       -0.2419
      9 C          -2.6333  -19.6374   21.8212 C.2     1  UNL1        0.0986
     10 C          -3.4505  -18.5421   22.4396 C.2     1  UNL1        0.0183
     11 C          -4.8736  -18.7211   22.0005 C.2     1  UNL1        0.0037
     12 C          -6.1207  -17.9419   22.2958 C.3     1  UNL1        0.0573
     13 C          -9.8794  -18.2845   22.5640 C.3     1  UNL1        0.0977
     14 C         -11.1878  -18.9656   22.8367 C.3     1  UNL1        0.0233
     15 C         -11.2363  -19.3089   24.2959 C.3     1  UNL1        0.0189
     16 C          -9.9580  -18.8401   24.9252 C.3     1  UNL1        0.0689
     17 N          -9.1193  -18.2069   23.8549 N.3     1  UNL1       -0.2938
     18 H          -8.2351  -18.7076   23.7666 H       1  UNL1        0.1235
     19 C         -10.3881  -18.2166   21.1545 C.3     1  UNL1        0.0219
     20 C         -11.8881  -16.3425   20.1608 C.3     1  UNL1        0.0001
     21 C         -11.7503  -17.6543   20.8751 C.3     1  UNL1        0.0018
@<TRIPOS>BOND
     1    20    21    1
     2    21    19    1
     3    19    13    1
     4    13     1    1
     5     1     2    2
     6     1     3    1
     7     3     4    2
     8     4     5    1
     9     5     6    1
    10     5     7    2
    11     7     8    1
    12     8     9    2
    13     9    10    1
    14    10    11    2
    15    11    12    1
    16    13    14    1
    17    14    15    1
    18    15    16    1
    19    16    17    1
    20    17    13    1
    21    12     3    1
    22    11     7    1
    23    17    18    1
