@<TRIPOS>MOLECULE
*****
 23 27 0 0 0
SMALL
GASTEIGER

@<TRIPOS>ATOM
      1 N          -6.8644  -19.5163   21.0969 N.am    1  UNL1       -0.2214
      2 C          -5.7527  -18.7953   21.8000 C.3     1  UNL1        0.1428
      3 C          -4.4576  -19.4380   21.4003 C.3     1  UNL1        0.1706
      4 C          -3.2479  -20.1783   20.9119 C.3     1  UNL1        0.1145
      5 N          -1.8814  -19.7738   21.3801 N.3     1  UNL1       -0.2697
      6 C          -1.7247  -18.6291   22.3366 C.3     1  UNL1        0.0723
      7 C          -2.9344  -17.8889   22.8250 C.3     1  UNL1        0.0209
      8 C          -4.3009  -18.2933   22.3568 C.3     1  UNL1        0.0427
      9 C          -3.8199  -19.2493   21.6188 C.3     1  UNL1        0.0209
     10 C          -3.1747  -19.6441   21.3583 C.3     1  UNL1        0.0723
     11 O          -4.7690  -20.5562   20.4502 O.3     1  UNL1       -0.4384
     12 C          -6.2564  -20.6046   20.2627 C.2     1  UNL1        0.4086
     13 O          -7.0045  -21.5715   19.3935 O.2     1  UNL1       -0.2258
     14 C         -13.8977  -17.9159   24.1942 C.3     1  UNL1        0.0382
     15 C         -12.6913  -18.2023   23.3502 C.ar    1  UNL1        0.0076
     16 C         -11.3058  -18.4749   23.8561 C.ar    1  UNL1        0.0027
     17 C         -10.4168  -18.7076   22.6705 C.ar    1  UNL1        0.0074
     18 C          -8.9540  -19.0201   22.5589 C.ar    1  UNL1        0.0155
     19 C          -8.3272  -19.2038   21.2086 C.ar    1  UNL1        0.0571
     20 C          -9.1633  -19.0750   19.9698 C.ar    1  UNL1        0.0155
     21 C         -10.6261  -18.7625   20.0815 C.ar    1  UNL1        0.0077
     22 C         -11.2528  -18.5788   21.4319 C.ar    1  UNL1        0.0292
     23 S         -12.6586  -18.2665   21.8519 S.2     1  UNL1       -0.0913
@<TRIPOS>BOND
     1    14    15    1
     2    15    16   ar
     3    16    17   ar
     4    17    18   ar
     5    18    19   ar
     6    19     1    1
     7     1     2    1
     8     3     2    1
     9     3     4    1
    10     4     5    1
    11     5     6    1
    12     6     7    1
    13     7     8    1
    14     8     9    1
    15     9    10    1
    16     3    11    1
    17    11    12    1
    18    12    13    2
    19    19    20   ar
    20    20    21   ar
    21    21    22   ar
    22    22    23   ar
    23    23    15   ar
    24    22    17   ar
    25    12     1   am
    26     8     3    1
    27    10     5    1
@<TRIPOS>MOLECULE
*****
 23 27 0 0 0
SMALL
GASTEIGER

@<TRIPOS>ATOM
      1 N          -6.9421  -17.3722   22.8432 N.am    1  UNL1       -0.2214
      2 C          -6.1076  -18.3948   22.1306 C.3     1  UNL1        0.1428
      3 C          -4.6694  -18.1381   22.4705 C.3     1  UNL1        0.1706
      4 C          -3.2819  -17.7616   22.8985 C.3     1  UNL1        0.1145
      5 N          -2.1048  -18.5481   22.4028 N.3     1  UNL1       -0.2697
      6 C          -2.3151  -19.7111   21.4791 C.3     1  UNL1        0.0723
      7 C          -3.7026  -20.0876   21.0511 C.3     1  UNL1        0.0209
      8 C          -4.8797  -19.3011   21.5469 C.3     1  UNL1        0.0427
      9 C          -4.1201  -18.5051   22.2392 C.3     1  UNL1        0.0209
     10 C          -3.3801  -18.3043   22.4674 C.3     1  UNL1        0.0723
     11 O          -4.6150  -16.9567   23.3932 O.3     1  UNL1       -0.4384
     12 C          -6.0196  -16.4833   23.6235 C.2     1  UNL1        0.4086
     13 O          -6.4297  -15.3246   24.4833 O.2     1  UNL1       -0.2258
     14 C         -14.5383  -18.4508   24.5035 C.3     1  UNL1        0.0382
     15 C         -13.1853  -18.0671   23.9820 C.ar    1  UNL1        0.0076
     16 C         -11.8677  -18.5634   24.4995 C.ar    1  UNL1        0.0027
     17 C         -10.7803  -17.9228   23.6887 C.ar    1  UNL1        0.0074
     18 C          -9.2857  -18.0366   23.7464 C.ar    1  UNL1        0.0155
     19 C          -8.4367  -17.2583   22.7855 C.ar    1  UNL1        0.0571
     20 C          -9.0822  -16.3662   21.7669 C.ar    1  UNL1        0.0155
     21 C         -10.5767  -16.2524   21.7093 C.ar    1  UNL1        0.0077
     22 C         -11.4257  -17.0307   22.6702 C.ar    1  UNL1        0.0292
     23 S         -12.9121  -17.1199   22.8515 S.2     1  UNL1       -0.0913
@<TRIPOS>BOND
     1    14    15    1
     2    15    16   ar
     3    16    17   ar
     4    17    18   ar
     5    18    19   ar
     6    19     1    1
     7     1     2    1
     8     3     2    1
     9     3     4    1
    10     4     5    1
    11     5     6    1
    12     6     7    1
    13     7     8    1
    14     8     9    1
    15     9    10    1
    16     3    11    1
    17    11    12    1
    18    12    13    2
    19    19    20   ar
    20    20    21   ar
    21    21    22   ar
    22    22    23   ar
    23    23    15   ar
    24    22    17   ar
    25    12     1   am
    26     8     3    1
    27    10     5    1
@<TRIPOS>MOLECULE
*****
 23 27 0 0 0
SMALL
GASTEIGER

@<TRIPOS>ATOM
      1 N          -8.0126  -18.8746   20.8348 N.am    1  UNL1       -0.2214
      2 C          -8.9116  -18.0306   21.6888 C.3     1  UNL1        0.1428
      3 C         -10.3123  -18.1756   21.1720 C.3     1  UNL1        0.1706
      4 C         -11.6540  -18.4176   20.5466 C.3     1  UNL1        0.1145
      5 N         -12.8738  -17.7468   21.1052 N.3     1  UNL1       -0.2697
      6 C         -12.7519  -16.8340   22.2892 C.3     1  UNL1        0.0723
      7 C         -11.4102  -16.5920   22.9146 C.3     1  UNL1        0.0209
      8 C         -10.1904  -17.2629   22.3560 C.3     1  UNL1        0.0427
      9 C         -10.8815  -17.8626   21.4327 C.3     1  UNL1        0.0209
     10 C         -11.5971  -17.9917   21.0992 C.3     1  UNL1        0.0723
     11 O         -10.2789  -19.1093   19.9985 O.3     1  UNL1       -0.4384
     12 C          -8.8576  -19.5413   19.7901 C.2     1  UNL1        0.4086
     13 O          -8.3675  -20.4759   18.7241 O.2     1  UNL1       -0.2258
     14 C          -0.3049  -18.3962   19.4263 C.3     1  UNL1        0.0382
     15 C          -1.6971  -18.6252   19.9351 C.ar    1  UNL1        0.0076
     16 C          -2.9649  -18.1950   19.2588 C.ar    1  UNL1        0.0027
     17 C          -4.1175  -18.6286   20.1155 C.ar    1  UNL1        0.0074
     18 C          -5.6010  -18.4779   19.9533 C.ar    1  UNL1        0.0155
     19 C          -6.5290  -19.0253   20.9969 C.ar    1  UNL1        0.0571
     20 C          -5.9734  -19.7236   22.2027 C.ar    1  UNL1        0.0155
     21 C          -4.4899  -19.8743   22.3647 C.ar    1  UNL1        0.0077
     22 C          -3.5620  -19.3269   21.3212 C.ar    1  UNL1        0.0292
     23 S          -2.0660  -19.3248   21.2097 S.2     1  UNL1       -0.0913
@<TRIPOS>BOND
     1    14    15    1
     2    15    16   ar
     3    16    17   ar
     4    17    18   ar
     5    18    19   ar
     6    19     1    1
     7     1     2    1
     8     3     2    1
     9     3     4    1
    10     4     5    1
    11     5     6    1
    12     6     7    1
    13     7     8    1
    14     8     9    1
    15     9    10    1
    16     3    11    1
    17    11    12    1
    18    12    13    2
    19    19    20   ar
    20    20    21   ar
    21    21    22   ar
    22    22    23   ar
    23    23    15   ar
    24    22    17   ar
    25    12     1   am
    26     8     3    1
    27    10     5    1
@<TRIPOS>MOLECULE
*****
 23 27 0 0 0
SMALL
GASTEIGER

@<TRIPOS>ATOM
      1 N          -5.5574  -19.2477   21.2671 N.am    1  UNL1       -0.2214
      2 C          -4.4397  -18.2607   21.4300 C.3     1  UNL1        0.1428
      3 C          -3.2286  -18.8136   20.7389 C.3     1  UNL1        0.1706
      4 C          -2.1059  -19.4908   20.0103 C.3     1  UNL1        0.1145
      5 N          -0.7616  -18.8308   19.9243 N.3     1  UNL1       -0.2697
      6 C          -0.5401  -17.4937   20.5669 C.3     1  UNL1        0.0723
      7 C          -1.6628  -16.8166   21.2955 C.3     1  UNL1        0.0209
      8 C          -3.0070  -17.4765   21.3815 C.3     1  UNL1        0.0427
      9 C          -2.6013  -18.5056   20.6988 C.3     1  UNL1        0.0209
     10 C          -2.0025  -18.8668   20.3102 C.3     1  UNL1        0.0723
     11 O          -3.5979  -20.1424   20.1489 O.3     1  UNL1       -0.4384
     12 C          -5.0371  -20.4107   20.4754 C.2     1  UNL1        0.4086
     13 O          -5.8188  -21.6281   20.0796 O.2     1  UNL1       -0.2258
     14 C         -12.6422  -16.2258   22.7821 C.3     1  UNL1        0.0382
     15 C         -11.3799  -17.0254   22.6513 C.ar    1  UNL1        0.0076
     16 C         -10.1524  -16.6172   21.8921 C.ar    1  UNL1        0.0027
     17 C          -9.1372  -17.7131   22.0285 C.ar    1  UNL1        0.0074
     18 C          -7.7439  -17.8628   21.4935 C.ar    1  UNL1        0.0155
     19 C          -6.9507  -19.0980   21.8021 C.ar    1  UNL1        0.0571
     20 C          -7.5510  -20.1835   22.6455 C.ar    1  UNL1        0.0155
     21 C          -8.9443  -20.0338   23.1804 C.ar    1  UNL1        0.0077
     22 C          -9.7374  -18.7986   22.8719 C.ar    1  UNL1        0.0292
     23 S         -11.1235  -18.3735   23.2569 S.2     1  UNL1       -0.0913
@<TRIPOS>BOND
     1    14    15    1
     2    15    16   ar
     3    16    17   ar
     4    17    18   ar
     5    18    19   ar
     6    19     1    1
     7     1     2    1
     8     3     2    1
     9     3     4    1
    10     4     5    1
    11     5     6    1
    12     6     7    1
    13     7     8    1
    14     8     9    1
    15     9    10    1
    16     3    11    1
    17    11    12    1
    18    12    13    2
    19    19    20   ar
    20    20    21   ar
    21    21    22   ar
    22    22    23   ar
    23    23    15   ar
    24    22    17   ar
    25    12     1   am
    26     8     3    1
    27    10     5    1
@<TRIPOS>MOLECULE
*****
 23 27 0 0 0
SMALL
GASTEIGER

@<TRIPOS>ATOM
      1 N          -8.7126  -19.2175   22.4585 N.am    1  UNL1       -0.2214
      2 C          -9.6658  -18.1328   22.0523 C.3     1  UNL1        0.1428
      3 C         -10.9093  -18.2749   22.8790 C.3     1  UNL1        0.1706
      4 C         -12.0835  -18.5403   23.7738 C.3     1  UNL1        0.1145
      5 N         -13.2983  -17.6638   23.6969 N.3     1  UNL1       -0.2697
      6 C         -13.3390  -16.5220   22.7251 C.3     1  UNL1        0.0723
      7 C         -12.1648  -16.2566   21.8302 C.3     1  UNL1        0.0209
      8 C         -10.9500  -17.1331   21.9072 C.3     1  UNL1        0.0427
      9 C         -11.4762  -17.8659   22.8431 C.3     1  UNL1        0.0209
     10 C         -12.1025  -18.0074   23.3203 C.3     1  UNL1        0.0723
     11 O         -10.7247  -19.4474   23.7961 O.3     1  UNL1       -0.4384
     12 C          -9.3670  -20.0300   23.5363 C.2     1  UNL1        0.4086
     13 O          -8.7689  -21.2166   24.2320 O.2     1  UNL1       -0.2258
     14 C          -1.0109  -18.5072   21.1165 C.3     1  UNL1        0.0382
     15 C          -2.4695  -18.8517   21.1751 C.ar    1  UNL1        0.0076
     16 C          -3.4956  -18.1970   22.0517 C.ar    1  UNL1        0.0027
     17 C          -4.8185  -18.8522   21.7858 C.ar    1  UNL1        0.0074
     18 C          -6.1860  -18.6207   22.3570 C.ar    1  UNL1        0.0155
     19 C          -7.3451  -19.4489   21.8873 C.ar    1  UNL1        0.0571
     20 C          -7.1366  -20.5086   20.8463 C.ar    1  UNL1        0.0155
     21 C          -5.7691  -20.7401   20.2752 C.ar    1  UNL1        0.0077
     22 C          -4.6101  -19.9118   20.7449 C.ar    1  UNL1        0.0292
     23 S          -3.1583  -19.9116   20.3675 S.2     1  UNL1       -0.0913
@<TRIPOS>BOND
     1    14    15    1
     2    15    16   ar
     3    16    17   ar
     4    17    18   ar
     5    18    19   ar
     6    19     1    1
     7     1     2    1
     8     3     2    1
     9     3     4    1
    10     4     5    1
    11     5     6    1
    12     6     7    1
    13     7     8    1
    14     8     9    1
    15     9    10    1
    16     3    11    1
    17    11    12    1
    18    12    13    2
    19    19    20   ar
    20    20    21   ar
    21    21    22   ar
    22    22    23   ar
    23    23    15   ar
    24    22    17   ar
    25    12     1   am
    26     8     3    1
    27    10     5    1
@<TRIPOS>MOLECULE
*****
 23 27 0 0 0
SMALL
GASTEIGER

@<TRIPOS>ATOM
      1 N          -5.3900  -18.0219   22.2484 N.am    1  UNL1       -0.2214
      2 C          -4.5200  -18.4234   21.0944 C.3     1  UNL1        0.1428
      3 C          -3.1765  -17.7832   21.2820 C.3     1  UNL1        0.1706
      4 C          -1.8904  -17.0807   21.6018 C.3     1  UNL1        0.1145
      5 N          -0.7137  -17.2142   20.6811 N.3     1  UNL1       -0.2697
      6 C          -0.8232  -18.0503   19.4406 C.3     1  UNL1        0.0723
      7 C          -2.1093  -18.7528   19.1208 C.3     1  UNL1        0.0209
      8 C          -3.2860  -18.6193   20.0415 C.3     1  UNL1        0.0427
      9 C          -2.6274  -17.8455   20.8524 C.3     1  UNL1        0.0209
     10 C          -1.9415  -17.4709   21.0229 C.3     1  UNL1        0.0723
     11 O          -3.2162  -16.9860   22.5520 O.3     1  UNL1       -0.4384
     12 C          -4.5843  -17.1335   23.1493 C.2     1  UNL1        0.4086
     13 O          -5.0625  -16.5033   24.4237 O.2     1  UNL1       -0.2258
     14 C         -13.1336  -17.6172   23.4708 C.3     1  UNL1        0.0382
     15 C         -11.6968  -17.9792   23.2383 C.ar    1  UNL1        0.0076
     16 C         -10.5591  -17.0147   23.0791 C.ar    1  UNL1        0.0027
     17 C          -9.3044  -17.8089   22.8665 C.ar    1  UNL1        0.0074
     18 C          -7.8789  -17.3947   22.6512 C.ar    1  UNL1        0.0155
     19 C          -6.8156  -18.4360   22.4638 C.ar    1  UNL1        0.0571
     20 C          -7.1778  -19.8913   22.4916 C.ar    1  UNL1        0.0155
     21 C          -8.6033  -20.3054   22.7069 C.ar    1  UNL1        0.0077
     22 C          -9.6666  -19.2641   22.8944 C.ar    1  UNL1        0.0292
     23 S         -11.1452  -19.3695   23.1242 S.2     1  UNL1       -0.0913
@<TRIPOS>BOND
     1    14    15    1
     2    15    16   ar
     3    16    17   ar
     4    17    18   ar
     5    18    19   ar
     6    19     1    1
     7     1     2    1
     8     3     2    1
     9     3     4    1
    10     4     5    1
    11     5     6    1
    12     6     7    1
    13     7     8    1
    14     8     9    1
    15     9    10    1
    16     3    11    1
    17    11    12    1
    18    12    13    2
    19    19    20   ar
    20    20    21   ar
    21    21    22   ar
    22    22    23   ar
    23    23    15   ar
    24    22    17   ar
    25    12     1   am
    26     8     3    1
    27    10     5    1
@<TRIPOS>MOLECULE
*****
 23 27 0 0 0
SMALL
GASTEIGER

@<TRIPOS>ATOM
      1 N         -13.6580   -6.6551   18.1074 N.am    1  UNL1       -0.2214
      2 C         -14.8809   -7.0738   18.8684 C.3     1  UNL1        0.1428
      3 C         -15.1904   -8.4952   18.5028 C.3     1  UNL1        0.1706
      4 C         -15.3742   -9.9111   18.0431 C.3     1  UNL1        0.1145
      5 N         -16.5150  -10.7292   18.5717 N.3     1  UNL1       -0.2697
      6 C         -17.4720  -10.1313   19.5600 C.3     1  UNL1        0.0723
      7 C         -17.2881   -8.7154   20.0197 C.3     1  UNL1        0.0209
      8 C         -16.1473   -7.8974   19.4911 C.3     1  UNL1        0.0427
      9 C         -15.7228   -8.8770   18.7495 C.3     1  UNL1        0.0209
     10 C         -15.8208   -9.6321   18.5043 C.3     1  UNL1        0.0723
     11 O         -14.1587   -8.9550   17.5158 O.3     1  UNL1       -0.4384
     12 C         -13.2117   -7.8177   17.2714 C.2     1  UNL1        0.4086
     13 O         -12.0264   -7.8394   16.3523 O.2     1  UNL1       -0.2258
     14 C         -12.5282    1.0934   17.5539 C.3     1  UNL1        0.0382
     15 C         -12.4721   -0.3920   17.7539 C.ar    1  UNL1        0.0076
     16 C         -13.5865   -1.3602   17.4880 C.ar    1  UNL1        0.0027
     17 C         -13.0947   -2.7368   17.8247 C.ar    1  UNL1        0.0074
     18 C         -13.7553   -4.0821   17.7610 C.ar    1  UNL1        0.0155
     19 C         -12.9975   -5.3098   18.1711 C.ar    1  UNL1        0.0571
     20 C         -11.5792   -5.1924   18.6451 C.ar    1  UNL1        0.0155
     21 C         -10.9187   -3.8472   18.7089 C.ar    1  UNL1        0.0077
     22 C         -11.6765   -2.6194   18.2987 C.ar    1  UNL1        0.0292
     23 S         -11.2917   -1.1702   18.2549 S.2     1  UNL1       -0.0913
@<TRIPOS>BOND
     1    14    15    1
     2    15    16   ar
     3    16    17   ar
     4    17    18   ar
     5    18    19   ar
     6    19     1    1
     7     1     2    1
     8     3     2    1
     9     3     4    1
    10     4     5    1
    11     5     6    1
    12     6     7    1
    13     7     8    1
    14     8     9    1
    15     9    10    1
    16     3    11    1
    17    11    12    1
    18    12    13    2
    19    19    20   ar
    20    20    21   ar
    21    21    22   ar
    22    22    23   ar
    23    23    15   ar
    24    22    17   ar
    25    12     1   am
    26     8     3    1
    27    10     5    1
@<TRIPOS>MOLECULE
*****
 23 27 0 0 0
SMALL
GASTEIGER

@<TRIPOS>ATOM
      1 N          -5.7891  -17.1343   23.0746 N.am    1  UNL1       -0.2214
      2 C          -5.1232  -18.2360   22.3047 C.3     1  UNL1        0.1428
      3 C          -3.6392  -18.0474   22.4150 C.3     1  UNL1        0.1706
      4 C          -2.1861  -17.7322   22.6131 C.3     1  UNL1        0.1145
      5 N          -1.1375  -18.6081   21.9940 N.3     1  UNL1       -0.2697
      6 C          -1.5420  -19.7991   21.1767 C.3     1  UNL1        0.0723
      7 C          -2.9950  -20.1142   20.9786 C.3     1  UNL1        0.0209
      8 C          -4.0436  -19.2383   21.5978 C.3     1  UNL1        0.0427
      9 C          -3.1498  -18.4561   22.1261 C.3     1  UNL1        0.0209
     10 C          -2.3749  -18.2880   22.2317 C.3     1  UNL1        0.0723
     11 O          -3.3879  -16.8290   23.2532 O.3     1  UNL1       -0.4384
     12 C          -4.7166  -16.2647   23.6609 C.2     1  UNL1        0.4086
     13 O          -4.9345  -15.0450   24.5063 O.2     1  UNL1       -0.2258
     14 C         -13.5116  -17.5012   21.7146 C.3     1  UNL1        0.0382
     15 C         -12.1121  -17.2775   22.2058 C.ar    1  UNL1        0.0076
     16 C         -10.8580  -17.7789   21.5534 C.ar    1  UNL1        0.0027
     17 C          -9.6918  -17.3243   22.3801 C.ar    1  UNL1        0.0074
     18 C          -8.2131  -17.5218   22.2238 C.ar    1  UNL1        0.0155
     19 C          -7.2678  -16.9369   23.2309 C.ar    1  UNL1        0.0571
     20 C          -7.8012  -16.1546   24.3944 C.ar    1  UNL1        0.0155
     21 C          -9.2798  -15.9572   24.5506 C.ar    1  UNL1        0.0077
     22 C         -10.2251  -16.5421   23.5435 C.ar    1  UNL1        0.0292
     23 S         -11.7210  -16.5131   23.4357 S.2     1  UNL1       -0.0913
@<TRIPOS>BOND
     1    14    15    1
     2    15    16   ar
     3    16    17   ar
     4    17    18   ar
     5    18    19   ar
     6    19     1    1
     7     1     2    1
     8     3     2    1
     9     3     4    1
    10     4     5    1
    11     5     6    1
    12     6     7    1
    13     7     8    1
    14     8     9    1
    15     9    10    1
    16     3    11    1
    17    11    12    1
    18    12    13    2
    19    19    20   ar
    20    20    21   ar
    21    21    22   ar
    22    22    23   ar
    23    23    15   ar
    24    22    17   ar
    25    12     1   am
    26     8     3    1
    27    10     5    1
@<TRIPOS>MOLECULE
*****
 23 27 0 0 0
SMALL
GASTEIGER

@<TRIPOS>ATOM
      1 N         -13.7367   -3.1079   19.0363 N.am    1  UNL1       -0.2214
      2 C         -12.2903   -3.5049   19.0530 C.3     1  UNL1        0.1428
      3 C         -12.2191   -5.0007   18.9673 C.3     1  UNL1        0.1706
      4 C         -12.3049   -6.4955   18.8773 C.3     1  UNL1        0.1145
      5 N         -11.0514   -7.3192   18.8637 N.3     1  UNL1       -0.2697
      6 C          -9.7121   -6.6481   18.9401 C.3     1  UNL1        0.0723
      7 C          -9.6263   -5.1533   19.0302 C.3     1  UNL1        0.0209
      8 C         -10.8798   -4.3296   19.0437 C.3     1  UNL1        0.0427
      9 C         -11.6341   -5.3851   18.9610 C.3     1  UNL1        0.0209
     10 C         -11.6799   -6.1824   18.9129 C.3     1  UNL1        0.0723
     11 O         -13.6216   -5.5282   18.8975 O.3     1  UNL1       -0.4384
     12 C         -14.5595   -4.3584   18.9401 C.2     1  UNL1        0.4086
     13 O         -16.0572   -4.4271   18.8946 O.2     1  UNL1       -0.2258
     14 C         -18.2403    3.0421   20.9119 C.3     1  UNL1        0.0382
     15 C         -17.2293    2.0591   20.4007 C.ar    1  UNL1        0.0076
     16 C         -17.1934    0.5912   20.7073 C.ar    1  UNL1        0.0027
     17 C         -16.0184   -0.0038   19.9892 C.ar    1  UNL1        0.0074
     18 C         -15.4879   -1.4052   19.9217 C.ar    1  UNL1        0.0155
     19 C         -14.2672   -1.7065   19.1037 C.ar    1  UNL1        0.0571
     20 C         -13.5770   -0.6063   18.3533 C.ar    1  UNL1        0.0155
     21 C         -14.1075    0.7951   18.4208 C.ar    1  UNL1        0.0077
     22 C         -15.3282    1.0963   19.2388 C.ar    1  UNL1        0.0292
     23 S         -16.0765    2.3713   19.4931 S.2     1  UNL1       -0.0913
@<TRIPOS>BOND
     1    14    15    1
     2    15    16   ar
     3    16    17   ar
     4    17    18   ar
     5    18    19   ar
     6    19     1    1
     7     1     2    1
     8     3     2    1
     9     3     4    1
    10     4     5    1
    11     5     6    1
    12     6     7    1
    13     7     8    1
    14     8     9    1
    15     9    10    1
    16     3    11    1
    17    11    12    1
    18    12    13    2
    19    19    20   ar
    20    20    21   ar
    21    21    22   ar
    22    22    23   ar
    23    23    15   ar
    24    22    17   ar
    25    12     1   am
    26     8     3    1
    27    10     5    1
