@<TRIPOS>MOLECULE
*****
 40 43 0 0 0
SMALL
GASTEIGER

@<TRIPOS>ATOM
      1 C           7.2472   -4.9137   24.5271 C.ar    1  UNL1        0.0507
      2 C           7.9071   -6.1459   23.9825 C.ar    1  UNL1        0.0160
      3 C           8.0673   -7.3575   24.8521 C.ar    1  UNL1        0.0160
      4 C           7.5677   -7.3371   26.2663 C.ar    1  UNL1        0.0517
      5 C           6.9079   -6.1051   26.8110 C.ar    1  UNL1        0.0160
      6 C           6.7476   -4.8933   25.9414 C.ar    1  UNL1        0.0160
      7 N           7.7280   -8.5487   27.1359 N.am    1  UNL1       -0.2680
      8 C           6.6821   -9.6239   27.1243 C.2     1  UNL1        0.3093
      9 O           5.4759   -9.4874   26.2431 O.2     1  UNL1       -0.2521
     10 N           6.8423  -10.8355   27.9939 N.am    1  UNL1       -0.2508
     11 H           8.5196   -8.6383   27.7143 H       1  UNL1        0.1564
     12 H           7.6340  -10.9251   28.5723 H       1  UNL1        0.1579
     13 C           5.7964  -11.9107   27.9823 C.ar    1  UNL1        0.1771
     14 C           4.4141  -11.8023   28.5545 C.ar    1  UNL1        0.0734
     15 C           3.7126  -13.1077   28.3223 C.ar    1  UNL1        0.1549
     16 O           4.6614  -14.0229   27.6066 O.2     1  UNL1       -0.3565
     17 N           5.9494  -13.2831   27.3965 N.ar    1  UNL1       -0.0621
     18 C           2.3088  -13.4395   28.7335 C.3     1  UNL1        0.0539
     19 C           2.4081  -12.4586   29.8640 C.3     1  UNL1        0.0076
     20 C           2.2095  -14.4205   27.6031 C.3     1  UNL1        0.0076
     21 C           0.9050  -13.7714   29.1447 C.3     1  UNL1        0.0076
     22 C           5.8923   -3.5765   22.7591 C.2     1  UNL1        0.2672
     23 O           4.8580   -4.6625   22.7303 O.2     1  UNL1       -0.2682
     24 N           7.0869   -3.7021   23.6576 N.am    1  UNL1       -0.2791
     25 H           7.7657   -2.9893   23.6765 H       1  UNL1        0.1552
     26 C           5.4114    0.0584   20.1502 C.ar    1  UNL1        0.1575
     27 C           5.6029   -1.2924   19.5266 C.ar    1  UNL1        0.0402
     28 C           5.7632   -2.5040   20.3963 C.ar    1  UNL1        0.0269
     29 C           5.7320   -2.3648   21.8895 C.ar    1  UNL1        0.1350
     30 N           5.5405   -1.0141   22.5130 N.ar    1  UNL1       -0.2361
     31 C           5.3802    0.1975   21.6434 C.ar    1  UNL1        0.1357
     32 O           5.2511    1.2700   19.2805 O.3     1  UNL1       -0.4775
     33 N           1.1359    2.7581   18.2315 N.3     1  UNL1       -0.2724
     34 C           2.2717    3.7281   18.3691 C.3     1  UNL1        0.0758
     35 C           3.6434    3.2321   18.7188 C.3     1  UNL1        0.0609
     36 C           3.8793    1.7660   18.9308 C.3     1  UNL1        0.1688
     37 C           2.7435    0.7960   18.7933 C.3     1  UNL1        0.0609
     38 C           1.3718    1.2921   18.4436 C.3     1  UNL1        0.0758
     39 C          -0.4857    4.7256   17.7318 C.3     1  UNL1        0.0188
     40 C          -0.2359    3.2542   17.8818 C.3     1  UNL1        0.0721
@<TRIPOS>BOND
     1    39    40    1
     2    40    33    1
     3    33    34    1
     4    34    35    1
     5    35    36    1
     6    36    32    1
     7    32    26    1
     8    26    27   ar
     9    27    28   ar
    10    28    29   ar
    11    29    22    1
    12    22    23    2
    13    22    24   am
    14    24     1    1
    15     1     2   ar
    16     2     3   ar
    17     3     4   ar
    18     4     7    1
    19     7     8   am
    20     8     9    2
    21     8    10   am
    22    10    13    1
    23    13    14   ar
    24    14    15   ar
    25    15    18    1
    26    18    19    1
    27    18    20    1
    28    18    21    1
    29    15    16   ar
    30    16    17   ar
    31     4     5   ar
    32     5     6   ar
    33    29    30   ar
    34    30    31   ar
    35    36    37    1
    36    37    38    1
    37    38    33    1
    38    31    26   ar
    39     6     1   ar
    40    17    13   ar
    41    24    25    1
    42     7    11    1
    43    10    12    1
@<TRIPOS>MOLECULE
*****
 40 43 0 0 0
SMALL
GASTEIGER

@<TRIPOS>ATOM
      1 C          -3.2858    4.4641   23.2554 C.ar    1  UNL1        0.0507
      2 C          -3.8754    5.8307   23.0684 C.ar    1  UNL1        0.0160
      3 C          -5.1399    6.2062   23.7826 C.ar    1  UNL1        0.0160
      4 C          -5.8149    5.2151   24.6838 C.ar    1  UNL1        0.0517
      5 C          -5.2254    3.8485   24.8708 C.ar    1  UNL1        0.0160
      6 C          -3.9608    3.4730   24.1566 C.ar    1  UNL1        0.0160
      7 N          -7.0794    5.5905   25.3979 N.am    1  UNL1       -0.2680
      8 C          -8.3803    5.6244   24.6519 C.2     1  UNL1        0.3093
      9 O          -8.4167    5.2829   23.1918 O.2     1  UNL1       -0.2521
     10 N          -9.6448    5.9999   25.3661 N.am    1  UNL1       -0.2508
     11 H          -7.0555    5.8146   26.3563 H       1  UNL1        0.1564
     12 H          -9.6209    6.2240   26.3244 H       1  UNL1        0.1579
     13 C         -10.9458    6.0338   24.6201 C.ar    1  UNL1        0.1771
     14 C         -12.1247    5.1386   24.8624 C.ar    1  UNL1        0.0734
     15 C         -13.2037    5.5204   23.8929 C.ar    1  UNL1        0.1549
     16 O         -12.6916    6.6516   23.0513 O.2     1  UNL1       -0.3565
     17 N         -11.2960    6.9689   23.5008 N.ar    1  UNL1       -0.0621
     18 C         -14.5572    4.8830   23.7841 C.3     1  UNL1        0.0539
     19 C         -14.5934    4.7058   25.2731 C.3     1  UNL1        0.0076
     20 C         -14.5209    5.0603   22.2950 C.3     1  UNL1        0.0076
     21 C         -15.9106    4.2456   23.6752 C.3     1  UNL1        0.0076
     22 C          -2.0841    3.2745   21.2831 C.2     1  UNL1        0.2672
     23 O          -3.4113    2.8357   20.7391 O.2     1  UNL1       -0.2682
     24 N          -2.0213    4.0887   22.5413 N.am    1  UNL1       -0.2791
     25 H          -1.1502    4.3767   22.8983 H       1  UNL1        0.1552
     26 C           1.7095    2.1481   19.1404 C.ar    1  UNL1        0.1575
     27 C           1.4586    3.5775   19.5202 C.ar    1  UNL1        0.0402
     28 C           0.1941    3.9529   20.2344 C.ar    1  UNL1        0.0269
     29 C          -0.8195    2.8990   20.5689 C.ar    1  UNL1        0.1350
     30 N          -0.5687    1.4697   20.1891 N.ar    1  UNL1       -0.2361
     31 C           0.6958    1.0943   19.4749 C.ar    1  UNL1        0.1357
     32 O           2.9740    1.7727   18.4262 O.3     1  UNL1       -0.4775
     33 N           4.6869   -2.3608   18.9060 N.3     1  UNL1       -0.2724
     34 C           4.6367   -1.4288   20.0802 C.3     1  UNL1        0.0758
     35 C           4.0657   -0.0509   19.9203 C.3     1  UNL1        0.0609
     36 C           3.5449    0.3949   18.5862 C.3     1  UNL1        0.1688
     37 C           3.5951   -0.5371   17.4120 C.3     1  UNL1        0.0609
     38 C           4.1661   -1.9149   17.5719 C.3     1  UNL1        0.0758
     39 C           4.3611   -4.9374   18.9733 C.3     1  UNL1        0.0188
     40 C           5.2578   -3.7386   19.0660 C.3     1  UNL1        0.0721
@<TRIPOS>BOND
     1    39    40    1
     2    40    33    1
     3    33    34    1
     4    34    35    1
     5    35    36    1
     6    36    32    1
     7    32    26    1
     8    26    27   ar
     9    27    28   ar
    10    28    29   ar
    11    29    22    1
    12    22    23    2
    13    22    24   am
    14    24     1    1
    15     1     2   ar
    16     2     3   ar
    17     3     4   ar
    18     4     7    1
    19     7     8   am
    20     8     9    2
    21     8    10   am
    22    10    13    1
    23    13    14   ar
    24    14    15   ar
    25    15    18    1
    26    18    19    1
    27    18    20    1
    28    18    21    1
    29    15    16   ar
    30    16    17   ar
    31     4     5   ar
    32     5     6   ar
    33    29    30   ar
    34    30    31   ar
    35    36    37    1
    36    37    38    1
    37    38    33    1
    38    31    26   ar
    39     6     1   ar
    40    17    13   ar
    41    24    25    1
    42     7    11    1
    43    10    12    1
@<TRIPOS>MOLECULE
*****
 40 43 0 0 0
SMALL
GASTEIGER

@<TRIPOS>ATOM
      1 C           7.0271   -3.2031   28.4379 C.ar    1  UNL1        0.0507
      2 C           7.6395   -2.2190   27.4856 C.ar    1  UNL1        0.0160
      3 C           7.8012   -2.5772   26.0380 C.ar    1  UNL1        0.0160
      4 C           7.3507   -3.9195   25.5426 C.ar    1  UNL1        0.0517
      5 C           6.7384   -4.9035   26.4948 C.ar    1  UNL1        0.0160
      6 C           6.5766   -4.5453   27.9425 C.ar    1  UNL1        0.0160
      7 N           7.5125   -4.2777   24.0951 N.am    1  UNL1       -0.2680
      8 C           6.4841   -3.8399   23.0946 C.2     1  UNL1        0.3093
      9 O           5.2939   -3.0439   23.5418 O.2     1  UNL1       -0.2521
     10 N           6.6458   -4.1981   21.6471 N.am    1  UNL1       -0.2508
     11 H           8.2936   -4.8001   23.8016 H       1  UNL1        0.1564
     12 H           7.4270   -4.7205   21.3536 H       1  UNL1        0.1579
     13 C           5.6174   -3.7603   20.6466 C.ar    1  UNL1        0.1771
     14 C           5.2942   -2.3429   20.2771 C.ar    1  UNL1        0.0734
     15 C           4.2088   -2.3697   19.2422 C.ar    1  UNL1        0.1549
     16 O           3.8611   -3.8037   18.9721 O.2     1  UNL1       -0.3565
     17 N           4.7318   -4.6632   19.8401 N.ar    1  UNL1       -0.0621
     18 C           3.5812   -1.1727   18.5916 C.3     1  UNL1        0.0539
     19 C           4.5813   -1.2544   17.4767 C.3     1  UNL1        0.0076
     20 C           2.5810   -1.0911   19.7065 C.3     1  UNL1        0.0076
     21 C           2.9536    0.0242   17.9410 C.3     1  UNL1        0.0076
     22 C           5.7978   -1.8778   30.3039 C.2     1  UNL1        0.2672
     23 O           4.8921   -1.2690   29.2749 O.2     1  UNL1       -0.2682
     24 N           6.8654   -2.8449   29.8854 N.am    1  UNL1       -0.2791
     25 H           7.4598   -3.2445   30.5608 H       1  UNL1        0.1552
     26 C           5.3124   -0.8031   34.6467 C.ar    1  UNL1        0.1575
     27 C           4.2902   -1.6669   33.9690 C.ar    1  UNL1        0.0402
     28 C           4.4521   -2.0251   32.5214 C.ar    1  UNL1        0.0269
     29 C           5.6360   -1.5196   31.7516 C.ar    1  UNL1        0.1350
     30 N           6.6581   -0.6559   32.4292 N.ar    1  UNL1       -0.2361
     31 C           6.4963   -0.2976   33.8768 C.ar    1  UNL1        0.1357
     32 O           5.1505   -0.4449   36.0943 O.3     1  UNL1       -0.4775
     33 N           2.2790    2.8029   37.3011 N.3     1  UNL1       -0.2724
     34 C           2.7452    1.7995   38.3139 C.3     1  UNL1        0.0758
     35 C           3.7023    0.7169   37.9116 C.3     1  UNL1        0.0609
     36 C           4.1933    0.6377   36.4965 C.3     1  UNL1        0.1688
     37 C           3.7272    1.6410   35.4837 C.3     1  UNL1        0.0609
     38 C           2.7700    2.7236   35.8859 C.3     1  UNL1        0.0758
     39 C           1.0932    5.0590   36.7976 C.3     1  UNL1        0.0188
     40 C           1.3218    3.8855   37.7033 C.3     1  UNL1        0.0721
@<TRIPOS>BOND
     1    39    40    1
     2    40    33    1
     3    33    34    1
     4    34    35    1
     5    35    36    1
     6    36    32    1
     7    32    26    1
     8    26    27   ar
     9    27    28   ar
    10    28    29   ar
    11    29    22    1
    12    22    23    2
    13    22    24   am
    14    24     1    1
    15     1     2   ar
    16     2     3   ar
    17     3     4   ar
    18     4     7    1
    19     7     8   am
    20     8     9    2
    21     8    10   am
    22    10    13    1
    23    13    14   ar
    24    14    15   ar
    25    15    18    1
    26    18    19    1
    27    18    20    1
    28    18    21    1
    29    15    16   ar
    30    16    17   ar
    31     4     5   ar
    32     5     6   ar
    33    29    30   ar
    34    30    31   ar
    35    36    37    1
    36    37    38    1
    37    38    33    1
    38    31    26   ar
    39     6     1   ar
    40    17    13   ar
    41    24    25    1
    42     7    11    1
    43    10    12    1
@<TRIPOS>MOLECULE
*****
 40 43 0 0 0
SMALL
GASTEIGER

@<TRIPOS>ATOM
      1 C           7.1453   -2.6087   29.7081 C.ar    1  UNL1        0.0507
      2 C           7.6667   -1.2558   30.0929 C.ar    1  UNL1        0.0160
      3 C           7.5684   -0.7910   31.5156 C.ar    1  UNL1        0.0160
      4 C           6.9488   -1.6790   32.5537 C.ar    1  UNL1        0.0517
      5 C           6.4274   -3.0318   32.1690 C.ar    1  UNL1        0.0160
      6 C           6.5256   -3.4966   30.7462 C.ar    1  UNL1        0.0160
      7 N           6.8505   -1.2142   33.9764 N.am    1  UNL1       -0.2680
      8 C           5.6463   -0.4447   34.4326 C.2     1  UNL1        0.3093
      9 O           4.5405   -0.1401   33.4660 O.2     1  UNL1       -0.2521
     10 N           5.5481    0.0201   35.8554 N.am    1  UNL1       -0.2508
     11 H           7.5763   -1.4141   34.6108 H       1  UNL1        0.1564
     12 H           6.2739   -0.1798   36.4898 H       1  UNL1        0.1579
     13 C           4.3439    0.7896   36.3116 C.ar    1  UNL1        0.1771
     14 C           3.6781    0.6726   37.6506 C.ar    1  UNL1        0.0734
     15 C           2.5169    1.6218   37.6754 C.ar    1  UNL1        0.1549
     16 O           2.4651    2.3255   36.3516 O.2     1  UNL1       -0.3565
     17 N           3.5943    1.8111   35.5087 N.ar    1  UNL1       -0.0621
     18 C           1.5733    1.8307   38.8225 C.3     1  UNL1        0.0539
     19 C           1.3760    3.2566   38.4004 C.3     1  UNL1        0.0076
     20 C           1.7705    0.4049   39.2445 C.3     1  UNL1        0.0076
     21 C           0.6296    2.0396   39.9695 C.3     1  UNL1        0.0076
     22 C           6.1919   -2.6763   27.2923 C.2     1  UNL1        0.2672
     23 O           5.0419   -1.8143   27.7220 O.2     1  UNL1       -0.2682
     24 N           7.2435   -3.0735   28.2854 N.am    1  UNL1       -0.2791
     25 H           7.9983   -3.6392   28.0034 H       1  UNL1        0.1552
     26 C           6.4865   -4.0707   23.0239 C.ar    1  UNL1        0.1575
     27 C           5.6044   -2.9091   23.3743 C.ar    1  UNL1        0.0402
     28 C           5.5062   -2.4443   24.7971 C.ar    1  UNL1        0.0269
     29 C           6.2901   -3.1411   25.8695 C.ar    1  UNL1        0.1350
     30 N           7.1721   -4.3027   25.5192 N.ar    1  UNL1       -0.2361
     31 C           7.2704   -4.7675   24.0963 C.ar    1  UNL1        0.1357
     32 O           6.5847   -4.5354   21.6011 O.3     1  UNL1       -0.4775
     33 N           4.7463   -2.0879   18.3026 N.3     1  UNL1       -0.2724
     34 C           3.9292   -3.1289   19.0088 C.3     1  UNL1        0.0758
     35 C           4.5420   -3.9448   20.1083 C.3     1  UNL1        0.0609
     36 C           5.9719   -3.7196   20.5016 C.3     1  UNL1        0.1688
     37 C           6.7890   -2.6786   19.7955 C.3     1  UNL1        0.0609
     38 C           6.1762   -1.8628   18.6960 C.3     1  UNL1        0.0758
     39 C           3.2281   -0.1237   17.5367 C.3     1  UNL1        0.0188
     40 C           4.1335   -1.2721   17.2031 C.3     1  UNL1        0.0721
@<TRIPOS>BOND
     1    39    40    1
     2    40    33    1
     3    33    34    1
     4    34    35    1
     5    35    36    1
     6    36    32    1
     7    32    26    1
     8    26    27   ar
     9    27    28   ar
    10    28    29   ar
    11    29    22    1
    12    22    23    2
    13    22    24   am
    14    24     1    1
    15     1     2   ar
    16     2     3   ar
    17     3     4   ar
    18     4     7    1
    19     7     8   am
    20     8     9    2
    21     8    10   am
    22    10    13    1
    23    13    14   ar
    24    14    15   ar
    25    15    18    1
    26    18    19    1
    27    18    20    1
    28    18    21    1
    29    15    16   ar
    30    16    17   ar
    31     4     5   ar
    32     5     6   ar
    33    29    30   ar
    34    30    31   ar
    35    36    37    1
    36    37    38    1
    37    38    33    1
    38    31    26   ar
    39     6     1   ar
    40    17    13   ar
    41    24    25    1
    42     7    11    1
    43    10    12    1
@<TRIPOS>MOLECULE
*****
 40 43 0 0 0
SMALL
GASTEIGER

@<TRIPOS>ATOM
      1 C          -3.2219    4.0985   23.0146 C.ar    1  UNL1        0.0507
      2 C          -4.0974    3.2299   23.8684 C.ar    1  UNL1        0.0160
      3 C          -5.2806    3.8219   24.5751 C.ar    1  UNL1        0.0160
      4 C          -5.5883    5.2826   24.4280 C.ar    1  UNL1        0.0517
      5 C          -4.7129    6.1513   23.5742 C.ar    1  UNL1        0.0160
      6 C          -3.5297    5.5592   22.8675 C.ar    1  UNL1        0.0160
      7 N          -6.7715    5.8747   25.1348 N.am    1  UNL1       -0.2680
      8 C          -8.1296    5.8184   24.5002 C.2     1  UNL1        0.3093
      9 O          -8.3043    5.1701   23.1588 O.2     1  UNL1       -0.2521
     10 N          -9.3128    6.4105   25.2069 N.am    1  UNL1       -0.2508
     11 H          -6.6568    6.3002   26.0151 H       1  UNL1        0.1564
     12 H          -9.1980    6.8360   26.0872 H       1  UNL1        0.1579
     13 C         -10.6708    6.3542   24.5723 C.ar    1  UNL1        0.1771
     14 C         -11.7823    5.4203   24.9496 C.ar    1  UNL1        0.0734
     15 C         -12.9541    5.7109   24.0595 C.ar    1  UNL1        0.1549
     16 O         -12.5669    6.8245   23.1320 O.2     1  UNL1       -0.3565
     17 N         -11.1556    7.2221   23.4490 N.ar    1  UNL1       -0.0621
     18 C         -14.2804    5.0109   24.0912 C.3     1  UNL1        0.0539
     19 C         -14.3170    5.0123   22.5916 C.3     1  UNL1        0.0076
     20 C         -14.2438    5.0095   25.5907 C.3     1  UNL1        0.0076
     21 C         -15.6066    4.3109   24.1229 C.3     1  UNL1        0.0076
     22 C          -2.1486    3.1081   20.8659 C.2     1  UNL1        0.2672
     23 O          -3.4416    3.3018   20.1307 O.2     1  UNL1       -0.2682
     24 N          -2.0387    3.5065   22.3078 N.am    1  UNL1       -0.2791
     25 H          -1.1900    3.3793   22.7904 H       1  UNL1        0.1552
     26 C           1.4011    1.3319   18.7455 C.ar    1  UNL1        0.1575
     27 C           0.9309    2.7123   18.3940 C.ar    1  UNL1        0.0402
     28 C          -0.2523    3.3043   19.1007 C.ar    1  UNL1        0.0269
     29 C          -0.9653    2.5160   20.1591 C.ar    1  UNL1        0.1350
     30 N          -0.4952    1.1357   20.5107 N.ar    1  UNL1       -0.2361
     31 C           0.6880    0.5436   19.8039 C.ar    1  UNL1        0.1357
     32 O           2.5842    0.7399   18.0388 O.3     1  UNL1       -0.4775
     33 N           5.6339   -1.6269   20.3513 N.3     1  UNL1       -0.2724
     34 C           5.3446   -0.2045   20.7292 C.3     1  UNL1        0.0758
     35 C           4.3280    0.5845   19.9584 C.3     1  UNL1        0.0609
     36 C           3.6008   -0.0491   18.8096 C.3     1  UNL1        0.1688
     37 C           3.8901   -1.4715   18.4317 C.3     1  UNL1        0.0609
     38 C           4.9066   -2.2605   19.2025 C.3     1  UNL1        0.0758
     39 C           7.0846   -3.7643   20.6289 C.3     1  UNL1        0.0188
     40 C           6.6504   -2.4159   21.1221 C.3     1  UNL1        0.0721
@<TRIPOS>BOND
     1    39    40    1
     2    40    33    1
     3    33    34    1
     4    34    35    1
     5    35    36    1
     6    36    32    1
     7    32    26    1
     8    26    27   ar
     9    27    28   ar
    10    28    29   ar
    11    29    22    1
    12    22    23    2
    13    22    24   am
    14    24     1    1
    15     1     2   ar
    16     2     3   ar
    17     3     4   ar
    18     4     7    1
    19     7     8   am
    20     8     9    2
    21     8    10   am
    22    10    13    1
    23    13    14   ar
    24    14    15   ar
    25    15    18    1
    26    18    19    1
    27    18    20    1
    28    18    21    1
    29    15    16   ar
    30    16    17   ar
    31     4     5   ar
    32     5     6   ar
    33    29    30   ar
    34    30    31   ar
    35    36    37    1
    36    37    38    1
    37    38    33    1
    38    31    26   ar
    39     6     1   ar
    40    17    13   ar
    41    24    25    1
    42     7    11    1
    43    10    12    1
@<TRIPOS>MOLECULE
*****
 40 43 0 0 0
SMALL
GASTEIGER

@<TRIPOS>ATOM
      1 C           1.4333    2.5331   26.9486 C.ar    1  UNL1        0.0507
      2 C           2.0960    3.3297   25.8640 C.ar    1  UNL1        0.0160
      3 C           1.8253    3.0070   24.4244 C.ar    1  UNL1        0.0160
      4 C           0.8918    1.8878   24.0693 C.ar    1  UNL1        0.0517
      5 C           0.2292    1.0913   25.1538 C.ar    1  UNL1        0.0160
      6 C           0.4999    1.4139   26.5935 C.ar    1  UNL1        0.0160
      7 N           0.6211    1.5652   22.6296 N.am    1  UNL1       -0.2680
      8 C           1.6041    0.7461   21.8469 C.2     1  UNL1        0.3093
      9 O           2.8579    0.2496   22.5038 O.2     1  UNL1       -0.2521
     10 N           1.3334    0.4234   20.4072 N.am    1  UNL1       -0.2508
     11 H          -0.2018    1.8911   22.1985 H       1  UNL1        0.1564
     12 H           0.5105    0.7493   19.9761 H       1  UNL1        0.1579
     13 C           2.3165   -0.3957   19.6245 C.ar    1  UNL1        0.1771
     14 C           2.7069   -1.8154   19.9108 C.ar    1  UNL1        0.0734
     15 C           3.7133   -2.2361   18.8813 C.ar    1  UNL1        0.1549
     16 O           3.9450   -1.0763   17.9585 O.2     1  UNL1       -0.3565
     17 N           3.0816    0.0611   18.4179 N.ar    1  UNL1       -0.0621
     18 C           4.3725   -3.5804   18.7903 C.3     1  UNL1        0.0539
     19 C           5.6651   -2.9209   18.4108 C.3     1  UNL1        0.0076
     20 C           3.0798   -4.2399   19.1698 C.3     1  UNL1        0.0076
     21 C           5.0316   -4.9247   18.6994 C.3     1  UNL1        0.0076
     22 C           0.9355    3.9491   29.0691 C.2     1  UNL1        0.2672
     23 O          -0.1038    4.7199   28.3104 O.2     1  UNL1       -0.2682
     24 N           1.7041    2.8557   28.3882 N.am    1  UNL1       -0.2791
     25 H           2.3862    2.3498   28.8862 H       1  UNL1        0.1552
     26 C           1.7476    4.9171   33.3882 C.ar    1  UNL1        0.1575
     27 C           0.3427    4.6639   32.9276 C.ar    1  UNL1        0.0402
     28 C           0.0720    4.3412   31.4880 C.ar    1  UNL1        0.0269
     29 C           1.2062    4.2718   30.5088 C.ar    1  UNL1        0.1350
     30 N           2.6111    4.5250   30.9693 N.ar    1  UNL1       -0.2361
     31 C           2.8818    4.8477   32.4090 C.ar    1  UNL1        0.1357
     32 O           2.0183    5.2398   34.8278 O.3     1  UNL1       -0.4775
     33 N           2.2843    1.9292   37.8641 N.3     1  UNL1       -0.2724
     34 C           3.0308    1.8197   36.5677 C.3     1  UNL1        0.0758
     35 C           2.9422    2.9232   35.5556 C.3     1  UNL1        0.0609
     36 C           2.1069    4.1362   35.8399 C.3     1  UNL1        0.1688
     37 C           1.3604    4.2458   37.1363 C.3     1  UNL1        0.0609
     38 C           1.4491    3.1422   38.1484 C.3     1  UNL1        0.0758
     39 C           1.1206    0.2250   39.4426 C.3     1  UNL1        0.0188
     40 C           2.3729    0.8256   38.8762 C.3     1  UNL1        0.0721
@<TRIPOS>BOND
     1    39    40    1
     2    40    33    1
     3    33    34    1
     4    34    35    1
     5    35    36    1
     6    36    32    1
     7    32    26    1
     8    26    27   ar
     9    27    28   ar
    10    28    29   ar
    11    29    22    1
    12    22    23    2
    13    22    24   am
    14    24     1    1
    15     1     2   ar
    16     2     3   ar
    17     3     4   ar
    18     4     7    1
    19     7     8   am
    20     8     9    2
    21     8    10   am
    22    10    13    1
    23    13    14   ar
    24    14    15   ar
    25    15    18    1
    26    18    19    1
    27    18    20    1
    28    18    21    1
    29    15    16   ar
    30    16    17   ar
    31     4     5   ar
    32     5     6   ar
    33    29    30   ar
    34    30    31   ar
    35    36    37    1
    36    37    38    1
    37    38    33    1
    38    31    26   ar
    39     6     1   ar
    40    17    13   ar
    41    24    25    1
    42     7    11    1
    43    10    12    1
@<TRIPOS>MOLECULE
*****
 40 43 0 0 0
SMALL
GASTEIGER

@<TRIPOS>ATOM
      1 C           0.9721    1.6077   29.5035 C.ar    1  UNL1        0.0507
      2 C          -0.2990    0.8766   29.1875 C.ar    1  UNL1        0.0160
      3 C          -0.9932    1.1106   27.8786 C.ar    1  UNL1        0.0160
      4 C          -0.4163    2.0756   26.8856 C.ar    1  UNL1        0.0517
      5 C           0.8547    2.8067   27.2016 C.ar    1  UNL1        0.0160
      6 C           1.5490    2.5728   28.5106 C.ar    1  UNL1        0.0160
      7 N          -1.1105    2.3096   25.5767 N.am    1  UNL1       -0.2680
      8 C          -2.2475    3.2845   25.4945 C.2     1  UNL1        0.3093
      9 O          -2.6903    4.0255   26.7213 O.2     1  UNL1       -0.2521
     10 N          -2.9417    3.5185   24.1856 N.am    1  UNL1       -0.2508
     11 H          -0.8199    1.8232   24.7716 H       1  UNL1        0.1564
     12 H          -2.6511    3.0322   23.3804 H       1  UNL1        0.1579
     13 C          -4.0787    4.4935   24.1034 C.ar    1  UNL1        0.1771
     14 C          -5.5065    4.2158   24.4697 C.ar    1  UNL1        0.0734
     15 C          -6.2978    5.4680   24.2331 C.ar    1  UNL1        0.1549
     16 O          -5.3589    6.5196   23.7205 O.2     1  UNL1       -0.3565
     17 N          -3.9874    5.9173   23.6404 N.ar    1  UNL1       -0.0621
     18 C          -7.7694    5.6386   24.4678 C.3     1  UNL1        0.0539
     19 C          -7.5003    6.8955   25.2410 C.3     1  UNL1        0.0076
     20 C          -8.0385    4.3817   23.6946 C.3     1  UNL1        0.0076
     21 C          -9.2410    5.8092   24.7026 C.3     1  UNL1        0.0076
     22 C           2.5825    0.1974   30.9757 C.2     1  UNL1        0.2672
     23 O           2.8046   -0.7450   29.8300 O.2     1  UNL1       -0.2682
     24 N           1.6663    1.3738   30.8125 N.am    1  UNL1       -0.2791
     25 H           1.5206    1.9923   31.5644 H       1  UNL1        0.1552
     26 C           4.6653   -0.5046   34.9026 C.ar    1  UNL1        0.1575
     27 C           4.2311    0.8796   34.5207 C.ar    1  UNL1        0.0402
     28 C           3.5369    1.1135   33.2118 C.ar    1  UNL1        0.0269
     29 C           3.2768   -0.0366   32.2847 C.ar    1  UNL1        0.1350
     30 N           3.7109   -1.4207   32.6665 N.ar    1  UNL1       -0.2361
     31 C           4.4051   -1.6547   33.9755 C.ar    1  UNL1        0.1357
     32 O           5.3595   -0.7385   36.2115 O.3     1  UNL1       -0.4775
     33 N           6.1070    2.7059   39.0091 N.3     1  UNL1       -0.2724
     34 C           7.2386    2.1276   38.2124 C.3     1  UNL1        0.0758
     35 C           6.9895    0.9795   37.2798 C.3     1  UNL1        0.0609
     36 C           5.6086    0.4096   37.1440 C.3     1  UNL1        0.1688
     37 C           4.4770    0.9879   37.9408 C.3     1  UNL1        0.0609
     38 C           4.7261    2.1361   38.8733 C.3     1  UNL1        0.0758
     39 C           5.3411    4.2032   40.9894 C.3     1  UNL1        0.0188
     40 C           6.3561    3.8541   39.9417 C.3     1  UNL1        0.0721
@<TRIPOS>BOND
     1    39    40    1
     2    40    33    1
     3    33    34    1
     4    34    35    1
     5    35    36    1
     6    36    32    1
     7    32    26    1
     8    26    27   ar
     9    27    28   ar
    10    28    29   ar
    11    29    22    1
    12    22    23    2
    13    22    24   am
    14    24     1    1
    15     1     2   ar
    16     2     3   ar
    17     3     4   ar
    18     4     7    1
    19     7     8   am
    20     8     9    2
    21     8    10   am
    22    10    13    1
    23    13    14   ar
    24    14    15   ar
    25    15    18    1
    26    18    19    1
    27    18    20    1
    28    18    21    1
    29    15    16   ar
    30    16    17   ar
    31     4     5   ar
    32     5     6   ar
    33    29    30   ar
    34    30    31   ar
    35    36    37    1
    36    37    38    1
    37    38    33    1
    38    31    26   ar
    39     6     1   ar
    40    17    13   ar
    41    24    25    1
    42     7    11    1
    43    10    12    1
@<TRIPOS>MOLECULE
*****
 40 43 0 0 0
SMALL
GASTEIGER

@<TRIPOS>ATOM
      1 C           1.5428    1.4592   28.7985 C.ar    1  UNL1        0.0507
      2 C           0.2654    0.7895   28.3865 C.ar    1  UNL1        0.0160
      3 C          -0.2237    0.9115   26.9738 C.ar    1  UNL1        0.0160
      4 C           0.5647    1.7031   25.9729 C.ar    1  UNL1        0.0517
      5 C           1.8421    2.3728   26.3848 C.ar    1  UNL1        0.0160
      6 C           2.3312    2.2509   27.7976 C.ar    1  UNL1        0.0160
      7 N           0.0757    1.8251   24.5601 N.am    1  UNL1       -0.2680
      8 C           0.9274    1.3353   23.4267 C.2     1  UNL1        0.3093
      9 O           2.2682    0.7235   23.7060 O.2     1  UNL1       -0.2521
     10 N           0.4384    1.4572   22.0139 N.am    1  UNL1       -0.2508
     11 H          -0.8043    2.2266   24.3768 H       1  UNL1        0.1564
     12 H          -0.4416    1.8588   21.8306 H       1  UNL1        0.1579
     13 C           1.2901    0.9674   20.8804 C.ar    1  UNL1        0.1771
     14 C           2.0041   -0.3504   20.8196 C.ar    1  UNL1        0.0734
     15 C           2.7326   -0.4228   19.5104 C.ar    1  UNL1        0.1549
     16 O           2.4690    0.8502   18.7621 O.2     1  UNL1       -0.3565
     17 N           1.5774    1.7095   19.6089 N.ar    1  UNL1       -0.0621
     18 C           3.5767   -1.5674   19.0332 C.3     1  UNL1        0.0539
     19 C           3.4527   -2.2195   20.3784 C.3     1  UNL1        0.0076
     20 C           3.7006   -0.9152   17.6881 C.3     1  UNL1        0.0076
     21 C           4.4207   -2.7118   18.5561 C.3     1  UNL1        0.0076
     22 C           2.8302    0.1376   30.6275 C.2     1  UNL1        0.2672
     23 O           3.1395   -0.9401   29.6311 O.2     1  UNL1       -0.2682
     24 N           2.0319    1.3373   30.2112 N.am    1  UNL1       -0.2791
     25 H           1.8289    2.0446   30.8652 H       1  UNL1        0.1552
     26 C           4.2974   -0.2284   34.8659 C.ar    1  UNL1        0.1575
     27 C           3.8198    1.0964   34.3493 C.ar    1  UNL1        0.0402
     28 C           3.3308    1.2184   32.9365 C.ar    1  UNL1        0.0269
     29 C           3.3193    0.0156   32.0404 C.ar    1  UNL1        0.1350
     30 N           3.7969   -1.3092   32.5569 N.ar    1  UNL1       -0.2361
     31 C           4.2859   -1.4312   33.9698 C.ar    1  UNL1        0.1357
     32 O           4.7865   -0.3503   36.2787 O.3     1  UNL1       -0.4775
     33 N           4.1299    3.0211   39.1860 N.3     1  UNL1       -0.2724
     34 C           3.0055    2.0843   38.8576 C.3     1  UNL1        0.0758
     35 C           3.2243    0.9605   37.8885 C.3     1  UNL1        0.0609
     36 C           4.5676    0.7735   37.2478 C.3     1  UNL1        0.1688
     37 C           5.6921    1.7103   37.5762 C.3     1  UNL1        0.0609
     38 C           5.4732    2.8342   38.5453 C.3     1  UNL1        0.0758
     39 C           4.2862    5.5467   39.7752 C.3     1  UNL1        0.0188
     40 C           3.9110    4.1449   40.1551 C.3     1  UNL1        0.0721
@<TRIPOS>BOND
     1    39    40    1
     2    40    33    1
     3    33    34    1
     4    34    35    1
     5    35    36    1
     6    36    32    1
     7    32    26    1
     8    26    27   ar
     9    27    28   ar
    10    28    29   ar
    11    29    22    1
    12    22    23    2
    13    22    24   am
    14    24     1    1
    15     1     2   ar
    16     2     3   ar
    17     3     4   ar
    18     4     7    1
    19     7     8   am
    20     8     9    2
    21     8    10   am
    22    10    13    1
    23    13    14   ar
    24    14    15   ar
    25    15    18    1
    26    18    19    1
    27    18    20    1
    28    18    21    1
    29    15    16   ar
    30    16    17   ar
    31     4     5   ar
    32     5     6   ar
    33    29    30   ar
    34    30    31   ar
    35    36    37    1
    36    37    38    1
    37    38    33    1
    38    31    26   ar
    39     6     1   ar
    40    17    13   ar
    41    24    25    1
    42     7    11    1
    43    10    12    1
@<TRIPOS>MOLECULE
*****
 40 43 0 0 0
SMALL
GASTEIGER

@<TRIPOS>ATOM
      1 C          -0.9819    2.0271   27.6352 C.ar    1  UNL1        0.0507
      2 C           0.4422    2.4982   27.6244 C.ar    1  UNL1        0.0160
      3 C           1.5206    1.6398   28.2161 C.ar    1  UNL1        0.0160
      4 C           1.1750    0.3102   28.8185 C.ar    1  UNL1        0.0517
      5 C          -0.2490   -0.1609   28.8293 C.ar    1  UNL1        0.0160
      6 C          -1.3275    0.6975   28.2376 C.ar    1  UNL1        0.0160
      7 N           2.2534   -0.5482   29.4102 N.am    1  UNL1       -0.2680
      8 C           2.6833   -0.3387   30.8319 C.2     1  UNL1        0.3093
      9 O           2.0348    0.7292   31.6620 O.2     1  UNL1       -0.2521
     10 N           3.7618   -1.1971   31.4236 N.am    1  UNL1       -0.2508
     11 H           2.6791   -1.2491   28.8654 H       1  UNL1        0.1564
     12 H           4.1874   -1.8980   30.8788 H       1  UNL1        0.1579
     13 C           4.1917   -0.9876   32.8454 C.ar    1  UNL1        0.1771
     14 C           4.9418    0.1989   33.3740 C.ar    1  UNL1        0.0734
     15 C           5.1607   -0.0081   34.8434 C.ar    1  UNL1        0.1549
     16 O           4.5458   -1.3226   35.2230 O.2     1  UNL1       -0.3565
     17 N           3.9469   -1.9280   33.9881 N.ar    1  UNL1       -0.0621
     18 C           5.8699    0.9340   35.7705 C.3     1  UNL1        0.0539
     19 C           5.4161    2.0957   34.9371 C.3     1  UNL1        0.0076
     20 C           6.3237   -0.2278   36.6039 C.3     1  UNL1        0.0076
     21 C           6.5791    1.8760   36.6976 C.3     1  UNL1        0.0076
     22 C          -2.0909    3.1387   25.5654 C.2     1  UNL1        0.2672
     23 O          -1.0431    2.5336   24.6789 O.2     1  UNL1       -0.2682
     24 N          -2.0603    2.8855   27.0435 N.am    1  UNL1       -0.2791
     25 H          -2.7481    3.2826   27.6253 H       1  UNL1        0.1552
     26 C          -5.3262    5.7140   23.7903 C.ar    1  UNL1        0.1575
     27 C          -4.9622    5.8588   25.2383 C.ar    1  UNL1        0.0402
     28 C          -3.8838    5.0004   25.8299 C.ar    1  UNL1        0.0269
     29 C          -3.1694    3.9972   24.9737 C.ar    1  UNL1        0.1350
     30 N          -3.5334    3.8523   23.5258 N.ar    1  UNL1       -0.2361
     31 C          -4.6119    4.7108   22.9340 C.ar    1  UNL1        0.1357
     32 O          -6.4046    6.5725   23.1986 O.3     1  UNL1       -0.4775
     33 N         -10.6697    6.0735   24.5442 N.3     1  UNL1       -0.2724
     34 C         -10.1930    7.4034   24.0400 C.3     1  UNL1        0.0758
     35 C          -8.7713    7.5697   23.5914 C.3     1  UNL1        0.0609
     36 C          -7.8263    6.4062   23.6472 C.3     1  UNL1        0.1688
     37 C          -8.3030    5.0763   24.1514 C.3     1  UNL1        0.0609
     38 C          -9.7247    4.9100   24.6000 C.3     1  UNL1        0.0758
     39 C         -12.9426    4.8234   24.4008 C.3     1  UNL1        0.0188
     40 C         -12.0913    5.9072   24.9928 C.3     1  UNL1        0.0721
@<TRIPOS>BOND
     1    39    40    1
     2    40    33    1
     3    33    34    1
     4    34    35    1
     5    35    36    1
     6    36    32    1
     7    32    26    1
     8    26    27   ar
     9    27    28   ar
    10    28    29   ar
    11    29    22    1
    12    22    23    2
    13    22    24   am
    14    24     1    1
    15     1     2   ar
    16     2     3   ar
    17     3     4   ar
    18     4     7    1
    19     7     8   am
    20     8     9    2
    21     8    10   am
    22    10    13    1
    23    13    14   ar
    24    14    15   ar
    25    15    18    1
    26    18    19    1
    27    18    20    1
    28    18    21    1
    29    15    16   ar
    30    16    17   ar
    31     4     5   ar
    32     5     6   ar
    33    29    30   ar
    34    30    31   ar
    35    36    37    1
    36    37    38    1
    37    38    33    1
    38    31    26   ar
    39     6     1   ar
    40    17    13   ar
    41    24    25    1
    42     7    11    1
    43    10    12    1
