@<TRIPOS>MOLECULE
*****
 32 34 0 0 0
SMALL
GASTEIGER

@<TRIPOS>ATOM
      1 C          -9.1039  -19.4136   20.8142 C.3     1  UNL1        0.1697
      2 O          -8.4460  -19.0084   19.5286 O.3     1  UNL1       -0.3793
      3 H          -9.1097  -18.9753   18.8220 H       1  UNL1        0.2106
      4 C          -8.2886  -19.5390   22.0670 C.3     1  UNL1        0.2358
      5 O          -7.0595  -20.3986   22.0789 O.3     1  UNL1       -0.4728
      6 C          -2.7943  -17.5525   22.9207 C.3     1  UNL1        0.0325
      7 C          -3.6192  -18.4210   22.0177 C.ar    1  UNL1       -0.0017
      8 C          -4.9269  -18.9756   22.4998 C.ar    1  UNL1        0.0339
      9 C          -5.7517  -19.8441   21.5968 C.ar    1  UNL1        0.1384
     10 C          -5.2689  -20.1580   20.2118 C.ar    1  UNL1        0.0382
     11 C          -3.9612  -19.6035   19.7298 C.ar    1  UNL1        0.0211
     12 C          -3.1363  -18.7350   20.6327 C.ar    1  UNL1        0.1019
     13 S          -1.8286  -18.1804   20.1506 S.O2    1  UNL1        0.0102
     14 C          -0.5209  -17.6259   19.6685 C.3     1  UNL1        0.1816
     15 O          -2.5312  -16.9486   19.6618 O.2     1  UNL1       -0.1686
     16 O          -1.1260  -19.4122   20.6394 O.2     1  UNL1       -0.1686
     17 C         -10.5773  -19.6933   20.8470 C.3     1  UNL1        0.1020
     18 N         -11.5561  -18.5570   20.8688 N.3     1  UNL1       -0.2971
     19 H         -12.4674  -18.9575   21.0916 H       1  UNL1        0.1233
     20 C         -11.3480  -17.4056   21.8076 C.3     1  UNL1        0.0476
     21 C         -11.5993  -18.3126   22.9756 C.3     1  UNL1        0.0162
     22 C         -11.0967  -16.4987   20.6396 C.3     1  UNL1        0.0162
     23 C         -11.1398  -16.2544   22.7463 C.3     1  UNL1        0.0602
     24 C          -9.8164  -16.0728   23.4286 C.2     1  UNL1        0.0599
     25 C          -9.5966  -15.9468   24.9071 C.2     1  UNL1        0.0159
     26 C          -8.1248  -15.7815   25.1445 C.2     1  UNL1        0.0150
     27 C          -7.3236  -15.6124   26.4013 C.2     1  UNL1        0.0009
     28 C          -5.8326  -15.4671   26.3263 C.2     1  UNL1       -0.0041
     29 C          -5.1427  -15.4909   24.9946 C.2     1  UNL1       -0.0198
     30 C          -5.9439  -15.6600   23.7378 C.3     1  UNL1        0.0717
     31 C          -7.4349  -15.8053   23.8128 C.2     1  UNL1        0.0630
     32 N          -8.4804  -15.9854   22.7523 N.2     1  UNL1       -0.2536
@<TRIPOS>BOND
     1     6     7    1
     2     7     8   ar
     3     8     9   ar
     4     9     5    1
     5     5     4    1
     6     4     1    1
     7     1     2    1
     8     1    17    1
     9    17    18    1
    10    18    20    1
    11    20    21    1
    12    20    22    1
    13    20    23    1
    14    23    24    1
    15    24    25    2
    16    25    26    1
    17    26    27    2
    18    27    28    1
    19    28    29    2
    20    29    30    1
    21    30    31    1
    22    31    32    2
    23     9    10   ar
    24    10    11   ar
    25    11    12   ar
    26    12    13    1
    27    13    14    1
    28    13    15    2
    29    13    16    2
    30    12     7   ar
    31    32    24    1
    32    31    26    1
    33     2     3    1
    34    18    19    1
@<TRIPOS>MOLECULE
*****
 32 34 0 0 0
SMALL
GASTEIGER

@<TRIPOS>ATOM
      1 C         -10.1073  -20.0138   23.3605 C.3     1  UNL1        0.1697
      2 O         -10.6867  -20.0050   24.7440 O.3     1  UNL1       -0.3793
      3 H         -11.6490  -20.1152   24.6923 H       1  UNL1        0.2106
      4 C          -8.6281  -19.8589   23.1658 C.3     1  UNL1        0.2358
      5 O          -7.9771  -20.3800   21.9190 O.3     1  UNL1       -0.4728
      6 C          -3.6478  -17.7516   23.0805 C.3     1  UNL1        0.0325
      7 C          -4.4011  -18.6776   22.1721 C.ar    1  UNL1       -0.0017
      8 C          -5.8124  -19.0658   22.4997 C.ar    1  UNL1        0.0339
      9 C          -6.5657  -19.9918   21.5914 C.ar    1  UNL1        0.1384
     10 C          -5.9076  -20.5296   20.3554 C.ar    1  UNL1        0.0382
     11 C          -4.4962  -20.1415   20.0278 C.ar    1  UNL1        0.0211
     12 C          -3.7430  -19.2155   20.9362 C.ar    1  UNL1        0.1019
     13 S          -2.3315  -18.8273   20.6086 S.O2    1  UNL1        0.0102
     14 C          -0.9202  -18.4391   20.2809 C.3     1  UNL1        0.1816
     15 O          -2.8319  -17.5976   19.9103 O.2     1  UNL1       -0.1686
     16 O          -1.8312  -20.0569   21.3069 O.2     1  UNL1       -0.1686
     17 C         -11.0071  -20.1775   22.1715 C.3     1  UNL1        0.1020
     18 N         -11.6025  -18.9703   21.5097 N.3     1  UNL1       -0.2971
     19 H         -12.5468  -18.8666   21.8810 H       1  UNL1        0.1233
     20 C         -10.9344  -17.6342   21.6460 C.3     1  UNL1        0.0476
     21 C          -9.9450  -18.0209   20.5870 C.3     1  UNL1        0.0162
     22 C         -11.9238  -17.2474   22.7049 C.3     1  UNL1        0.0162
     23 C         -10.2663  -16.2981   21.7822 C.3     1  UNL1        0.0602
     24 C          -9.2298  -16.0828   22.8449 C.2     1  UNL1        0.0599
     25 C          -9.4572  -16.1550   24.3258 C.2     1  UNL1        0.0159
     26 C          -8.1518  -15.8742   25.0094 C.2     1  UNL1        0.0150
     27 C          -7.7713  -15.8106   26.4589 C.2     1  UNL1        0.0009
     28 C          -6.3566  -15.5012   26.8500 C.2     1  UNL1       -0.0041
     29 C          -5.3225  -15.2554   25.7915 C.2     1  UNL1       -0.0198
     30 C          -5.7031  -15.3190   24.3420 C.3     1  UNL1        0.0717
     31 C          -7.1178  -15.6284   23.9510 C.2     1  UNL1        0.0630
     32 N          -7.7840  -15.7573   22.6132 N.2     1  UNL1       -0.2536
@<TRIPOS>BOND
     1     6     7    1
     2     7     8   ar
     3     8     9   ar
     4     9     5    1
     5     5     4    1
     6     4     1    1
     7     1     2    1
     8     1    17    1
     9    17    18    1
    10    18    20    1
    11    20    21    1
    12    20    22    1
    13    20    23    1
    14    23    24    1
    15    24    25    2
    16    25    26    1
    17    26    27    2
    18    27    28    1
    19    28    29    2
    20    29    30    1
    21    30    31    1
    22    31    32    2
    23     9    10   ar
    24    10    11   ar
    25    11    12   ar
    26    12    13    1
    27    13    14    1
    28    13    15    2
    29    13    16    2
    30    12     7   ar
    31    32    24    1
    32    31    26    1
    33     2     3    1
    34    18    19    1
@<TRIPOS>MOLECULE
*****
 32 34 0 0 0
SMALL
GASTEIGER

@<TRIPOS>ATOM
      1 C          -5.4653  -15.5409   25.1661 C.3     1  UNL1        0.1697
      2 O          -5.6356  -14.8039   23.8708 O.3     1  UNL1       -0.3793
      3 H          -6.4119  -14.2251   23.9278 H       1  UNL1        0.2106
      4 C          -4.3297  -16.5059   25.3362 C.3     1  UNL1        0.2358
      5 O          -4.2999  -17.7769   24.5402 O.3     1  UNL1       -0.4728
      6 C          -3.8821  -19.9623   19.8445 C.3     1  UNL1        0.0325
      7 C          -3.5115  -18.8748   20.8089 C.ar    1  UNL1       -0.0017
      8 C          -4.0910  -18.8696   22.1924 C.ar    1  UNL1        0.0339
      9 C          -3.7203  -17.7821   23.1567 C.ar    1  UNL1        0.1384
     10 C          -2.7701  -16.6999   22.7376 C.ar    1  UNL1        0.0382
     11 C          -2.1906  -16.7051   21.3541 C.ar    1  UNL1        0.0211
     12 C          -2.5612  -17.7926   20.3898 C.ar    1  UNL1        0.1019
     13 S          -1.9816  -17.7978   19.0062 S.O2    1  UNL1        0.0102
     14 C          -1.4021  -17.8029   17.6227 C.3     1  UNL1        0.1816
     15 O          -3.1706  -17.0327   18.5053 O.2     1  UNL1       -0.1686
     16 O          -0.7927  -18.5628   19.5071 O.2     1  UNL1       -0.1686
     17 C          -6.4307  -15.3129   26.2913 C.3     1  UNL1        0.1020
     18 N          -7.8945  -15.1567   26.0036 N.3     1  UNL1       -0.2971
     19 H          -7.9758  -14.4671   25.2564 H       1  UNL1        0.1233
     20 C          -8.7079  -16.3458   25.5858 C.3     1  UNL1        0.0476
     21 C          -9.0174  -15.6753   24.2802 C.3     1  UNL1        0.0162
     22 C          -8.3983  -17.0163   26.8913 C.3     1  UNL1        0.0162
     23 C          -9.5212  -17.5349   25.1679 C.3     1  UNL1        0.0602
     24 C          -9.4095  -18.0660   23.7696 C.2     1  UNL1        0.0599
     25 C         -10.5539  -18.4238   22.8683 C.2     1  UNL1        0.0159
     26 C          -9.9855  -18.9115   21.5686 C.2     1  UNL1        0.0150
     27 C         -10.6367  -19.3997   20.3086 C.2     1  UNL1        0.0009
     28 C          -9.7921  -19.8314   19.1467 C.2     1  UNL1       -0.0041
     29 C          -8.2964  -19.7750   19.2447 C.2     1  UNL1       -0.0198
     30 C          -7.6452  -19.2869   20.5047 C.3     1  UNL1        0.0717
     31 C          -8.4898  -18.8551   21.6667 C.2     1  UNL1        0.0630
     32 N          -8.1338  -18.3326   23.0269 N.2     1  UNL1       -0.2536
@<TRIPOS>BOND
     1     6     7    1
     2     7     8   ar
     3     8     9   ar
     4     9     5    1
     5     5     4    1
     6     4     1    1
     7     1     2    1
     8     1    17    1
     9    17    18    1
    10    18    20    1
    11    20    21    1
    12    20    22    1
    13    20    23    1
    14    23    24    1
    15    24    25    2
    16    25    26    1
    17    26    27    2
    18    27    28    1
    19    28    29    2
    20    29    30    1
    21    30    31    1
    22    31    32    2
    23     9    10   ar
    24    10    11   ar
    25    11    12   ar
    26    12    13    1
    27    13    14    1
    28    13    15    2
    29    13    16    2
    30    12     7   ar
    31    32    24    1
    32    31    26    1
    33     2     3    1
    34    18    19    1
@<TRIPOS>MOLECULE
*****
 32 34 0 0 0
SMALL
GASTEIGER

@<TRIPOS>ATOM
      1 C         -11.5192  -19.0062   21.5148 C.3     1  UNL1        0.1697
      2 O         -11.3242  -19.8457   22.7425 O.3     1  UNL1       -0.3793
      3 H         -10.6557  -20.5260   22.5662 H       1  UNL1        0.2106
      4 C         -12.5065  -17.8771   21.5273 C.3     1  UNL1        0.2358
      5 O         -12.0921  -16.5239   22.0244 O.3     1  UNL1       -0.4728
      6 C          -8.5333  -16.7448   25.8041 C.3     1  UNL1        0.0325
      7 C          -8.9087  -16.4082   24.3914 C.ar    1  UNL1       -0.0017
      8 C         -10.3127  -16.6343   23.9143 C.ar    1  UNL1        0.0339
      9 C         -10.6880  -16.2978   22.5015 C.ar    1  UNL1        0.1384
     10 C          -9.6594  -15.7352   21.5659 C.ar    1  UNL1        0.0382
     11 C          -8.2555  -15.5091   22.0431 C.ar    1  UNL1        0.0211
     12 C          -7.8801  -15.8456   23.4558 C.ar    1  UNL1        0.1019
     13 S          -6.4760  -15.6195   23.9329 S.O2    1  UNL1        0.0102
     14 C          -5.0721  -15.3933   24.4100 C.3     1  UNL1        0.1816
     15 O          -6.9267  -14.4000   24.6811 O.2     1  UNL1       -0.1686
     16 O          -6.0254  -16.8389   23.1847 O.2     1  UNL1       -0.1686
     17 C         -10.7267  -19.2959   20.2745 C.3     1  UNL1        0.1020
     18 N          -9.3665  -18.6896   20.0949 N.3     1  UNL1       -0.2971
     19 H          -9.2832  -17.9435   20.7854 H       1  UNL1        0.1233
     20 C          -8.1408  -19.5437   20.2302 C.3     1  UNL1        0.0476
     21 C          -8.0074  -19.1250   21.6643 C.3     1  UNL1        0.0162
     22 C          -8.2743  -19.9625   18.7960 C.3     1  UNL1        0.0162
     23 C          -6.9152  -20.3978   20.3655 C.3     1  UNL1        0.0602
     24 C          -5.5550  -19.7657   20.3491 C.2     1  UNL1        0.0599
     25 C          -4.4900  -19.9381   21.3912 C.2     1  UNL1        0.0159
     26 C          -3.2977  -19.1292   20.9738 C.2     1  UNL1        0.0150
     27 C          -1.9557  -18.9179   21.6096 C.2     1  UNL1        0.0009
     28 C          -0.9419  -18.0343   20.9453 C.2     1  UNL1       -0.0041
     29 C          -1.2700  -17.3620   19.6452 C.2     1  UNL1       -0.0198
     30 C          -2.6120  -17.5733   19.0094 C.3     1  UNL1        0.0717
     31 C          -3.6259  -18.4568   19.6737 C.2     1  UNL1        0.0630
     32 N          -5.0210  -18.8503   19.2876 N.2     1  UNL1       -0.2536
@<TRIPOS>BOND
     1     6     7    1
     2     7     8   ar
     3     8     9   ar
     4     9     5    1
     5     5     4    1
     6     4     1    1
     7     1     2    1
     8     1    17    1
     9    17    18    1
    10    18    20    1
    11    20    21    1
    12    20    22    1
    13    20    23    1
    14    23    24    1
    15    24    25    2
    16    25    26    1
    17    26    27    2
    18    27    28    1
    19    28    29    2
    20    29    30    1
    21    30    31    1
    22    31    32    2
    23     9    10   ar
    24    10    11   ar
    25    11    12   ar
    26    12    13    1
    27    13    14    1
    28    13    15    2
    29    13    16    2
    30    12     7   ar
    31    32    24    1
    32    31    26    1
    33     2     3    1
    34    18    19    1
@<TRIPOS>MOLECULE
*****
 32 34 0 0 0
SMALL
GASTEIGER

@<TRIPOS>ATOM
      1 C          -8.1361  -15.4299   27.5049 C.3     1  UNL1        0.1697
      2 O          -8.7242  -14.1367   27.9864 O.3     1  UNL1       -0.3793
      3 H          -8.0808  -13.4219   27.8598 H       1  UNL1        0.2106
      4 C          -8.9361  -16.6958   27.5914 C.3     1  UNL1        0.2358
      5 O          -8.6646  -17.8211   26.6375 O.3     1  UNL1       -0.4728
      6 C         -10.8716  -20.1993   22.5788 C.3     1  UNL1        0.0325
      7 C         -10.3151  -18.9588   23.2124 C.ar    1  UNL1       -0.0017
      8 C          -9.7681  -19.0102   24.6081 C.ar    1  UNL1        0.0339
      9 C          -9.2117  -17.7697   25.2418 C.ar    1  UNL1        0.1384
     10 C          -9.2023  -16.4777   24.4797 C.ar    1  UNL1        0.0382
     11 C          -9.7493  -16.4264   23.0840 C.ar    1  UNL1        0.0211
     12 C         -10.3058  -17.6669   22.4503 C.ar    1  UNL1        0.1019
     13 S         -10.8528  -17.6155   21.0545 S.O2    1  UNL1        0.0102
     14 C         -11.3998  -17.5641   19.6588 C.3     1  UNL1        0.1816
     15 O          -9.4880  -17.9139   20.5087 O.2     1  UNL1       -0.1686
     16 O         -12.2177  -17.3170   21.6004 O.2     1  UNL1       -0.1686
     17 C          -6.7480  -15.4571   26.9370 C.3     1  UNL1        0.1020
     18 N          -6.4895  -14.9165   25.5619 N.3     1  UNL1       -0.2971
     19 H          -6.2870  -13.9226   25.6696 H       1  UNL1        0.1233
     20 C          -5.3881  -15.4945   24.7235 C.3     1  UNL1        0.0476
     21 C          -4.7858  -16.1204   25.9464 C.3     1  UNL1        0.0162
     22 C          -5.9904  -14.8686   23.5007 C.3     1  UNL1        0.0162
     23 C          -4.2867  -16.0725   23.8852 C.3     1  UNL1        0.0602
     24 C          -4.5555  -17.2597   23.0088 C.2     1  UNL1        0.0599
     25 C          -5.8522  -18.0071   22.9098 C.2     1  UNL1        0.0159
     26 C          -5.6729  -19.1174   21.9173 C.2     1  UNL1        0.0150
     27 C          -6.6094  -20.1761   21.4155 C.2     1  UNL1        0.0009
     28 C          -6.1383  -21.1737   20.3992 C.2     1  UNL1       -0.0041
     29 C          -4.7307  -21.1125   19.8847 C.2     1  UNL1       -0.0198
     30 C          -3.7941  -20.0537   20.3864 C.3     1  UNL1        0.0717
     31 C          -4.2652  -19.0562   21.4027 C.2     1  UNL1        0.0630
     32 N          -3.5746  -17.9081   22.0773 N.2     1  UNL1       -0.2536
@<TRIPOS>BOND
     1     6     7    1
     2     7     8   ar
     3     8     9   ar
     4     9     5    1
     5     5     4    1
     6     4     1    1
     7     1     2    1
     8     1    17    1
     9    17    18    1
    10    18    20    1
    11    20    21    1
    12    20    22    1
    13    20    23    1
    14    23    24    1
    15    24    25    2
    16    25    26    1
    17    26    27    2
    18    27    28    1
    19    28    29    2
    20    29    30    1
    21    30    31    1
    22    31    32    2
    23     9    10   ar
    24    10    11   ar
    25    11    12   ar
    26    12    13    1
    27    13    14    1
    28    13    15    2
    29    13    16    2
    30    12     7   ar
    31    32    24    1
    32    31    26    1
    33     2     3    1
    34    18    19    1
@<TRIPOS>MOLECULE
*****
 32 34 0 0 0
SMALL
GASTEIGER

@<TRIPOS>ATOM
      1 C          -9.7614   -3.9828   17.7613 C.3     1  UNL1        0.1697
      2 O          -9.4158   -3.8284   19.2128 O.3     1  UNL1       -0.3793
      3 H          -9.2300   -4.7002   19.5954 H       1  UNL1        0.2106
      4 C         -10.0923   -2.7744   16.9365 C.3     1  UNL1        0.2358
      5 O         -10.7812   -1.6011   17.5680 O.3     1  UNL1       -0.4728
      6 C         -14.2266   -3.1807   21.1223 C.3     1  UNL1        0.0325
      7 C         -13.9239   -2.5169   19.8117 C.ar    1  UNL1       -0.0017
      8 C         -12.5039   -2.3909   19.3451 C.ar    1  UNL1        0.0339
      9 C         -12.2012   -1.7271   18.0345 C.ar    1  UNL1        0.1384
     10 C         -13.3185   -1.1892   17.1905 C.ar    1  UNL1        0.0382
     11 C         -14.7385   -1.3152   17.6571 C.ar    1  UNL1        0.0211
     12 C         -15.0412   -1.9791   18.9677 C.ar    1  UNL1        0.1019
     13 S         -16.4612   -2.1050   19.4343 S.O2    1  UNL1        0.0102
     14 C         -17.8812   -2.2310   19.9008 C.3     1  UNL1        0.1816
     15 O         -16.5719   -3.4298   18.7396 O.2     1  UNL1       -0.1686
     16 O         -16.3506   -0.7802   20.1289 O.2     1  UNL1       -0.1686
     17 C          -9.7760   -5.3456   17.1346 C.3     1  UNL1        0.1020
     18 N         -11.0762   -6.0681   16.9410 N.3     1  UNL1       -0.2971
     19 H         -10.8445   -7.0335   16.7070 H       1  UNL1        0.1233
     20 C         -12.0780   -6.1213   18.0562 C.3     1  UNL1        0.0476
     21 C         -11.1264   -6.9457   18.8716 C.3     1  UNL1        0.0162
     22 C         -13.0295   -5.2970   17.2408 C.3     1  UNL1        0.0162
     23 C         -13.0797   -6.1746   19.1714 C.3     1  UNL1        0.0602
     24 C         -14.2716   -7.0792   19.0664 C.2     1  UNL1        0.0599
     25 C         -15.6670   -6.7542   19.5104 C.2     1  UNL1        0.0159
     26 C         -16.5352   -7.9419   19.2174 C.2     1  UNL1        0.0150
     27 C         -17.9968   -8.1958   19.4390 C.2     1  UNL1        0.0009
     28 C         -18.5995   -9.5087   19.0355 C.2     1  UNL1       -0.0041
     29 C         -17.7406  -10.5678   18.4104 C.2     1  UNL1       -0.0198
     30 C         -16.2790  -10.3138   18.1888 C.3     1  UNL1        0.0717
     31 C         -15.6763   -9.0009   18.5923 C.2     1  UNL1        0.0630
     32 N         -14.2773   -8.4677   18.4990 N.2     1  UNL1       -0.2536
@<TRIPOS>BOND
     1     6     7    1
     2     7     8   ar
     3     8     9   ar
     4     9     5    1
     5     5     4    1
     6     4     1    1
     7     1     2    1
     8     1    17    1
     9    17    18    1
    10    18    20    1
    11    20    21    1
    12    20    22    1
    13    20    23    1
    14    23    24    1
    15    24    25    2
    16    25    26    1
    17    26    27    2
    18    27    28    1
    19    28    29    2
    20    29    30    1
    21    30    31    1
    22    31    32    2
    23     9    10   ar
    24    10    11   ar
    25    11    12   ar
    26    12    13    1
    27    13    14    1
    28    13    15    2
    29    13    16    2
    30    12     7   ar
    31    32    24    1
    32    31    26    1
    33     2     3    1
    34    18    19    1
@<TRIPOS>MOLECULE
*****
 32 34 0 0 0
SMALL
GASTEIGER

@<TRIPOS>ATOM
      1 C          -7.7876  -15.1069   26.8952 C.3     1  UNL1        0.1697
      2 O          -8.5519  -14.3333   27.9283 O.3     1  UNL1       -0.3793
      3 H          -7.9681  -13.6753   28.3370 H       1  UNL1        0.2106
      4 C          -8.4687  -16.1915   26.1144 C.3     1  UNL1        0.2358
      5 O          -9.3317  -15.8404   24.9389 O.3     1  UNL1       -0.4728
      6 C          -7.7745  -20.1545   22.4967 C.3     1  UNL1        0.0325
      7 C          -8.5520  -18.8717   22.4989 C.ar    1  UNL1       -0.0017
      8 C          -8.5532  -17.9975   23.7178 C.ar    1  UNL1        0.0339
      9 C          -9.3306  -16.7147   23.7200 C.ar    1  UNL1        0.1384
     10 C         -10.1070  -16.3062   22.5033 C.ar    1  UNL1        0.0382
     11 C         -10.1059  -17.1804   21.2844 C.ar    1  UNL1        0.0211
     12 C          -9.3284  -18.4632   21.2822 C.ar    1  UNL1        0.1019
     13 S          -9.3273  -19.3374   20.0633 S.O2    1  UNL1        0.0102
     14 C          -9.3262  -20.2116   18.8444 C.3     1  UNL1        0.1816
     15 O         -10.6722  -19.8776   20.4496 O.2     1  UNL1       -0.1686
     16 O          -7.9823  -18.7972   19.6770 O.2     1  UNL1       -0.1686
     17 C          -6.3420  -14.7957   26.6428 C.3     1  UNL1        0.1020
     18 N          -5.7814  -14.9093   25.2562 N.3     1  UNL1       -0.2971
     19 H          -5.0264  -14.2269   25.1870 H       1  UNL1        0.1233
     20 C          -5.2275  -16.2180   24.7759 C.3     1  UNL1        0.0476
     21 C          -4.6026  -16.4468   26.1202 C.3     1  UNL1        0.0162
     22 C          -5.8524  -15.9893   23.4317 C.3     1  UNL1        0.0162
     23 C          -4.6737  -17.5267   24.2958 C.3     1  UNL1        0.0602
     24 C          -3.8809  -17.5841   23.0237 C.2     1  UNL1        0.0599
     25 C          -2.5342  -16.9643   22.7953 C.2     1  UNL1        0.0159
     26 C          -2.1166  -17.2685   21.3871 C.2     1  UNL1        0.0150
     27 C          -0.8858  -16.9143   20.6064 C.2     1  UNL1        0.0009
     28 C          -0.7436  -17.3679   19.1838 C.2     1  UNL1       -0.0041
     29 C          -1.8323  -18.1758   18.5418 C.2     1  UNL1       -0.0198
     30 C          -3.0632  -18.5300   19.3224 C.3     1  UNL1        0.0717
     31 C          -3.2053  -18.0763   20.7451 C.2     1  UNL1        0.0630
     32 N          -4.2957  -18.2714   21.7566 N.2     1  UNL1       -0.2536
@<TRIPOS>BOND
     1     6     7    1
     2     7     8   ar
     3     8     9   ar
     4     9     5    1
     5     5     4    1
     6     4     1    1
     7     1     2    1
     8     1    17    1
     9    17    18    1
    10    18    20    1
    11    20    21    1
    12    20    22    1
    13    20    23    1
    14    23    24    1
    15    24    25    2
    16    25    26    1
    17    26    27    2
    18    27    28    1
    19    28    29    2
    20    29    30    1
    21    30    31    1
    22    31    32    2
    23     9    10   ar
    24    10    11   ar
    25    11    12   ar
    26    12    13    1
    27    13    14    1
    28    13    15    2
    29    13    16    2
    30    12     7   ar
    31    32    24    1
    32    31    26    1
    33     2     3    1
    34    18    19    1
@<TRIPOS>MOLECULE
*****
 32 34 0 0 0
SMALL
GASTEIGER

@<TRIPOS>ATOM
      1 C          -7.9223  -14.9960   27.1019 C.3     1  UNL1        0.1697
      2 O          -8.3740  -14.2719   28.3355 O.3     1  UNL1       -0.3793
      3 H          -7.6097  -13.8563   28.7645 H       1  UNL1        0.2106
      4 C          -8.9204  -15.7267   26.2534 C.3     1  UNL1        0.2358
      5 O          -9.2568  -15.2161   24.8837 O.3     1  UNL1       -0.4728
      6 C         -12.5688  -17.7275   21.7654 C.3     1  UNL1        0.0325
      7 C         -11.1642  -17.4378   22.2049 C.ar    1  UNL1       -0.0017
      8 C         -10.9128  -16.4718   23.3245 C.ar    1  UNL1        0.0339
      9 C          -9.5082  -16.1822   23.7640 C.ar    1  UNL1        0.1384
     10 C          -8.3550  -16.8585   23.0838 C.ar    1  UNL1        0.0382
     11 C          -8.6064  -17.8245   21.9642 C.ar    1  UNL1        0.0211
     12 C         -10.0110  -18.1141   21.5247 C.ar    1  UNL1        0.1019
     13 S         -10.2624  -19.0802   20.4050 S.O2    1  UNL1        0.0102
     14 C         -10.5138  -20.0461   19.2853 C.3     1  UNL1        0.1816
     15 O          -9.9802  -17.9966   19.4069 O.2     1  UNL1       -0.1686
     16 O         -10.5446  -20.1637   21.4031 O.2     1  UNL1       -0.1686
     17 C          -6.4726  -14.9894   26.7168 C.3     1  UNL1        0.1020
     18 N          -6.0812  -14.9658   25.2690 N.3     1  UNL1       -0.2971
     19 H          -5.8322  -14.0020   25.0469 H       1  UNL1        0.1233
     20 C          -4.9537  -15.8275   24.7827 C.3     1  UNL1        0.0476
     21 C          -4.8128  -16.4173   26.1546 C.3     1  UNL1        0.0162
     22 C          -5.0946  -15.2376   23.4108 C.3     1  UNL1        0.0162
     23 C          -3.8263  -16.6890   24.2965 C.3     1  UNL1        0.0602
     24 C          -4.0761  -17.7273   23.2431 C.2     1  UNL1        0.0599
     25 C          -3.0906  -18.1928   22.2126 C.2     1  UNL1        0.0159
     26 C          -3.7608  -19.2356   21.3680 C.2     1  UNL1        0.0150
     27 C          -3.2773  -20.0453   20.2015 C.2     1  UNL1        0.0009
     28 C          -4.1936  -21.0340   19.5436 C.2     1  UNL1       -0.0041
     29 C          -5.5933  -21.2130   20.0522 C.2     1  UNL1       -0.0198
     30 C          -6.0768  -20.4034   21.2186 C.3     1  UNL1        0.0717
     31 C          -5.1605  -19.4147   21.8765 C.2     1  UNL1        0.0630
     32 N          -5.3554  -18.4825   23.0354 N.2     1  UNL1       -0.2536
@<TRIPOS>BOND
     1     6     7    1
     2     7     8   ar
     3     8     9   ar
     4     9     5    1
     5     5     4    1
     6     4     1    1
     7     1     2    1
     8     1    17    1
     9    17    18    1
    10    18    20    1
    11    20    21    1
    12    20    22    1
    13    20    23    1
    14    23    24    1
    15    24    25    2
    16    25    26    1
    17    26    27    2
    18    27    28    1
    19    28    29    2
    20    29    30    1
    21    30    31    1
    22    31    32    2
    23     9    10   ar
    24    10    11   ar
    25    11    12   ar
    26    12    13    1
    27    13    14    1
    28    13    15    2
    29    13    16    2
    30    12     7   ar
    31    32    24    1
    32    31    26    1
    33     2     3    1
    34    18    19    1
