@<TRIPOS>MOLECULE
*****
 32 35 0 0 0
SMALL
GASTEIGER

@<TRIPOS>ATOM
      1 C         -11.3468  -18.2606   22.1522 C.ar    1  UNL1        0.1638
      2 C         -11.1706  -18.3177   23.6408 C.ar    1  UNL1        0.0727
      3 C          -9.8295  -18.6491   24.2251 C.ar    1  UNL1        0.1333
      4 N          -8.6645  -18.9234   23.3210 N.ar    1  UNL1       -0.2103
      5 C          -8.8406  -18.8663   21.8325 C.ar    1  UNL1        0.1890
      6 C         -10.1818  -18.5349   21.2481 C.ar    1  UNL1        0.1740
      7 N         -10.0532  -18.5518   19.7537 N.ar    1  UNL1       -0.1237
      8 N          -8.6327  -18.8936   19.4145 N.ar    1  UNL1       -0.0581
      9 N          -7.8832  -19.0880   20.6993 N.ar    1  UNL1       -0.1927
     10 C          -6.4313  -19.4420   20.8281 C.ar    1  UNL1        0.0891
     11 C          -5.8622  -20.5767   20.0290 C.ar    1  UNL1        0.0195
     12 C          -4.4102  -20.9307   20.1578 C.ar    1  UNL1        0.0047
     13 C          -3.5274  -20.1500   21.0858 C.ar    1  UNL1        0.0373
     14 C          -4.0966  -19.0153   21.8849 C.ar    1  UNL1        0.1483
     15 C          -5.5484  -18.6613   21.7561 C.ar    1  UNL1        0.0564
     16 O          -3.2137  -18.2347   22.8129 O.3     1  UNL1       -0.4044
     17 C          -2.6071  -16.9400   22.3592 C.3     1  UNL1        0.5753
     18 F          -2.0005  -15.6454   21.9054 F       1  UNL1       -0.1328
     19 F          -1.5233  -17.6964   21.6498 F       1  UNL1       -0.1328
     20 F          -3.6909  -16.1836   23.0685 F       1  UNL1       -0.1328
     21 C         -12.9228  -16.5856   20.9438 C.3     1  UNL1        0.2525
     22 O         -12.6880  -17.9291   21.5679 O.3     1  UNL1       -0.4696
     23 N          -9.6533  -18.7062   25.7137 N.pl3   1  UNL1       -0.3180
     24 H          -9.6733  -19.5737   26.1789 H       1  UNL1        0.1482
     25 C          -9.4467  -17.4416   26.4935 C.3     1  UNL1        0.0882
     26 C          -8.3594  -16.4865   26.0991 C.3     1  UNL1        0.0223
     27 C          -7.2115  -16.2308   27.0302 C.3     1  UNL1        0.0188
     28 C          -6.1243  -15.2757   26.6357 C.3     1  UNL1        0.0686
     29 N          -6.1849  -14.5763   25.3102 N.3     1  UNL1       -0.2975
     30 C          -7.3327  -14.8319   24.3791 C.3     1  UNL1        0.0686
     31 C          -8.4200  -15.7870   24.7735 C.3     1  UNL1        0.0188
     32 H          -5.3348  -14.8275   24.8056 H       1  UNL1        0.1232
@<TRIPOS>BOND
     1    21    22    1
     2    22     1    1
     3     1     2   ar
     4     2     3   ar
     5     3    23    1
     6    23    25    1
     7    25    26    1
     8    26    27    1
     9    27    28    1
    10    28    29    1
    11    29    30    1
    12    30    31    1
    13     3     4   ar
    14     4     5   ar
    15     5     6   ar
    16     6     7   ar
    17     7     8   ar
    18     8     9   ar
    19     9    10    1
    20    10    11   ar
    21    11    12   ar
    22    12    13   ar
    23    13    14   ar
    24    14    16    1
    25    16    17    1
    26    17    18    1
    27    17    19    1
    28    17    20    1
    29    14    15   ar
    30     6     1   ar
    31    15    10   ar
    32    31    26    1
    33     9     5   ar
    34    23    24    1
    35    29    32    1
@<TRIPOS>MOLECULE
*****
 32 35 0 0 0
SMALL
GASTEIGER

@<TRIPOS>ATOM
      1 C          -6.2679  -15.4285   25.3590 C.ar    1  UNL1        0.1638
      2 C          -4.9263  -15.8005   24.8007 C.ar    1  UNL1        0.0727
      3 C          -4.8365  -16.6266   23.5520 C.ar    1  UNL1        0.1333
      4 N          -6.0883  -17.0807   22.8615 N.ar    1  UNL1       -0.2103
      5 C          -7.4299  -16.7087   23.4198 C.ar    1  UNL1        0.1890
      6 C          -7.5197  -15.8826   24.6685 C.ar    1  UNL1        0.1740
      7 N          -8.9714  -15.6723   24.9819 N.ar    1  UNL1       -0.1237
      8 N          -9.7789  -16.3685   23.9267 N.ar    1  UNL1       -0.0581
      9 N          -8.8261  -17.0090   22.9613 N.ar    1  UNL1       -0.1927
     10 C          -9.2035  -17.8094   21.7501 C.ar    1  UNL1        0.0891
     11 C         -10.5516  -17.6242   21.1189 C.ar    1  UNL1        0.0195
     12 C         -10.9290  -18.4245   19.9076 C.ar    1  UNL1        0.0047
     13 C          -9.9583  -19.4100   19.3276 C.ar    1  UNL1        0.0373
     14 C          -8.6101  -19.5951   19.9588 C.ar    1  UNL1        0.1483
     15 C          -8.2327  -18.7949   21.1700 C.ar    1  UNL1        0.0564
     16 O          -7.6395  -20.5807   19.3787 O.3     1  UNL1       -0.4044
     17 C          -6.2139  -20.5930   19.8453 C.3     1  UNL1        0.5753
     18 F          -4.7884  -20.6054   20.3119 F       1  UNL1       -0.1328
     19 F          -6.0868  -19.1399   19.4954 F       1  UNL1       -0.1328
     20 F          -6.3411  -22.0461   20.1951 F       1  UNL1       -0.1328
     21 C          -7.0179  -15.1632   27.8323 C.3     1  UNL1        0.2525
     22 O          -6.3576  -14.6023   26.6079 O.3     1  UNL1       -0.4696
     23 N          -3.4949  -16.9987   22.9936 N.pl3   1  UNL1       -0.3180
     24 H          -2.6912  -16.5024   23.2713 H       1  UNL1        0.1482
     25 C          -3.3778  -18.1269   22.0121 C.3     1  UNL1        0.0882
     26 C          -2.4480  -18.0087   20.8410 C.3     1  UNL1        0.0223
     27 C          -3.0017  -17.9214   19.4495 C.3     1  UNL1        0.0188
     28 C          -2.0718  -17.8032   18.2785 C.3     1  UNL1        0.0686
     29 N          -0.5885  -17.7722   18.4987 N.3     1  UNL1       -0.2975
     30 C          -0.0348  -17.8595   19.8901 C.3     1  UNL1        0.0686
     31 C          -0.9646  -17.9777   21.0612 C.3     1  UNL1        0.0188
     32 H          -0.2501  -16.8957   18.1016 H       1  UNL1        0.1232
@<TRIPOS>BOND
     1    21    22    1
     2    22     1    1
     3     1     2   ar
     4     2     3   ar
     5     3    23    1
     6    23    25    1
     7    25    26    1
     8    26    27    1
     9    27    28    1
    10    28    29    1
    11    29    30    1
    12    30    31    1
    13     3     4   ar
    14     4     5   ar
    15     5     6   ar
    16     6     7   ar
    17     7     8   ar
    18     8     9   ar
    19     9    10    1
    20    10    11   ar
    21    11    12   ar
    22    12    13   ar
    23    13    14   ar
    24    14    16    1
    25    16    17    1
    26    17    18    1
    27    17    19    1
    28    17    20    1
    29    14    15   ar
    30     6     1   ar
    31    15    10   ar
    32    31    26    1
    33     9     5   ar
    34    23    24    1
    35    29    32    1
@<TRIPOS>MOLECULE
*****
 32 35 0 0 0
SMALL
GASTEIGER

@<TRIPOS>ATOM
      1 C          -7.1857  -15.4698   24.9375 C.ar    1  UNL1        0.1638
      2 C          -8.3284  -15.3591   23.9720 C.ar    1  UNL1        0.0727
      3 C          -8.2665  -16.0688   22.6521 C.ar    1  UNL1        0.1333
      4 N          -7.0620  -16.8893   22.2974 N.ar    1  UNL1       -0.2103
      5 C          -5.9193  -17.0001   23.2628 C.ar    1  UNL1        0.1890
      6 C          -5.9812  -16.2904   24.5829 C.ar    1  UNL1        0.1740
      7 N          -4.7114  -16.5825   25.3262 N.ar    1  UNL1       -0.1237
      8 N          -3.8649  -17.4727   24.4655 N.ar    1  UNL1       -0.0581
      9 N          -4.6113  -17.7309   23.1903 N.ar    1  UNL1       -0.1927
     10 C          -4.1337  -18.5721   22.0439 C.ar    1  UNL1        0.0891
     11 C          -5.0500  -19.5851   21.4242 C.ar    1  UNL1        0.0195
     12 C          -4.5724  -20.4263   20.2777 C.ar    1  UNL1        0.0047
     13 C          -3.1785  -20.2545   19.7511 C.ar    1  UNL1        0.0373
     14 C          -2.2622  -19.2414   20.3709 C.ar    1  UNL1        0.1483
     15 C          -2.7397  -18.4002   21.5172 C.ar    1  UNL1        0.0564
     16 O          -0.8682  -19.0696   19.8442 O.3     1  UNL1       -0.4044
     17 C          -0.2509  -17.7038   19.7872 C.3     1  UNL1        0.5753
     18 F           0.3665  -16.3379   19.7302 F       1  UNL1       -0.1328
     19 F           0.9461  -18.2136   20.5337 F       1  UNL1       -0.1328
     20 F          -1.4479  -17.1939   19.0407 F       1  UNL1       -0.1328
     21 C          -8.1207  -15.2922   27.3549 C.3     1  UNL1        0.2525
     22 O          -7.2476  -14.7600   26.2575 O.3     1  UNL1       -0.4696
     23 N          -9.4092  -15.9580   21.6866 N.pl3   1  UNL1       -0.3180
     24 H          -9.5230  -15.1403   21.1503 H       1  UNL1        0.1482
     25 C         -10.3784  -17.0932   21.5383 C.3     1  UNL1        0.0882
     26 C         -10.5211  -18.1057   22.6357 C.3     1  UNL1        0.0223
     27 C          -9.6273  -19.3101   22.6659 C.3     1  UNL1        0.0188
     28 C          -9.7701  -20.3226   23.7634 C.3     1  UNL1        0.0686
     29 N         -10.8065  -20.1308   24.8306 N.3     1  UNL1       -0.2975
     30 C         -11.7002  -18.9265   24.8005 C.3     1  UNL1        0.0686
     31 C         -11.5575  -17.9139   23.7030 C.3     1  UNL1        0.0188
     32 H         -10.3107  -20.1073   25.7217 H       1  UNL1        0.1232
@<TRIPOS>BOND
     1    21    22    1
     2    22     1    1
     3     1     2   ar
     4     2     3   ar
     5     3    23    1
     6    23    25    1
     7    25    26    1
     8    26    27    1
     9    27    28    1
    10    28    29    1
    11    29    30    1
    12    30    31    1
    13     3     4   ar
    14     4     5   ar
    15     5     6   ar
    16     6     7   ar
    17     7     8   ar
    18     8     9   ar
    19     9    10    1
    20    10    11   ar
    21    11    12   ar
    22    12    13   ar
    23    13    14   ar
    24    14    16    1
    25    16    17    1
    26    17    18    1
    27    17    19    1
    28    17    20    1
    29    14    15   ar
    30     6     1   ar
    31    15    10   ar
    32    31    26    1
    33     9     5   ar
    34    23    24    1
    35    29    32    1
@<TRIPOS>MOLECULE
*****
 32 35 0 0 0
SMALL
GASTEIGER

@<TRIPOS>ATOM
      1 C          -8.5927  -16.5174   24.7805 C.ar    1  UNL1        0.1638
      2 C          -9.6458  -17.5722   24.6116 C.ar    1  UNL1        0.0727
      3 C          -9.3775  -18.7682   23.7471 C.ar    1  UNL1        0.1333
      4 N          -8.0561  -18.9096   23.0515 N.ar    1  UNL1       -0.2103
      5 C          -7.0031  -17.8549   23.2204 C.ar    1  UNL1        0.1890
      6 C          -7.2714  -16.6587   24.0849 C.ar    1  UNL1        0.1740
      7 N          -6.0505  -15.7876   24.0628 N.ar    1  UNL1       -0.1237
      8 N          -5.0276  -16.4453   23.1846 N.ar    1  UNL1       -0.0581
      9 N          -5.6163  -17.7229   22.6640 N.ar    1  UNL1       -0.1927
     10 C          -4.9375  -18.6975   21.7478 C.ar    1  UNL1        0.0891
     11 C          -5.7325  -19.7841   21.0867 C.ar    1  UNL1        0.0195
     12 C          -5.0537  -20.7587   20.1705 C.ar    1  UNL1        0.0047
     13 C          -3.5799  -20.6467   19.9154 C.ar    1  UNL1        0.0373
     14 C          -2.7848  -19.5600   20.5766 C.ar    1  UNL1        0.1483
     15 C          -3.4635  -18.5854   21.4927 C.ar    1  UNL1        0.0564
     16 O          -1.3109  -19.4480   20.3215 O.3     1  UNL1       -0.4044
     17 C          -0.7332  -18.1601   19.8141 C.3     1  UNL1        0.5753
     18 F          -0.1555  -16.8721   19.3066 F       1  UNL1       -0.1328
     19 F           0.2456  -18.1513   20.9507 F       1  UNL1       -0.1328
     20 F          -1.7119  -18.1689   18.6774 F       1  UNL1       -0.1328
     21 C          -8.3403  -15.2801   27.0511 C.3     1  UNL1        0.2525
     22 O          -8.8611  -15.3213   25.6450 O.3     1  UNL1       -0.4696
     23 N         -10.4306  -19.8231   23.5782 N.pl3   1  UNL1       -0.3180
     24 H         -10.6241  -20.4478   24.3142 H       1  UNL1        0.1482
     25 C         -11.1888  -19.9260   22.2881 C.3     1  UNL1        0.0882
     26 C         -11.5507  -18.6836   21.5297 C.3     1  UNL1        0.0223
     27 C         -10.8947  -18.3908   20.2127 C.3     1  UNL1        0.0188
     28 C         -11.2567  -17.1483   19.4544 C.3     1  UNL1        0.0686
     29 N         -12.2746  -16.1986   20.0128 N.3     1  UNL1       -0.2975
     30 C         -12.9305  -16.4913   21.3297 C.3     1  UNL1        0.0686
     31 C         -12.5686  -17.7338   22.0881 C.3     1  UNL1        0.0188
     32 H         -13.0211  -16.1271   19.3215 H       1  UNL1        0.1232
@<TRIPOS>BOND
     1    21    22    1
     2    22     1    1
     3     1     2   ar
     4     2     3   ar
     5     3    23    1
     6    23    25    1
     7    25    26    1
     8    26    27    1
     9    27    28    1
    10    28    29    1
    11    29    30    1
    12    30    31    1
    13     3     4   ar
    14     4     5   ar
    15     5     6   ar
    16     6     7   ar
    17     7     8   ar
    18     8     9   ar
    19     9    10    1
    20    10    11   ar
    21    11    12   ar
    22    12    13   ar
    23    13    14   ar
    24    14    16    1
    25    16    17    1
    26    17    18    1
    27    17    19    1
    28    17    20    1
    29    14    15   ar
    30     6     1   ar
    31    15    10   ar
    32    31    26    1
    33     9     5   ar
    34    23    24    1
    35    29    32    1
@<TRIPOS>MOLECULE
*****
 32 35 0 0 0
SMALL
GASTEIGER

@<TRIPOS>ATOM
      1 C         -10.9812  -17.2229   21.0068 C.ar    1  UNL1        0.1638
      2 C         -10.3872  -16.0377   21.7087 C.ar    1  UNL1        0.0727
      3 C          -8.9024  -15.9462   21.9004 C.ar    1  UNL1        0.1333
      4 N          -8.0114  -17.0398   21.3902 N.ar    1  UNL1       -0.2103
      5 C          -8.6054  -18.2249   20.6883 C.ar    1  UNL1        0.1890
      6 C         -10.0903  -18.3165   20.4966 C.ar    1  UNL1        0.1740
      7 N         -10.3861  -19.5960   19.7719 N.ar    1  UNL1       -0.1237
      8 N          -9.0840  -20.2952   19.5156 N.ar    1  UNL1       -0.0581
      9 N          -7.9835  -19.4479   20.0820 N.ar    1  UNL1       -0.1927
     10 C          -6.5183  -19.7674   20.0480 C.ar    1  UNL1        0.0891
     11 C          -6.0602  -21.1942   20.1125 C.ar    1  UNL1        0.0195
     12 C          -4.5949  -21.5138   20.0785 C.ar    1  UNL1        0.0047
     13 C          -3.5880  -20.4065   19.9801 C.ar    1  UNL1        0.0373
     14 C          -4.0462  -18.9796   19.9157 C.ar    1  UNL1        0.1483
     15 C          -5.5113  -18.6600   19.9496 C.ar    1  UNL1        0.0564
     16 O          -3.0390  -17.8723   19.8173 O.3     1  UNL1       -0.4044
     17 C          -1.5757  -18.1937   19.7432 C.3     1  UNL1        0.5753
     18 F          -0.1125  -18.5151   19.6691 F       1  UNL1       -0.1328
     19 F          -1.5246  -18.3056   21.2381 F       1  UNL1       -0.1328
     20 F          -1.6269  -18.0819   18.2482 F       1  UNL1       -0.1328
     21 C         -13.3348  -17.8327   21.9227 C.3     1  UNL1        0.2525
     22 O         -12.4661  -17.3144   20.8152 O.3     1  UNL1       -0.4696
     23 N          -8.3083  -14.7610   22.6023 N.pl3   1  UNL1       -0.3180
     24 H          -8.7704  -13.8920   22.5781 H       1  UNL1        0.1482
     25 C          -7.0103  -14.9000   23.3410 C.3     1  UNL1        0.0882
     26 C          -7.0097  -15.2875   24.7900 C.3     1  UNL1        0.0223
     27 C          -5.7105  -15.4585   25.5202 C.3     1  UNL1        0.0188
     28 C          -5.7101  -15.8460   26.9693 C.3     1  UNL1        0.0686
     29 N          -7.0086  -16.0625   27.6882 N.3     1  UNL1       -0.2975
     30 C          -8.3077  -15.8915   26.9581 C.3     1  UNL1        0.0686
     31 C          -8.3083  -15.5040   25.5090 C.3     1  UNL1        0.0188
     32 H          -7.0234  -15.4102   28.4722 H       1  UNL1        0.1232
@<TRIPOS>BOND
     1    21    22    1
     2    22     1    1
     3     1     2   ar
     4     2     3   ar
     5     3    23    1
     6    23    25    1
     7    25    26    1
     8    26    27    1
     9    27    28    1
    10    28    29    1
    11    29    30    1
    12    30    31    1
    13     3     4   ar
    14     4     5   ar
    15     5     6   ar
    16     6     7   ar
    17     7     8   ar
    18     8     9   ar
    19     9    10    1
    20    10    11   ar
    21    11    12   ar
    22    12    13   ar
    23    13    14   ar
    24    14    16    1
    25    16    17    1
    26    17    18    1
    27    17    19    1
    28    17    20    1
    29    14    15   ar
    30     6     1   ar
    31    15    10   ar
    32    31    26    1
    33     9     5   ar
    34    23    24    1
    35    29    32    1
@<TRIPOS>MOLECULE
*****
 32 35 0 0 0
SMALL
GASTEIGER

@<TRIPOS>ATOM
      1 C          -7.5513  -15.3629   25.3590 C.ar    1  UNL1        0.1638
      2 C          -8.5544  -15.3118   24.2448 C.ar    1  UNL1        0.0727
      3 C          -8.2133  -15.8854   22.9016 C.ar    1  UNL1        0.1333
      4 N          -6.8690  -16.5102   22.6723 N.ar    1  UNL1       -0.2103
      5 C          -5.8659  -16.5613   23.7864 C.ar    1  UNL1        0.1890
      6 C          -6.2071  -15.9876   25.1297 C.ar    1  UNL1        0.1740
      7 N          -5.0236  -16.1815   26.0307 N.ar    1  UNL1       -0.1237
      8 N          -3.9510  -16.8749   25.2442 N.ar    1  UNL1       -0.0581
      9 N          -4.4715  -17.1097   23.8571 N.ar    1  UNL1       -0.1927
     10 C          -3.7282  -17.7759   22.7374 C.ar    1  UNL1        0.0891
     11 C          -2.3566  -17.3001   22.3602 C.ar    1  UNL1        0.0195
     12 C          -1.6132  -17.9663   21.2405 C.ar    1  UNL1        0.0047
     13 C          -2.2415  -19.1081   20.4981 C.ar    1  UNL1        0.0373
     14 C          -3.6132  -19.5839   20.8753 C.ar    1  UNL1        0.1483
     15 C          -4.3566  -18.9178   21.9949 C.ar    1  UNL1        0.0564
     16 O          -4.2415  -20.7258   20.1327 O.3     1  UNL1       -0.4044
     17 C          -5.7241  -20.7482   19.9064 C.3     1  UNL1        0.5753
     18 F          -7.2068  -20.7707   19.6801 F       1  UNL1       -0.1328
     19 F          -5.7822  -22.1540   20.4265 F       1  UNL1       -0.1328
     20 F          -5.6660  -19.3425   19.3864 F       1  UNL1       -0.1328
     21 C          -8.3972  -15.6852   27.7943 C.3     1  UNL1        0.2525
     22 O          -7.8926  -14.7892   26.7023 O.3     1  UNL1       -0.4696
     23 N          -9.2164  -15.8343   21.7874 N.pl3   1  UNL1       -0.3180
     24 H          -9.2686  -15.0400   21.2081 H       1  UNL1        0.1482
     25 C         -10.1399  -16.9934   21.5561 C.3     1  UNL1        0.0882
     26 C         -10.2731  -18.0655   22.5967 C.3     1  UNL1        0.0223
     27 C         -11.3478  -17.9699   23.6388 C.3     1  UNL1        0.0188
     28 C         -11.4810  -19.0420   24.6794 C.3     1  UNL1        0.0686
     29 N         -10.5395  -20.2097   24.6779 N.3     1  UNL1       -0.2975
     30 C          -9.4649  -20.3054   23.6358 C.3     1  UNL1        0.0686
     31 C          -9.3317  -19.2333   22.5952 C.3     1  UNL1        0.0188
     32 H         -11.1119  -21.0492   24.5885 H       1  UNL1        0.1232
@<TRIPOS>BOND
     1    21    22    1
     2    22     1    1
     3     1     2   ar
     4     2     3   ar
     5     3    23    1
     6    23    25    1
     7    25    26    1
     8    26    27    1
     9    27    28    1
    10    28    29    1
    11    29    30    1
    12    30    31    1
    13     3     4   ar
    14     4     5   ar
    15     5     6   ar
    16     6     7   ar
    17     7     8   ar
    18     8     9   ar
    19     9    10    1
    20    10    11   ar
    21    11    12   ar
    22    12    13   ar
    23    13    14   ar
    24    14    16    1
    25    16    17    1
    26    17    18    1
    27    17    19    1
    28    17    20    1
    29    14    15   ar
    30     6     1   ar
    31    15    10   ar
    32    31    26    1
    33     9     5   ar
    34    23    24    1
    35    29    32    1
@<TRIPOS>MOLECULE
*****
 32 35 0 0 0
SMALL
GASTEIGER

@<TRIPOS>ATOM
      1 C           7.8827   -7.1110   25.6562 C.ar    1  UNL1        0.1638
      2 C           7.2134   -6.2294   26.6686 C.ar    1  UNL1        0.0727
      3 C           6.7155   -4.8722   26.2688 C.ar    1  UNL1        0.1333
      4 N           6.8867   -4.3965   24.8566 N.ar    1  UNL1       -0.2103
      5 C           7.5560   -5.2780   23.8442 C.ar    1  UNL1        0.1890
      6 C           8.0539   -6.6353   24.2440 C.ar    1  UNL1        0.1740
      7 N           8.6694   -7.2776   23.0363 N.ar    1  UNL1       -0.1237
      8 N           8.5517   -6.3173   21.8900 N.ar    1  UNL1       -0.0581
      9 N           7.8636   -5.0815   22.3893 N.ar    1  UNL1       -0.1927
     10 C           7.5399   -3.8631   21.5765 C.ar    1  UNL1        0.0891
     11 C           8.3629   -2.6185   21.7304 C.ar    1  UNL1        0.0195
     12 C           8.0393   -1.4000   20.9175 C.ar    1  UNL1        0.0047
     13 C           6.8928   -1.4262   19.9508 C.ar    1  UNL1        0.0373
     14 C           6.0698   -2.6709   19.7969 C.ar    1  UNL1        0.1483
     15 C           6.3934   -3.8893   20.6097 C.ar    1  UNL1        0.0564
     16 O           4.9232   -2.6970   18.8300 O.3     1  UNL1       -0.4044
     17 C           3.8356   -3.7186   18.9836 C.3     1  UNL1        0.5753
     18 F           2.7481   -4.7401   19.1372 F       1  UNL1       -0.1328
     19 F           4.6444   -4.6993   18.1873 F       1  UNL1       -0.1328
     20 F           3.0269   -2.7378   19.7799 F       1  UNL1       -0.1328
     21 C           8.1746   -8.9597   27.4583 C.3     1  UNL1        0.2525
     22 O           8.3807   -8.4683   26.0561 O.3     1  UNL1       -0.4696
     23 N           6.0462   -3.9905   27.2812 N.pl3   1  UNL1       -0.3180
     24 H           5.0776   -3.8234   27.2248 H       1  UNL1        0.1482
     25 C           6.8527   -3.3636   28.3796 C.3     1  UNL1        0.0882
     26 C           6.7315   -3.8748   29.7846 C.3     1  UNL1        0.0223
     27 C           6.2783   -2.9562   30.8805 C.3     1  UNL1        0.0188
     28 C           6.1572   -3.4675   32.2854 C.3     1  UNL1        0.0686
     29 N           6.4891   -4.8972   32.5945 N.3     1  UNL1       -0.2975
     30 C           6.9422   -5.8158   31.4987 C.3     1  UNL1        0.0686
     31 C           7.0634   -5.3046   30.0937 C.3     1  UNL1        0.0188
     32 H           5.6504   -5.3132   32.9995 H       1  UNL1        0.1232
@<TRIPOS>BOND
     1    21    22    1
     2    22     1    1
     3     1     2   ar
     4     2     3   ar
     5     3    23    1
     6    23    25    1
     7    25    26    1
     8    26    27    1
     9    27    28    1
    10    28    29    1
    11    29    30    1
    12    30    31    1
    13     3     4   ar
    14     4     5   ar
    15     5     6   ar
    16     6     7   ar
    17     7     8   ar
    18     8     9   ar
    19     9    10    1
    20    10    11   ar
    21    11    12   ar
    22    12    13   ar
    23    13    14   ar
    24    14    16    1
    25    16    17    1
    26    17    18    1
    27    17    19    1
    28    17    20    1
    29    14    15   ar
    30     6     1   ar
    31    15    10   ar
    32    31    26    1
    33     9     5   ar
    34    23    24    1
    35    29    32    1
@<TRIPOS>MOLECULE
*****
 32 35 0 0 0
SMALL
GASTEIGER

@<TRIPOS>ATOM
      1 C         -10.7900  -17.1748   22.0412 C.ar    1  UNL1        0.1638
      2 C         -10.0942  -16.2004   22.9448 C.ar    1  UNL1        0.0727
      3 C          -8.5976  -16.2066   23.0442 C.ar    1  UNL1        0.1333
      4 N          -7.7966  -17.1872   22.2400 N.ar    1  UNL1       -0.2103
      5 C          -8.4923  -18.1616   21.3364 C.ar    1  UNL1        0.1890
      6 C          -9.9890  -18.1554   21.2370 C.ar    1  UNL1        0.1740
      7 N         -10.3937  -19.2270   20.2685 N.ar    1  UNL1       -0.1237
      8 N          -9.1471  -19.8955   19.7694 N.ar    1  UNL1       -0.0581
      9 N          -7.9720  -19.2370   20.4293 N.ar    1  UNL1       -0.1927
     10 C          -6.5298  -19.5918   20.2191 C.ar    1  UNL1        0.0891
     11 C          -6.1064  -21.0307   20.2003 C.ar    1  UNL1        0.0195
     12 C          -4.6642  -21.3855   19.9901 C.ar    1  UNL1        0.0047
     13 C          -3.6454  -20.3014   19.7987 C.ar    1  UNL1        0.0373
     14 C          -4.0688  -18.8624   19.8175 C.ar    1  UNL1        0.1483
     15 C          -5.5109  -18.5076   20.0277 C.ar    1  UNL1        0.0564
     16 O          -3.0499  -17.7784   19.6261 O.3     1  UNL1       -0.4044
     17 C          -1.6044  -18.1322   19.4384 C.3     1  UNL1        0.5753
     18 F          -0.1589  -18.4861   19.2508 F       1  UNL1       -0.1328
     19 F          -1.6960  -17.7403   17.9935 F       1  UNL1       -0.1328
     20 F          -1.5127  -18.5242   20.8834 F       1  UNL1       -0.1328
     21 C         -13.1144  -17.7472   23.0509 C.3     1  UNL1        0.2525
     22 O         -12.2867  -17.1686   21.9418 O.3     1  UNL1       -0.4696
     23 N          -7.9018  -15.2322   23.9478 N.pl3   1  UNL1       -0.3180
     24 H          -8.2422  -14.3125   24.0354 H       1  UNL1        0.1482
     25 C          -6.6875  -15.6590   24.7180 C.3     1  UNL1        0.0882
     26 C          -5.4258  -16.0179   23.9904 C.3     1  UNL1        0.0223
     27 C          -4.7026  -14.9788   23.1857 C.3     1  UNL1        0.0188
     28 C          -3.4409  -15.3378   22.4582 C.3     1  UNL1        0.0686
     29 N          -2.9025  -16.7356   22.5353 N.3     1  UNL1       -0.2975
     30 C          -3.6256  -17.7746   23.3399 C.3     1  UNL1        0.0686
     31 C          -4.8873  -17.4157   24.0675 C.3     1  UNL1        0.0188
     32 H          -1.9606  -16.6675   22.9209 H       1  UNL1        0.1232
@<TRIPOS>BOND
     1    21    22    1
     2    22     1    1
     3     1     2   ar
     4     2     3   ar
     5     3    23    1
     6    23    25    1
     7    25    26    1
     8    26    27    1
     9    27    28    1
    10    28    29    1
    11    29    30    1
    12    30    31    1
    13     3     4   ar
    14     4     5   ar
    15     5     6   ar
    16     6     7   ar
    17     7     8   ar
    18     8     9   ar
    19     9    10    1
    20    10    11   ar
    21    11    12   ar
    22    12    13   ar
    23    13    14   ar
    24    14    16    1
    25    16    17    1
    26    17    18    1
    27    17    19    1
    28    17    20    1
    29    14    15   ar
    30     6     1   ar
    31    15    10   ar
    32    31    26    1
    33     9     5   ar
    34    23    24    1
    35    29    32    1
@<TRIPOS>MOLECULE
*****
 32 35 0 0 0
SMALL
GASTEIGER

@<TRIPOS>ATOM
      1 C          -0.6505    2.9465   23.0532 C.ar    1  UNL1        0.1638
      2 C          -0.0543    2.2838   24.2596 C.ar    1  UNL1        0.0727
      3 C           0.9928    1.2230   24.0920 C.ar    1  UNL1        0.1333
      4 N           1.4438    0.8248   22.7179 N.ar    1  UNL1       -0.2103
      5 C           0.8476    1.4875   21.5115 C.ar    1  UNL1        0.1890
      6 C          -0.1996    2.5483   21.6792 C.ar    1  UNL1        0.1740
      7 N          -0.6030    3.0213   20.3141 N.ar    1  UNL1       -0.1237
      8 N           0.1949    2.2528   19.3027 N.ar    1  UNL1       -0.0581
      9 N           1.0914    1.3049   20.0428 N.ar    1  UNL1       -0.1927
     10 C           2.0614    0.3432   19.4229 C.ar    1  UNL1        0.0891
     11 C           2.7561    0.6996   18.1422 C.ar    1  UNL1        0.0195
     12 C           3.7261   -0.2621   17.5222 C.ar    1  UNL1        0.0047
     13 C           4.0014   -1.5802   18.1830 C.ar    1  UNL1        0.0373
     14 C           3.3066   -1.9366   19.4638 C.ar    1  UNL1        0.1483
     15 C           2.3367   -0.9750   20.0837 C.ar    1  UNL1        0.0564
     16 O           3.5820   -3.2548   20.1246 O.3     1  UNL1       -0.4044
     17 C           4.1233   -4.3989   19.3196 C.3     1  UNL1        0.5753
     18 F           4.6646   -5.5429   18.5145 F       1  UNL1       -0.1328
     19 F           2.7471   -4.6793   18.7927 F       1  UNL1       -0.1328
     20 F           5.4994   -4.1185   19.8464 F       1  UNL1       -0.1328
     21 C          -3.0507    3.6471   23.7591 C.3     1  UNL1        0.2525
     22 O          -1.6977    4.0073   23.2209 O.3     1  UNL1       -0.4696
     23 N           1.5891    0.5603   25.2984 N.pl3   1  UNL1       -0.3180
     24 H           1.7842   -0.4045   25.2841 H       1  UNL1        0.1482
     25 C           1.8882    1.3678   26.5266 C.3     1  UNL1        0.0882
     26 C           1.0456    1.2023   27.7565 C.3     1  UNL1        0.0223
     27 C           1.5709    1.6435   29.0905 C.3     1  UNL1        0.0188
     28 C           0.7283    1.4780   30.3204 C.3     1  UNL1        0.0686
     29 N          -0.6395    0.8713   30.2164 N.3     1  UNL1       -0.2975
     30 C          -1.1648    0.4301   28.8824 C.3     1  UNL1        0.0686
     31 C          -0.3223    0.5956   27.6525 C.3     1  UNL1        0.0188
     32 H          -1.2966    1.5628   30.5775 H       1  UNL1        0.1232
@<TRIPOS>BOND
     1    21    22    1
     2    22     1    1
     3     1     2   ar
     4     2     3   ar
     5     3    23    1
     6    23    25    1
     7    25    26    1
     8    26    27    1
     9    27    28    1
    10    28    29    1
    11    29    30    1
    12    30    31    1
    13     3     4   ar
    14     4     5   ar
    15     5     6   ar
    16     6     7   ar
    17     7     8   ar
    18     8     9   ar
    19     9    10    1
    20    10    11   ar
    21    11    12   ar
    22    12    13   ar
    23    13    14   ar
    24    14    16    1
    25    16    17    1
    26    17    18    1
    27    17    19    1
    28    17    20    1
    29    14    15   ar
    30     6     1   ar
    31    15    10   ar
    32    31    26    1
    33     9     5   ar
    34    23    24    1
    35    29    32    1
