@<TRIPOS>MOLECULE
*****
 28 31 0 0 0
SMALL
GASTEIGER

@<TRIPOS>ATOM
      1 C          -6.2571  -19.0328   20.7483 C.ar    1  UNL1        0.0989
      2 C          -6.9730  -18.4219   21.9163 C.ar    1  UNL1        0.1006
      3 N          -8.4416  -18.6616   22.1046 N.ar    1  UNL1       -0.2861
      4 C          -9.4086  -18.1949   23.1520 C.ar    1  UNL1        0.0846
      5 C         -10.7590  -18.7569   22.8197 C.ar    1  UNL1        0.1180
      6 N         -10.6266  -19.5710   21.5668 N.ar    1  UNL1       -0.2233
      7 C          -9.1944  -19.5121   21.1248 C.ar    1  UNL1        0.1672
      8 C          -8.4786  -20.1230   19.9568 C.ar    1  UNL1        0.1361
      9 N          -7.0099  -19.8833   19.7685 N.ar    1  UNL1       -0.2392
     10 C          -9.0824  -17.3198   24.3258 C.ar    1  UNL1        0.0179
     11 C          -9.2126  -17.8562   25.7205 C.ar    1  UNL1        0.0046
     12 C          -8.8864  -16.9810   26.8942 C.ar    1  UNL1        0.0367
     13 C          -8.4299  -15.5694   26.6733 C.ar    1  UNL1        0.1337
     14 O          -8.1036  -14.6943   27.8471 O.3     1  UNL1       -0.5055
     15 C          -8.2996  -15.0329   25.2786 C.ar    1  UNL1        0.0367
     16 C          -8.6258  -15.9080   24.1049 C.ar    1  UNL1        0.0046
     17 H          -8.1850  -15.0294   28.7183 H       1  UNL1        0.2922
     18 C          -1.8508  -18.3140   20.1834 C.ar    1  UNL1        0.0531
     19 C          -2.7733  -18.2836   19.0010 C.ar    1  UNL1        0.0046
     20 C          -4.2421  -18.5232   19.1893 C.ar    1  UNL1        0.0017
     21 C          -4.7883  -18.7932   20.5600 C.ar    1  UNL1        0.0191
     22 C          -3.8658  -18.8236   21.7424 C.ar    1  UNL1        0.0017
     23 C          -2.3971  -18.5840   21.5541 C.ar    1  UNL1        0.0046
     24 N           0.1804  -16.6943   20.1648 N.am    1  UNL1       -0.3253
     25 C          -0.3821  -18.0744   19.9952 C.2     1  UNL1        0.2427
     26 O           0.5240  -19.2149   19.6373 O.2     1  UNL1       -0.2704
     27 H           1.1443  -16.5370   20.0412 H       1  UNL1        0.1453
     28 H          -0.4144  -15.9457   20.3996 H       1  UNL1        0.1453
@<TRIPOS>BOND
     1    24    25   am
     2    25    26    2
     3    25    18    1
     4    18    19   ar
     5    19    20   ar
     6    20    21   ar
     7    21     1    1
     8     1     2   ar
     9     2     3   ar
    10     3     4   ar
    11     4    10    1
    12    10    11   ar
    13    11    12   ar
    14    12    13   ar
    15    13    14    1
    16    13    15   ar
    17    15    16   ar
    18     4     5   ar
    19     5     6   ar
    20     6     7   ar
    21     7     8   ar
    22     8     9   ar
    23    21    22   ar
    24    22    23   ar
    25    23    18   ar
    26     9     1   ar
    27     7     3   ar
    28    16    10   ar
    29    24    27    1
    30    24    28    1
    31    14    17    1
@<TRIPOS>MOLECULE
*****
 28 31 0 0 0
SMALL
GASTEIGER

@<TRIPOS>ATOM
      1 C          -4.7145  -16.5609   23.8142 C.ar    1  UNL1        0.0989
      2 C          -6.1928  -16.5858   23.5616 C.ar    1  UNL1        0.1006
      3 N          -7.1460  -16.1806   24.6466 N.ar    1  UNL1       -0.2861
      4 C          -8.6434  -16.1047   24.6904 C.ar    1  UNL1        0.0846
      5 C          -9.0437  -15.6276   26.0550 C.ar    1  UNL1        0.1180
      6 N          -7.7937  -15.4086   26.8546 N.ar    1  UNL1       -0.2233
      7 C          -6.6208  -15.7504   25.9842 C.ar    1  UNL1        0.1672
      8 C          -5.1425  -15.7254   26.2367 C.ar    1  UNL1        0.1361
      9 N          -4.1893  -16.1306   25.1518 N.ar    1  UNL1       -0.2392
     10 C          -9.5767  -16.4461   23.5668 C.ar    1  UNL1        0.0179
     11 C          -9.3937  -15.8107   22.2204 C.ar    1  UNL1        0.0046
     12 C         -10.3269  -16.1521   21.0968 C.ar    1  UNL1        0.0367
     13 C         -11.4433  -17.1288   21.3196 C.ar    1  UNL1        0.1337
     14 O         -12.3766  -17.4702   20.1960 O.3     1  UNL1       -0.5055
     15 C         -11.6264  -17.7642   22.6660 C.ar    1  UNL1        0.0367
     16 C         -10.6932  -17.4229   23.7896 C.ar    1  UNL1        0.0046
     17 H         -12.2622  -17.0733   19.3549 H       1  UNL1        0.2922
     18 C          -1.8548  -17.7766   20.5592 C.ar    1  UNL1        0.0531
     19 C          -2.8697  -18.7558   21.0702 C.ar    1  UNL1        0.0046
     20 C          -3.8229  -18.3506   22.1552 C.ar    1  UNL1        0.0017
     21 C          -3.7612  -16.9661   22.7292 C.ar    1  UNL1        0.0191
     22 C          -2.7464  -15.9869   22.2182 C.ar    1  UNL1        0.0017
     23 C          -1.7932  -16.3921   21.1333 C.ar    1  UNL1        0.0046
     24 N          -1.2088  -17.8507   18.0439 N.am    1  UNL1       -0.3253
     25 C          -0.9016  -18.1818   19.4743 C.2     1  UNL1        0.2427
     26 O           0.3588  -18.9180   19.8197 O.2     1  UNL1       -0.2704
     27 H          -0.5831  -18.1166   17.3318 H       1  UNL1        0.1453
     28 H          -2.0360  -17.3674   17.8172 H       1  UNL1        0.1453
@<TRIPOS>BOND
     1    24    25   am
     2    25    26    2
     3    25    18    1
     4    18    19   ar
     5    19    20   ar
     6    20    21   ar
     7    21     1    1
     8     1     2   ar
     9     2     3   ar
    10     3     4   ar
    11     4    10    1
    12    10    11   ar
    13    11    12   ar
    14    12    13   ar
    15    13    14    1
    16    13    15   ar
    17    15    16   ar
    18     4     5   ar
    19     5     6   ar
    20     6     7   ar
    21     7     8   ar
    22     8     9   ar
    23    21    22   ar
    24    22    23   ar
    25    23    18   ar
    26     9     1   ar
    27     7     3   ar
    28    16    10   ar
    29    24    27    1
    30    24    28    1
    31    14    17    1
@<TRIPOS>MOLECULE
*****
 28 31 0 0 0
SMALL
GASTEIGER

@<TRIPOS>ATOM
      1 C         -13.4808   -6.0845   18.7601 C.ar    1  UNL1        0.0989
      2 C         -13.9912   -4.6742   18.7454 C.ar    1  UNL1        0.1006
      3 N         -13.0263   -3.5268   18.7927 N.ar    1  UNL1       -0.2861
      4 C         -13.2326   -2.0410   18.7914 C.ar    1  UNL1        0.0846
      5 C         -11.8847   -1.3858   18.8525 C.ar    1  UNL1        0.1180
      6 N         -10.8453   -2.4665   18.8916 N.ar    1  UNL1       -0.2233
      7 C         -11.5508   -3.7898   18.8546 C.ar    1  UNL1        0.1672
      8 C         -11.0403   -5.2001   18.8693 C.ar    1  UNL1        0.1361
      9 N         -12.0053   -6.3475   18.8221 N.ar    1  UNL1       -0.2392
     10 C         -14.5548   -1.3346   18.7383 C.ar    1  UNL1        0.0179
     11 C         -14.9803   -0.6329   17.4828 C.ar    1  UNL1        0.0046
     12 C         -16.3025    0.0735   17.4297 C.ar    1  UNL1        0.0367
     13 C         -17.1992    0.0782   18.6321 C.ar    1  UNL1        0.1337
     14 O         -18.5214    0.7847   18.5790 O.3     1  UNL1       -0.5055
     15 C         -16.7737   -0.6235   19.8877 C.ar    1  UNL1        0.0367
     16 C         -15.4515   -1.3299   19.9408 C.ar    1  UNL1        0.0046
     17 H         -18.7872    1.2230   17.7947 H       1  UNL1        0.2922
     18 C         -16.3757   -9.5269   18.6185 C.ar    1  UNL1        0.0531
     19 C         -16.7223   -8.2867   19.3877 C.ar    1  UNL1        0.0046
     20 C         -15.7573   -7.1392   19.4349 C.ar    1  UNL1        0.0017
     21 C         -14.4458   -7.2320   18.7129 C.ar    1  UNL1        0.0191
     22 C         -14.0992   -8.4722   17.9437 C.ar    1  UNL1        0.0017
     23 C         -15.0641   -9.6196   17.8965 C.ar    1  UNL1        0.0046
     24 N         -16.9559  -12.0022   19.1532 N.am    1  UNL1       -0.3253
     25 C         -17.3406  -10.6743   18.5712 C.2     1  UNL1        0.2427
     26 O         -18.6903  -10.4939   17.9420 O.2     1  UNL1       -0.2704
     27 H         -17.5892  -12.7553   19.1222 H       1  UNL1        0.1453
     28 H         -16.0701  -12.1206   19.5662 H       1  UNL1        0.1453
@<TRIPOS>BOND
     1    24    25   am
     2    25    26    2
     3    25    18    1
     4    18    19   ar
     5    19    20   ar
     6    20    21   ar
     7    21     1    1
     8     1     2   ar
     9     2     3   ar
    10     3     4   ar
    11     4    10    1
    12    10    11   ar
    13    11    12   ar
    14    12    13   ar
    15    13    14    1
    16    13    15   ar
    17    15    16   ar
    18     4     5   ar
    19     5     6   ar
    20     6     7   ar
    21     7     8   ar
    22     8     9   ar
    23    21    22   ar
    24    22    23   ar
    25    23    18   ar
    26     9     1   ar
    27     7     3   ar
    28    16    10   ar
    29    24    27    1
    30    24    28    1
    31    14    17    1
@<TRIPOS>MOLECULE
*****
 28 31 0 0 0
SMALL
GASTEIGER

@<TRIPOS>ATOM
      1 C         -13.6953   -6.5556   18.8587 C.ar    1  UNL1        0.0989
      2 C         -13.7650   -5.0578   18.8993 C.ar    1  UNL1        0.1006
      3 N         -12.5036   -4.2470   18.8599 N.ar    1  UNL1       -0.2861
      4 C         -12.2606   -2.7670   18.8854 C.ar    1  UNL1        0.0846
      5 C         -10.7794   -2.5393   18.8211 C.ar    1  UNL1        0.1180
      6 N         -10.1070   -3.8786   18.7560 N.ar    1  UNL1       -0.2233
      7 C         -11.1726   -4.9340   18.7800 C.ar    1  UNL1        0.1672
      8 C         -11.1029   -6.4318   18.7394 C.ar    1  UNL1        0.1361
      9 N         -12.3642   -7.2426   18.7787 N.ar    1  UNL1       -0.2392
     10 C         -13.3139   -1.7017   18.9616 C.ar    1  UNL1        0.0179
     11 C         -14.5933   -1.9635   19.6993 C.ar    1  UNL1        0.0046
     12 C         -15.6466   -0.8983   19.7756 C.ar    1  UNL1        0.0367
     13 C         -15.4204    0.4288   19.1142 C.ar    1  UNL1        0.1337
     14 O         -16.4737    1.4941   19.1905 O.3     1  UNL1       -0.5055
     15 C         -14.1409    0.6907   18.3764 C.ar    1  UNL1        0.0367
     16 C         -13.0876   -0.3745   18.3001 C.ar    1  UNL1        0.0046
     17 H         -17.2730    1.3305   19.6513 H       1  UNL1        0.2922
     18 C         -17.4794   -8.9881   18.9768 C.ar    1  UNL1        0.0531
     19 C         -16.2010   -9.6124   18.5014 C.ar    1  UNL1        0.0046
     20 C         -14.9396   -8.8015   18.4620 C.ar    1  UNL1        0.0017
     21 C         -14.9566   -7.3664   18.8980 C.ar    1  UNL1        0.0191
     22 C         -16.2350   -6.7421   19.3734 C.ar    1  UNL1        0.0017
     23 C         -17.4964   -7.5529   19.4128 C.ar    1  UNL1        0.0046
     24 N         -18.8505  -11.0550   18.2036 N.am    1  UNL1       -0.3253
     25 C         -18.7407   -9.7989   19.0161 C.2     1  UNL1        0.2427
     26 O         -19.8922   -9.3537   19.8680 O.2     1  UNL1       -0.2704
     27 H         -19.6784  -11.5871   18.2294 H       1  UNL1        0.1453
     28 H         -18.0947  -11.3472   17.6445 H       1  UNL1        0.1453
@<TRIPOS>BOND
     1    24    25   am
     2    25    26    2
     3    25    18    1
     4    18    19   ar
     5    19    20   ar
     6    20    21   ar
     7    21     1    1
     8     1     2   ar
     9     2     3   ar
    10     3     4   ar
    11     4    10    1
    12    10    11   ar
    13    11    12   ar
    14    12    13   ar
    15    13    14    1
    16    13    15   ar
    17    15    16   ar
    18     4     5   ar
    19     5     6   ar
    20     6     7   ar
    21     7     8   ar
    22     8     9   ar
    23    21    22   ar
    24    22    23   ar
    25    23    18   ar
    26     9     1   ar
    27     7     3   ar
    28    16    10   ar
    29    24    27    1
    30    24    28    1
    31    14    17    1
@<TRIPOS>MOLECULE
*****
 28 31 0 0 0
SMALL
GASTEIGER

@<TRIPOS>ATOM
      1 C           1.2302    0.7939   22.2097 C.ar    1  UNL1        0.0989
      2 C           1.0566    0.8297   23.6992 C.ar    1  UNL1        0.1006
      3 N           0.1960    1.8846   24.3288 N.ar    1  UNL1       -0.2861
      4 C          -0.1596    2.1686   25.7581 C.ar    1  UNL1        0.0846
      5 C          -1.0664    3.3633   25.7817 C.ar    1  UNL1        0.1180
      6 N          -1.2712    3.8176   24.3669 N.ar    1  UNL1       -0.2233
      7 C          -0.4911    2.9038   23.4690 C.ar    1  UNL1        0.1672
      8 C          -0.3175    2.8680   21.9795 C.ar    1  UNL1        0.1361
      9 N           0.5431    1.8131   21.3499 N.ar    1  UNL1       -0.2392
     10 C           0.3093    1.3939   26.9539 C.ar    1  UNL1        0.0179
     11 C          -0.6879    0.7223   27.8507 C.ar    1  UNL1        0.0046
     12 C          -0.2190   -0.0524   29.0465 C.ar    1  UNL1        0.0367
     13 C           1.2473   -0.1554   29.3456 C.ar    1  UNL1        0.1337
     14 O           1.7162   -0.9301   30.5414 O.3     1  UNL1       -0.5055
     15 C           2.2446    0.5162   28.4488 C.ar    1  UNL1        0.0367
     16 C           1.7757    1.2909   27.2530 C.ar    1  UNL1        0.0046
     17 H           1.0932   -1.3497   31.1016 H       1  UNL1        0.2922
     18 C           3.8121   -2.3708   20.3206 C.ar    1  UNL1        0.0531
     19 C           3.9912   -2.0225   21.7686 C.ar    1  UNL1        0.0046
     20 C           3.1306   -0.9676   22.3983 C.ar    1  UNL1        0.0017
     21 C           2.0908   -0.2610   21.5800 C.ar    1  UNL1        0.0191
     22 C           1.9116   -0.6093   20.1321 C.ar    1  UNL1        0.0017
     23 C           2.7722   -1.6642   19.5024 C.ar    1  UNL1        0.0046
     24 N           4.7440   -3.5422   18.1972 N.am    1  UNL1       -0.3253
     25 C           4.6726   -3.4257   19.6909 C.2     1  UNL1        0.2427
     26 O           5.4619   -4.3641   20.5549 O.2     1  UNL1       -0.2704
     27 H           5.3088   -4.2346   17.7839 H       1  UNL1        0.1453
     28 H           4.2260   -2.9263   17.6301 H       1  UNL1        0.1453
@<TRIPOS>BOND
     1    24    25   am
     2    25    26    2
     3    25    18    1
     4    18    19   ar
     5    19    20   ar
     6    20    21   ar
     7    21     1    1
     8     1     2   ar
     9     2     3   ar
    10     3     4   ar
    11     4    10    1
    12    10    11   ar
    13    11    12   ar
    14    12    13   ar
    15    13    14    1
    16    13    15   ar
    17    15    16   ar
    18     4     5   ar
    19     5     6   ar
    20     6     7   ar
    21     7     8   ar
    22     8     9   ar
    23    21    22   ar
    24    22    23   ar
    25    23    18   ar
    26     9     1   ar
    27     7     3   ar
    28    16    10   ar
    29    24    27    1
    30    24    28    1
    31    14    17    1
@<TRIPOS>MOLECULE
*****
 28 31 0 0 0
SMALL
GASTEIGER

@<TRIPOS>ATOM
      1 C         -18.3059   -4.5572   19.7166 C.ar    1  UNL1        0.0989
      2 C         -17.1060   -3.6692   19.5692 C.ar    1  UNL1        0.1006
      3 N         -17.2153   -2.2044   19.8727 N.ar    1  UNL1       -0.2861
      4 C         -16.2119   -1.0906   19.8191 C.ar    1  UNL1        0.0846
      5 C         -16.9009    0.1746   20.2368 C.ar    1  UNL1        0.1180
      6 N         -18.3302   -0.1572   20.5486 N.ar    1  UNL1       -0.2233
      7 C         -18.5245   -1.6275   20.3235 C.ar    1  UNL1        0.1672
      8 C         -19.7243   -2.5154   20.4709 C.ar    1  UNL1        0.1361
      9 N         -19.6150   -3.9803   20.1674 N.ar    1  UNL1       -0.2392
     10 C         -14.7722   -1.2196   19.4182 C.ar    1  UNL1        0.0179
     11 C         -13.9755   -2.4124   19.8565 C.ar    1  UNL1        0.0046
     12 C         -12.5358   -2.5413   19.4556 C.ar    1  UNL1        0.0367
     13 C         -11.8929   -1.4773   18.6163 C.ar    1  UNL1        0.1337
     14 O         -10.4532   -1.6062   18.2154 O.3     1  UNL1       -0.5055
     15 C         -12.6895   -0.2844   18.1780 C.ar    1  UNL1        0.0367
     16 C         -14.1292   -0.1555   18.5789 C.ar    1  UNL1        0.0046
     17 H          -9.9555   -2.3514   18.4892 H       1  UNL1        0.2922
     18 C         -17.9781   -8.9520   18.8062 C.ar    1  UNL1        0.0531
     19 C         -16.8839   -8.0156   18.3870 C.ar    1  UNL1        0.0046
     20 C         -16.9931   -6.5507   18.6905 C.ar    1  UNL1        0.0017
     21 C         -18.1966   -6.0222   19.4131 C.ar    1  UNL1        0.0191
     22 C         -19.2909   -6.9586   19.8324 C.ar    1  UNL1        0.0017
     23 C         -19.1817   -8.4235   19.5290 C.ar    1  UNL1        0.0046
     24 N         -19.0348  -11.1482   17.9061 N.am    1  UNL1       -0.3253
     25 C         -17.8689  -10.4169   18.5028 C.2     1  UNL1        0.2427
     26 O         -16.5939  -11.1506   18.7961 O.2     1  UNL1       -0.2704
     27 H         -18.9631  -12.1096   17.7070 H       1  UNL1        0.1453
     28 H         -19.8716  -10.6666   17.7136 H       1  UNL1        0.1453
@<TRIPOS>BOND
     1    24    25   am
     2    25    26    2
     3    25    18    1
     4    18    19   ar
     5    19    20   ar
     6    20    21   ar
     7    21     1    1
     8     1     2   ar
     9     2     3   ar
    10     3     4   ar
    11     4    10    1
    12    10    11   ar
    13    11    12   ar
    14    12    13   ar
    15    13    14    1
    16    13    15   ar
    17    15    16   ar
    18     4     5   ar
    19     5     6   ar
    20     6     7   ar
    21     7     8   ar
    22     8     9   ar
    23    21    22   ar
    24    22    23   ar
    25    23    18   ar
    26     9     1   ar
    27     7     3   ar
    28    16    10   ar
    29    24    27    1
    30    24    28    1
    31    14    17    1
@<TRIPOS>MOLECULE
*****
 28 31 0 0 0
SMALL
GASTEIGER

@<TRIPOS>ATOM
      1 C         -16.4248   -4.7891   18.9737 C.ar    1  UNL1        0.0989
      2 C         -15.0835   -4.2355   18.5935 C.ar    1  UNL1        0.1006
      3 N         -14.8193   -2.7636   18.7099 N.ar    1  UNL1       -0.2861
      4 C         -13.6049   -1.9352   18.4116 C.ar    1  UNL1        0.0846
      5 C         -13.9313   -0.5049   18.7238 C.ar    1  UNL1        0.1180
      6 N         -15.3475   -0.4493   19.2151 N.ar    1  UNL1       -0.2233
      7 C         -15.8963   -1.8452   19.2065 C.ar    1  UNL1        0.1672
      8 C         -17.2376   -2.3988   19.5867 C.ar    1  UNL1        0.1361
      9 N         -17.5018   -3.8707   19.4703 N.ar    1  UNL1       -0.2392
     10 C         -12.2942   -2.4473   17.8923 C.ar    1  UNL1        0.0179
     11 C         -11.4499   -3.3476   18.7446 C.ar    1  UNL1        0.0046
     12 C         -10.1391   -3.8597   18.2253 C.ar    1  UNL1        0.0367
     13 C          -9.6726   -3.4715   16.8536 C.ar    1  UNL1        0.1337
     14 O          -8.3619   -3.9836   16.3342 O.3     1  UNL1       -0.5055
     15 C         -10.5169   -2.5712   16.0012 C.ar    1  UNL1        0.0367
     16 C         -11.8277   -2.0591   16.5205 C.ar    1  UNL1        0.0046
     17 H          -7.8345   -4.5460   16.8667 H       1  UNL1        0.2922
     18 C         -17.2177   -9.2050   18.6246 C.ar    1  UNL1        0.0531
     19 C         -17.9724   -8.3845   19.6282 C.ar    1  UNL1        0.0046
     20 C         -17.7081   -6.9125   19.7445 C.ar    1  UNL1        0.0017
     21 C         -16.6891   -6.2611   18.8573 C.ar    1  UNL1        0.0191
     22 C         -15.9344   -7.0815   17.8537 C.ar    1  UNL1        0.0017
     23 C         -16.1986   -8.5534   17.7373 C.ar    1  UNL1        0.0046
     24 N         -18.8305  -11.1642   18.0679 N.am    1  UNL1       -0.3253
     25 C         -17.4819  -10.6769   18.5082 C.2     1  UNL1        0.2427
     26 O         -16.3976  -11.6615   18.8320 O.2     1  UNL1       -0.2704
     27 H         -19.0040  -12.1303   17.9915 H       1  UNL1        0.1453
     28 H         -19.5422  -10.5180   17.8554 H       1  UNL1        0.1453
@<TRIPOS>BOND
     1    24    25   am
     2    25    26    2
     3    25    18    1
     4    18    19   ar
     5    19    20   ar
     6    20    21   ar
     7    21     1    1
     8     1     2   ar
     9     2     3   ar
    10     3     4   ar
    11     4    10    1
    12    10    11   ar
    13    11    12   ar
    14    12    13   ar
    15    13    14    1
    16    13    15   ar
    17    15    16   ar
    18     4     5   ar
    19     5     6   ar
    20     6     7   ar
    21     7     8   ar
    22     8     9   ar
    23    21    22   ar
    24    22    23   ar
    25    23    18   ar
    26     9     1   ar
    27     7     3   ar
    28    16    10   ar
    29    24    27    1
    30    24    28    1
    31    14    17    1
@<TRIPOS>MOLECULE
*****
 28 31 0 0 0
SMALL
GASTEIGER

@<TRIPOS>ATOM
      1 C           7.2112   -3.1814   21.3409 C.ar    1  UNL1        0.0989
      2 C           6.0142   -2.4429   20.8196 C.ar    1  UNL1        0.1006
      3 N           6.0677   -1.7831   19.4736 N.ar    1  UNL1       -0.2861
      4 C           5.0534   -0.9910   18.7030 C.ar    1  UNL1        0.0846
      5 C           5.6770   -0.5801   17.4021 C.ar    1  UNL1        0.1180
      6 N           7.0767   -1.1183   17.3687 N.ar    1  UNL1       -0.2233
      7 C           7.3182   -1.8618   18.6489 C.ar    1  UNL1        0.1672
      8 C           8.5152   -2.6002   19.1703 C.ar    1  UNL1        0.1361
      9 N           8.4617   -3.2600   20.5163 N.ar    1  UNL1       -0.2392
     10 C           3.6601   -0.6667   19.1542 C.ar    1  UNL1        0.0179
     11 C           3.1894   -1.1049   20.5093 C.ar    1  UNL1        0.0046
     12 C           1.7961   -0.7806   20.9604 C.ar    1  UNL1        0.0367
     13 C           0.8734   -0.0181   20.0564 C.ar    1  UNL1        0.1337
     14 O          -0.5199    0.3061   20.5076 O.3     1  UNL1       -0.5055
     15 C           1.3441    0.4201   18.7013 C.ar    1  UNL1        0.0367
     16 C           2.7374    0.0958   18.2501 C.ar    1  UNL1        0.0046
     17 H          -0.8139    0.0324   21.3541 H       1  UNL1        0.2922
     18 C           7.0509   -5.1609   25.3790 C.ar    1  UNL1        0.0531
     19 C           6.3008   -3.8842   25.1393 C.ar    1  UNL1        0.0046
     20 C           6.3543   -3.2244   23.7932 C.ar    1  UNL1        0.0017
     21 C           7.1578   -3.8412   22.6870 C.ar    1  UNL1        0.0191
     22 C           7.9078   -5.1179   22.9267 C.ar    1  UNL1        0.0017
     23 C           7.8544   -5.7777   24.2727 C.ar    1  UNL1        0.0046
     24 N           5.7808   -5.6655   27.5886 N.am    1  UNL1       -0.3253
     25 C           6.9974   -5.8207   26.7250 C.2     1  UNL1        0.2427
     26 O           8.1606   -6.6358   27.2074 O.2     1  UNL1       -0.2704
     27 H           5.7457   -6.0986   28.4720 H       1  UNL1        0.1453
     28 H           5.0174   -5.1306   27.2719 H       1  UNL1        0.1453
@<TRIPOS>BOND
     1    24    25   am
     2    25    26    2
     3    25    18    1
     4    18    19   ar
     5    19    20   ar
     6    20    21   ar
     7    21     1    1
     8     1     2   ar
     9     2     3   ar
    10     3     4   ar
    11     4    10    1
    12    10    11   ar
    13    11    12   ar
    14    12    13   ar
    15    13    14    1
    16    13    15   ar
    17    15    16   ar
    18     4     5   ar
    19     5     6   ar
    20     6     7   ar
    21     7     8   ar
    22     8     9   ar
    23    21    22   ar
    24    22    23   ar
    25    23    18   ar
    26     9     1   ar
    27     7     3   ar
    28    16    10   ar
    29    24    27    1
    30    24    28    1
    31    14    17    1
@<TRIPOS>MOLECULE
*****
 28 31 0 0 0
SMALL
GASTEIGER

@<TRIPOS>ATOM
      1 C         -12.2995   -2.7998   18.6938 C.ar    1  UNL1        0.0989
      2 C         -12.9768   -4.1380   18.6740 C.ar    1  UNL1        0.1006
      3 N         -12.1567   -5.3930   18.6284 N.ar    1  UNL1       -0.2861
      4 C         -12.5410   -6.8427   18.6005 C.ar    1  UNL1        0.0846
      5 C         -11.2811   -7.6556   18.5574 C.ar    1  UNL1        0.1180
      6 N         -10.1181   -6.7083   18.5587 N.ar    1  UNL1       -0.2233
      7 C         -10.6592   -5.3099   18.6026 C.ar    1  UNL1        0.1672
      8 C          -9.9819   -3.9718   18.6224 C.ar    1  UNL1        0.1361
      9 N         -10.8020   -2.7167   18.6679 N.ar    1  UNL1       -0.2392
     10 C         -13.9398   -7.3844   18.6134 C.ar    1  UNL1        0.0179
     11 C         -15.0127   -6.6725   19.3828 C.ar    1  UNL1        0.0046
     12 C         -16.4114   -7.2142   19.3957 C.ar    1  UNL1        0.0367
     13 C         -16.7372   -8.4678   18.6392 C.ar    1  UNL1        0.1337
     14 O         -18.1359   -9.0095   18.6521 O.3     1  UNL1       -0.5055
     15 C         -15.6643   -9.1797   17.8698 C.ar    1  UNL1        0.0367
     16 C         -14.2656   -8.6381   17.8569 C.ar    1  UNL1        0.0046
     17 H         -18.8062   -8.5648   19.1327 H       1  UNL1        0.2922
     18 C         -14.7598    0.9657   18.8306 C.ar    1  UNL1        0.0531
     19 C         -13.3568    1.0053   18.3015 C.ar    1  UNL1        0.0046
     20 C         -12.5367   -0.2499   18.2559 C.ar    1  UNL1        0.0017
     21 C         -13.1196   -1.5446   18.7394 C.ar    1  UNL1        0.0191
     22 C         -14.5226   -1.5843   19.2685 C.ar    1  UNL1        0.0017
     23 C         -15.3427   -0.3292   19.3141 C.ar    1  UNL1        0.0046
     24 N         -16.8964    2.2829   18.1599 N.am    1  UNL1       -0.3253
     25 C         -15.5799    2.2207   18.8762 C.2     1  UNL1        0.2427
     26 O         -15.0836    3.4137   19.6381 O.2     1  UNL1       -0.2704
     27 H         -17.4347    3.1066   18.1898 H       1  UNL1        0.1453
     28 H         -17.2221    1.4999   17.6598 H       1  UNL1        0.1453
@<TRIPOS>BOND
     1    24    25   am
     2    25    26    2
     3    25    18    1
     4    18    19   ar
     5    19    20   ar
     6    20    21   ar
     7    21     1    1
     8     1     2   ar
     9     2     3   ar
    10     3     4   ar
    11     4    10    1
    12    10    11   ar
    13    11    12   ar
    14    12    13   ar
    15    13    14    1
    16    13    15   ar
    17    15    16   ar
    18     4     5   ar
    19     5     6   ar
    20     6     7   ar
    21     7     8   ar
    22     8     9   ar
    23    21    22   ar
    24    22    23   ar
    25    23    18   ar
    26     9     1   ar
    27     7     3   ar
    28    16    10   ar
    29    24    27    1
    30    24    28    1
    31    14    17    1
