@<TRIPOS>MOLECULE
*****
 23 26 0 0 0
SMALL
GASTEIGER

@<TRIPOS>ATOM
      1 C          -7.7818  -18.0978   22.4893 C.2     1  UNL1        0.3425
      2 O          -6.7648  -19.1875   22.3209 O.2     1  UNL1       -0.2448
      3 C         -12.3469  -16.8892   21.2994 C.2     1  UNL1        0.1207
      4 C         -13.3584  -17.3929   22.2859 C.2     1  UNL1        0.0342
      5 C         -12.9118  -18.1782   23.4833 C.2     1  UNL1        0.0216
      6 C         -11.4537  -18.4599   23.6942 C.2     1  UNL1        0.0781
      7 N         -10.7203  -19.2014   24.7723 N.2     1  UNL1       -0.2439
      8 C          -9.2556  -19.1560   24.4522 C.2     1  UNL1        0.1050
      9 C          -9.0836  -18.3865   23.1762 C.2     1  UNL1        0.0926
     10 C         -10.4422  -17.9562   22.7078 C.2     1  UNL1        0.0108
     11 C         -10.8888  -17.1708   21.5104 C.3     1  UNL1        0.0919
     12 C         -11.7850  -15.6258   19.0999 C.3     1  UNL1        0.2520
     13 O         -12.7935  -16.1038   20.1020 O.2     1  UNL1       -0.4753
     14 O          -7.4970  -16.7194   21.9707 O.3     1  UNL1       -0.4454
     15 C          -7.7961  -15.5211   22.8220 C.3     1  UNL1        0.2087
     16 C          -7.3741  -15.4993   24.2612 C.3     1  UNL1        0.0445
     17 C          -5.9183  -15.4257   24.6150 C.3     1  UNL1        0.0210
     18 C          -5.4964  -15.4039   26.0542 C.3     1  UNL1        0.0722
     19 N          -6.5303  -15.4557   27.1397 N.3     1  UNL1       -0.2727
     20 C          -7.9861  -15.5293   26.7860 C.3     1  UNL1        0.0722
     21 C          -8.4081  -15.5511   25.3467 C.3     1  UNL1        0.0210
     22 C          -6.8098  -15.4701   26.3654 C.3     1  UNL1        0.0722
     23 C          -7.1913  -15.4898   25.0640 C.3     1  UNL1        0.0210
@<TRIPOS>BOND
     1    12    13    1
     2    13     3    1
     3     3     4    2
     4     4     5    1
     5     5     6    2
     6     6     7    1
     7     7     8    2
     8     8     9    1
     9     9     1    1
    10     1     2    2
    11     1    14    1
    12    14    15    1
    13    15    16    1
    14    16    17    1
    15    17    18    1
    16    18    19    1
    17    19    20    1
    18    20    21    1
    19    19    22    1
    20    22    23    1
    21     9    10    2
    22    10    11    1
    23    11     3    1
    24    10     6    1
    25    21    16    1
    26    23    16    1
@<TRIPOS>MOLECULE
*****
 23 26 0 0 0
SMALL
GASTEIGER

@<TRIPOS>ATOM
      1 C          -7.6223  -19.2706   21.6813 C.2     1  UNL1        0.3425
      2 O          -7.3689  -18.0698   20.8189 O.2     1  UNL1       -0.2448
      3 C         -11.9887  -17.2010   21.0752 C.2     1  UNL1        0.1207
      4 C         -12.9567  -17.5542   22.1652 C.2     1  UNL1        0.0342
      5 C         -12.5300  -18.4586   23.2832 C.2     1  UNL1        0.0216
      6 C         -11.1353  -19.0098   23.3112 C.2     1  UNL1        0.0781
      7 N         -10.4343  -19.9183   24.2772 N.2     1  UNL1       -0.2439
      8 C          -9.0330  -20.1265   23.7843 C.2     1  UNL1        0.1050
      9 C          -8.8679  -19.3468   22.5136 C.2     1  UNL1        0.0926
     10 C         -10.1673  -18.6566   22.2212 C.2     1  UNL1        0.0108
     11 C         -10.5940  -17.7522   21.1032 C.3     1  UNL1        0.0919
     12 C         -11.3890  -15.5178   19.1891 C.3     1  UNL1        0.2520
     13 O         -12.4154  -16.2965   19.9572 O.2     1  UNL1       -0.4753
     14 O          -6.6302  -20.3952   21.7116 O.3     1  UNL1       -0.4454
     15 C          -5.6490  -20.5602   20.5891 C.3     1  UNL1        0.2087
     16 C          -4.3802  -19.7601   20.5782 C.3     1  UNL1        0.0445
     17 C          -3.4348  -19.8374   21.7402 C.3     1  UNL1        0.0210
     18 C          -2.1660  -19.0373   21.7293 C.3     1  UNL1        0.0722
     19 N          -1.8428  -18.1599   20.5565 N.3     1  UNL1       -0.2727
     20 C          -2.7882  -18.0825   19.3946 C.3     1  UNL1        0.0722
     21 C          -4.0570  -18.8826   19.4054 C.3     1  UNL1        0.0210
     22 C          -2.5500  -18.5797   20.5171 C.3     1  UNL1        0.0722
     23 C          -3.6972  -19.3032   20.5270 C.3     1  UNL1        0.0210
@<TRIPOS>BOND
     1    12    13    1
     2    13     3    1
     3     3     4    2
     4     4     5    1
     5     5     6    2
     6     6     7    1
     7     7     8    2
     8     8     9    1
     9     9     1    1
    10     1     2    2
    11     1    14    1
    12    14    15    1
    13    15    16    1
    14    16    17    1
    15    17    18    1
    16    18    19    1
    17    19    20    1
    18    20    21    1
    19    19    22    1
    20    22    23    1
    21     9    10    2
    22    10    11    1
    23    11     3    1
    24    10     6    1
    25    21    16    1
    26    23    16    1
@<TRIPOS>MOLECULE
*****
 23 26 0 0 0
SMALL
GASTEIGER

@<TRIPOS>ATOM
      1 C          -9.9914  -18.8328   24.2423 C.2     1  UNL1        0.3425
      2 O          -9.7342  -19.9141   25.2496 O.2     1  UNL1       -0.2448
      3 C          -6.2674  -18.9143   21.1053 C.2     1  UNL1        0.1207
      4 C          -6.6860  -19.2882   19.7143 C.2     1  UNL1        0.0342
      5 C          -8.1259  -19.5879   19.4194 C.2     1  UNL1        0.0216
      6 C          -9.1471  -19.5137   20.5156 C.2     1  UNL1        0.0781
      7 N         -10.6278  -19.7531   20.5257 N.2     1  UNL1       -0.2439
      8 C         -11.1244  -19.5272   21.9230 C.2     1  UNL1        0.1050
      9 C          -9.9505  -19.1482   22.7765 C.2     1  UNL1        0.0926
     10 C          -8.7285  -19.1398   21.9065 C.2     1  UNL1        0.0108
     11 C          -7.2886  -18.8401   22.2014 C.3     1  UNL1        0.0919
     12 C          -4.3307  -18.6401   22.8152 C.3     1  UNL1        0.2520
     13 O          -4.8275  -18.6145   21.4001 O.2     1  UNL1       -0.4753
     14 O         -10.2896  -17.4361   24.7010 O.3     1  UNL1       -0.4454
     15 C          -9.4470  -16.2925   24.2194 C.3     1  UNL1        0.2087
     16 C          -8.1770  -15.9424   24.9367 C.3     1  UNL1        0.0445
     17 C          -8.1829  -15.7577   26.4253 C.3     1  UNL1        0.0210
     18 C          -6.9130  -15.4075   27.1427 C.3     1  UNL1        0.0722
     19 N          -5.6371  -15.2422   26.3714 N.3     1  UNL1       -0.2727
     20 C          -5.6312  -15.4269   24.8829 C.3     1  UNL1        0.0722
     21 C          -6.9011  -15.7770   24.1655 C.3     1  UNL1        0.0210
     22 C          -6.3080  -15.4344   25.9345 C.3     1  UNL1        0.0722
     23 C          -7.4563  -15.7509   25.2859 C.3     1  UNL1        0.0210
@<TRIPOS>BOND
     1    12    13    1
     2    13     3    1
     3     3     4    2
     4     4     5    1
     5     5     6    2
     6     6     7    1
     7     7     8    2
     8     8     9    1
     9     9     1    1
    10     1     2    2
    11     1    14    1
    12    14    15    1
    13    15    16    1
    14    16    17    1
    15    17    18    1
    16    18    19    1
    17    19    20    1
    18    20    21    1
    19    19    22    1
    20    22    23    1
    21     9    10    2
    22    10    11    1
    23    11     3    1
    24    10     6    1
    25    21    16    1
    26    23    16    1
@<TRIPOS>MOLECULE
*****
 23 26 0 0 0
SMALL
GASTEIGER

@<TRIPOS>ATOM
      1 C          -7.0217  -19.8293   20.0615 C.2     1  UNL1        0.3425
      2 O          -6.5037  -21.2265   19.8898 O.2     1  UNL1       -0.2448
      3 C          -2.4584  -18.7175   21.3487 C.2     1  UNL1        0.1207
      4 C          -2.3947  -17.8063   22.5384 C.2     1  UNL1        0.0342
      5 C          -3.6604  -17.3401   23.1946 C.2     1  UNL1        0.0216
      6 C          -4.9898  -17.7851   22.6612 C.2     1  UNL1        0.0781
      7 N          -6.3951  -17.4919   23.0962 N.2     1  UNL1       -0.2439
      8 C          -7.3273  -18.2220   22.1753 C.2     1  UNL1        0.1050
      9 C          -6.4981  -18.9664   21.1711 C.2     1  UNL1        0.0926
     10 C          -5.0535  -18.6964   21.4714 C.2     1  UNL1        0.0108
     11 C          -3.7878  -19.1626   20.8152 C.3     1  UNL1        0.0919
     12 C          -0.3424  -18.2127   19.9283 C.3     1  UNL1        0.2520
     13 O          -1.1927  -19.1838   20.6925 O.2     1  UNL1       -0.4753
     14 O          -8.0632  -19.2950   19.1235 O.3     1  UNL1       -0.4454
     15 C          -9.4814  -19.7725   19.2268 C.3     1  UNL1        0.2087
     16 C         -10.4095  -19.1549   20.2305 C.3     1  UNL1        0.0445
     17 C         -10.5856  -19.7887   21.5785 C.3     1  UNL1        0.0210
     18 C         -11.5137  -19.1711   22.5821 C.3     1  UNL1        0.0722
     19 N         -12.2657  -17.9198   22.2377 N.3     1  UNL1       -0.2727
     20 C         -12.0895  -17.2860   20.8896 C.3     1  UNL1        0.0722
     21 C         -11.1614  -17.9036   19.8860 C.3     1  UNL1        0.0210
     22 C         -11.7684  -18.2215   21.6549 C.3     1  UNL1        0.0722
     23 C         -10.9291  -18.7800   20.7475 C.3     1  UNL1        0.0210
@<TRIPOS>BOND
     1    12    13    1
     2    13     3    1
     3     3     4    2
     4     4     5    1
     5     5     6    2
     6     6     7    1
     7     7     8    2
     8     8     9    1
     9     9     1    1
    10     1     2    2
    11     1    14    1
    12    14    15    1
    13    15    16    1
    14    16    17    1
    15    17    18    1
    16    18    19    1
    17    19    20    1
    18    20    21    1
    19    19    22    1
    20    22    23    1
    21     9    10    2
    22    10    11    1
    23    11     3    1
    24    10     6    1
    25    21    16    1
    26    23    16    1
@<TRIPOS>MOLECULE
*****
 23 26 0 0 0
SMALL
GASTEIGER

@<TRIPOS>ATOM
      1 C          -6.1347  -19.0913   21.1513 C.2     1  UNL1        0.3425
      2 O          -5.6802  -18.6619   19.7878 O.2     1  UNL1       -0.2448
      3 C          -7.3642  -15.6943   24.4171 C.2     1  UNL1        0.1207
      4 C          -8.8460  -15.6007   24.6299 C.2     1  UNL1        0.0342
      5 C          -9.7715  -16.5029   23.8688 C.2     1  UNL1        0.0216
      6 C          -9.2152  -17.4988   22.8947 C.2     1  UNL1        0.0781
      7 N          -9.8758  -18.5121   22.0077 N.2     1  UNL1       -0.2439
      8 C          -8.8023  -19.2320   21.2467 C.2     1  UNL1        0.1050
      9 C          -7.4781  -18.6636   21.6633 C.2     1  UNL1        0.0926
     10 C          -7.7334  -17.5924   22.6819 C.2     1  UNL1        0.0108
     11 C          -6.8079  -16.6902   23.4431 C.3     1  UNL1        0.0919
     12 C          -5.0827  -15.2837   25.5901 C.3     1  UNL1        0.2520
     13 O          -6.4386  -14.7921   25.1783 O.2     1  UNL1       -0.4753
     14 O          -5.2456  -19.9483   22.0028 O.3     1  UNL1       -0.4454
     15 C          -4.0979  -19.3319   22.7463 C.3     1  UNL1        0.2087
     16 C          -3.1043  -18.4771   22.0168 C.3     1  UNL1        0.0445
     17 C          -2.9506  -17.0298   22.3798 C.3     1  UNL1        0.0210
     18 C          -1.9570  -16.1751   21.6503 C.3     1  UNL1        0.0722
     19 N          -1.1170  -16.7677   20.5580 N.3     1  UNL1       -0.2727
     20 C          -1.2706  -18.2150   20.1951 C.3     1  UNL1        0.0722
     21 C          -2.2643  -19.0697   20.9245 C.3     1  UNL1        0.0210
     22 C          -1.6480  -17.2756   20.9294 C.3     1  UNL1        0.0722
     23 C          -2.5465  -18.0484   21.5889 C.3     1  UNL1        0.0210
@<TRIPOS>BOND
     1    12    13    1
     2    13     3    1
     3     3     4    2
     4     4     5    1
     5     5     6    2
     6     6     7    1
     7     7     8    2
     8     8     9    1
     9     9     1    1
    10     1     2    2
    11     1    14    1
    12    14    15    1
    13    15    16    1
    14    16    17    1
    15    17    18    1
    16    18    19    1
    17    19    20    1
    18    20    21    1
    19    19    22    1
    20    22    23    1
    21     9    10    2
    22    10    11    1
    23    11     3    1
    24    10     6    1
    25    21    16    1
    26    23    16    1
@<TRIPOS>MOLECULE
*****
 23 26 0 0 0
SMALL
GASTEIGER

@<TRIPOS>ATOM
      1 C          -7.3875  -17.1768   23.0637 C.2     1  UNL1        0.3425
      2 O          -6.4047  -16.0437   23.0802 O.2     1  UNL1       -0.2448
      3 C          -3.4221  -19.4396   21.3690 C.2     1  UNL1        0.1207
      4 C          -3.7443  -20.4999   20.3581 C.2     1  UNL1        0.0342
      5 C          -5.1705  -20.7618   19.9745 C.2     1  UNL1        0.0216
      6 C          -6.2747  -19.9635   20.6017 C.2     1  UNL1        0.0781
      7 N          -7.7636  -19.9966   20.4231 N.2     1  UNL1       -0.2439
      8 C          -8.3617  -18.9567   21.3237 C.2     1  UNL1        0.1050
      9 C          -7.2424  -18.2809   22.0588 C.2     1  UNL1        0.0926
     10 C          -5.9525  -18.9032   21.6126 C.2     1  UNL1        0.0108
     11 C          -4.5263  -18.6412   21.9962 C.3     1  UNL1        0.0919
     12 C          -1.1485  -18.2679   20.9134 C.3     1  UNL1        0.2520
     13 O          -1.9959  -19.1776   21.7526 O.2     1  UNL1       -0.4753
     14 O          -8.5154  -17.2057   24.0522 O.3     1  UNL1       -0.4454
     15 C          -9.6925  -16.2934   23.8739 C.3     1  UNL1        0.2087
     16 C         -10.7034  -16.5739   22.8018 C.3     1  UNL1        0.0445
     17 C         -11.8674  -17.4763   23.0860 C.3     1  UNL1        0.0210
     18 C         -12.8782  -17.7569   22.0139 C.3     1  UNL1        0.0722
     19 N         -12.7250  -17.1351   20.6575 N.3     1  UNL1       -0.2727
     20 C         -11.5610  -16.2327   20.3732 C.3     1  UNL1        0.0722
     21 C         -10.5501  -15.9522   21.4454 C.3     1  UNL1        0.0210
     22 C         -12.1456  -16.9518   21.2130 C.3     1  UNL1        0.0722
     23 C         -11.2316  -16.6981   22.1825 C.3     1  UNL1        0.0210
@<TRIPOS>BOND
     1    12    13    1
     2    13     3    1
     3     3     4    2
     4     4     5    1
     5     5     6    2
     6     6     7    1
     7     7     8    2
     8     8     9    1
     9     9     1    1
    10     1     2    2
    11     1    14    1
    12    14    15    1
    13    15    16    1
    14    16    17    1
    15    17    18    1
    16    18    19    1
    17    19    20    1
    18    20    21    1
    19    19    22    1
    20    22    23    1
    21     9    10    2
    22    10    11    1
    23    11     3    1
    24    10     6    1
    25    21    16    1
    26    23    16    1
@<TRIPOS>MOLECULE
*****
 23 26 0 0 0
SMALL
GASTEIGER

@<TRIPOS>ATOM
      1 C          -9.0975  -19.3545   20.0699 C.2     1  UNL1        0.3425
      2 O         -10.0875  -19.6782   18.9905 O.2     1  UNL1       -0.2448
      3 C          -7.5712  -16.1906   23.4428 C.2     1  UNL1        0.1207
      4 C          -8.3386  -16.2939   24.7275 C.2     1  UNL1        0.0342
      5 C          -9.4440  -17.2989   24.8621 C.2     1  UNL1        0.0216
      6 C          -9.7819  -18.2007   23.7121 C.2     1  UNL1        0.0781
      7 N         -10.8115  -19.2796   23.5515 N.2     1  UNL1       -0.2439
      8 C         -10.6805  -19.8431   22.1675 C.2     1  UNL1        0.1050
      9 C          -9.5699  -19.1125   21.4728 C.2     1  UNL1        0.0926
     10 C          -9.0145  -18.0974   22.4274 C.2     1  UNL1        0.0108
     11 C          -7.9091  -17.0924   22.2928 C.3     1  UNL1        0.0919
     12 C          -5.1363  -15.4420   23.9537 C.3     1  UNL1        0.2520
     13 O          -6.4658  -15.1856   23.3082 O.2     1  UNL1       -0.4753
     14 O          -7.6351  -19.2727   19.7463 O.3     1  UNL1       -0.4454
     15 C          -6.6925  -20.3176   20.2654 C.3     1  UNL1        0.2087
     16 C          -5.3625  -19.9142   20.8298 C.3     1  UNL1        0.0445
     17 C          -5.2814  -19.3108   22.2006 C.3     1  UNL1        0.0210
     18 C          -3.9514  -18.9074   22.7649 C.3     1  UNL1        0.0722
     19 N          -2.7026  -19.1075   21.9584 N.3     1  UNL1       -0.2727
     20 C          -2.7838  -19.7110   20.5876 C.3     1  UNL1        0.0722
     21 C          -4.1137  -20.1144   20.0233 C.3     1  UNL1        0.0210
     22 C          -3.4086  -19.3441   21.6069 C.3     1  UNL1        0.0722
     23 C          -4.6112  -19.7088   21.0967 C.3     1  UNL1        0.0210
@<TRIPOS>BOND
     1    12    13    1
     2    13     3    1
     3     3     4    2
     4     4     5    1
     5     5     6    2
     6     6     7    1
     7     7     8    2
     8     8     9    1
     9     9     1    1
    10     1     2    2
    11     1    14    1
    12    14    15    1
    13    15    16    1
    14    16    17    1
    15    17    18    1
    16    18    19    1
    17    19    20    1
    18    20    21    1
    19    19    22    1
    20    22    23    1
    21     9    10    2
    22    10    11    1
    23    11     3    1
    24    10     6    1
    25    21    16    1
    26    23    16    1
@<TRIPOS>MOLECULE
*****
 23 26 0 0 0
SMALL
GASTEIGER

@<TRIPOS>ATOM
      1 C         -11.0709  -17.4887   20.1519 C.2     1  UNL1        0.3425
      2 O         -10.8399  -16.0607   19.7553 O.2     1  UNL1       -0.2448
      3 C          -6.6962  -17.9383   22.2438 C.2     1  UNL1        0.1207
      4 C          -5.9274  -19.1224   21.7370 C.2     1  UNL1        0.0342
      5 C          -6.5289  -20.0162   20.6933 C.2     1  UNL1        0.0216
      6 C          -7.8990  -19.7259   20.1564 C.2     1  UNL1        0.0781
      7 N          -8.7441  -20.4232   19.1319 N.2     1  UNL1       -0.2439
      8 C         -10.0351  -19.6700   19.0055 C.2     1  UNL1        0.1050
      9 C          -9.9880  -18.5072   19.9519 C.2     1  UNL1        0.0926
     10 C          -8.6678  -18.5418   20.6632 C.2     1  UNL1        0.0108
     11 C          -8.0663  -17.6480   21.7069 C.3     1  UNL1        0.0919
     12 C          -6.8765  -15.8796   23.8184 C.3     1  UNL1        0.2520
     13 O          -6.0947  -17.0445   23.2876 O.2     1  UNL1       -0.4753
     14 O         -12.3847  -17.8983   20.7486 O.3     1  UNL1       -0.4454
     15 C         -12.5705  -17.8812   22.2369 C.3     1  UNL1        0.2087
     16 C         -11.5255  -18.4811   23.1301 C.3     1  UNL1        0.0445
     17 C         -11.1829  -19.9367   23.0112 C.3     1  UNL1        0.0210
     18 C         -10.1379  -20.5366   23.9045 C.3     1  UNL1        0.0722
     19 N          -9.4354  -19.6810   24.9167 N.3     1  UNL1       -0.2727
     20 C          -9.7779  -18.2255   25.0356 C.3     1  UNL1        0.0722
     21 C         -10.8230  -17.6256   24.1423 C.3     1  UNL1        0.0210
     22 C         -10.0009  -19.3074   24.4492 C.3     1  UNL1        0.0722
     23 C         -10.9459  -18.7650   23.6415 C.3     1  UNL1        0.0210
@<TRIPOS>BOND
     1    12    13    1
     2    13     3    1
     3     3     4    2
     4     4     5    1
     5     5     6    2
     6     6     7    1
     7     7     8    2
     8     8     9    1
     9     9     1    1
    10     1     2    2
    11     1    14    1
    12    14    15    1
    13    15    16    1
    14    16    17    1
    15    17    18    1
    16    18    19    1
    17    19    20    1
    18    20    21    1
    19    19    22    1
    20    22    23    1
    21     9    10    2
    22    10    11    1
    23    11     3    1
    24    10     6    1
    25    21    16    1
    26    23    16    1
@<TRIPOS>MOLECULE
*****
 23 26 0 0 0
SMALL
GASTEIGER

@<TRIPOS>ATOM
      1 C          -8.5439  -18.1744   20.8139 C.2     1  UNL1        0.3425
      2 O          -9.0067  -16.8403   21.3199 O.2     1  UNL1       -0.2448
      3 C          -5.2012  -16.3996   23.8787 C.2     1  UNL1        0.1207
      4 C          -3.9670  -17.2491   23.9496 C.2     1  UNL1        0.0342
      5 C          -3.8672  -18.4973   23.1239 C.2     1  UNL1        0.0216
      6 C          -5.0016  -18.8961   22.2272 C.2     1  UNL1        0.0781
      7 N          -5.1884  -20.0630   21.3034 N.2     1  UNL1       -0.2439
      8 C          -6.5381  -19.9347   20.6615 C.2     1  UNL1        0.1050
      9 C          -7.1855  -18.6885   21.1886 C.2     1  UNL1        0.0926
     10 C          -6.2358  -18.0466   22.1563 C.2     1  UNL1        0.0108
     11 C          -6.3356  -16.7983   22.9821 C.3     1  UNL1        0.0919
     12 C          -5.7144  -15.2353   26.1438 C.3     1  UNL1        0.2520
     13 O          -5.3009  -15.1513   24.7045 O.2     1  UNL1       -0.4753
     14 O          -9.4394  -18.9944   19.9332 O.3     1  UNL1       -0.4454
     15 C         -10.6309  -19.6932   20.5180 C.3     1  UNL1        0.2087
     16 C         -11.1101  -19.3351   21.8935 C.3     1  UNL1        0.0445
     17 C         -10.4872  -19.9797   23.0962 C.3     1  UNL1        0.0210
     18 C         -10.9664  -19.6216   24.4717 C.3     1  UNL1        0.0722
     19 N         -12.0685  -18.6189   24.6446 N.3     1  UNL1       -0.2727
     20 C         -12.6915  -17.9743   23.4419 C.3     1  UNL1        0.0722
     21 C         -12.2123  -18.3324   22.0663 C.3     1  UNL1        0.0210
     22 C         -11.8395  -18.7831   23.8709 C.3     1  UNL1        0.0722
     23 C         -11.4062  -19.1069   22.6272 C.3     1  UNL1        0.0210
@<TRIPOS>BOND
     1    12    13    1
     2    13     3    1
     3     3     4    2
     4     4     5    1
     5     5     6    2
     6     6     7    1
     7     7     8    2
     8     8     9    1
     9     9     1    1
    10     1     2    2
    11     1    14    1
    12    14    15    1
    13    15    16    1
    14    16    17    1
    15    17    18    1
    16    18    19    1
    17    19    20    1
    18    20    21    1
    19    19    22    1
    20    22    23    1
    21     9    10    2
    22    10    11    1
    23    11     3    1
    24    10     6    1
    25    21    16    1
    26    23    16    1
