@<TRIPOS>MOLECULE
*****
 31 32 0 0 0
SMALL
GASTEIGER

@<TRIPOS>ATOM
      1 N           7.3897   -3.4301   20.4804 N.am    1  UNL1       -0.2701
      2 C           7.9155   -2.0358   20.6516 C.3     1  UNL1        0.1155
      3 C           6.0297   -3.6514   19.8876 C.2     1  UNL1        0.2522
      4 O           5.5039   -5.0458   19.7164 O.2     1  UNL1       -0.2698
      5 C           5.1954   -2.4783   19.4660 C.ar    1  UNL1        0.0871
      6 C           4.0772   -1.9991   20.3435 C.ar    1  UNL1        0.0063
      7 C           3.2429   -0.8260   19.9219 C.ar    1  UNL1        0.0115
      8 C           3.5269   -0.1320   18.6227 C.ar    1  UNL1        0.1326
      9 O           2.6926    1.0411   18.2011 O.3     1  UNL1       -0.5057
     10 C           4.6451   -0.6111   17.7452 C.ar    1  UNL1        0.0730
     11 C           5.4794   -1.7843   18.1668 C.ar    1  UNL1        0.1410
     12 O           6.5976   -2.2634   17.2893 O.3     1  UNL1       -0.5053
     13 H           1.9941    1.3404   18.7493 H       1  UNL1        0.2922
     14 H           6.7749   -1.8298   16.4778 H       1  UNL1        0.2922
     15 C           2.1247   -0.3469   20.7994 C.3     1  UNL1        0.0253
     16 C           0.7028   -0.4739   20.3388 C.3     1  UNL1        0.0048
     17 C           2.4284    0.2592   22.1375 C.3     1  UNL1        0.0048
     18 C           8.2240   -4.6032   20.9020 C.3     1  UNL1        0.1205
     19 C           7.8400   -6.2552   25.0702 C.ar    1  UNL1        0.0533
     20 C           8.6727   -6.9757   24.0516 C.ar    1  UNL1        0.0042
     21 C           8.8007   -6.4250   22.6622 C.ar    1  UNL1       -0.0025
     22 C           8.0960   -5.1539   22.2914 C.ar    1  UNL1       -0.0023
     23 C           7.2633   -4.4334   23.3100 C.ar    1  UNL1       -0.0025
     24 C           7.1353   -4.9841   24.6994 C.ar    1  UNL1        0.0042
     25 N           7.9484   -5.9160   27.6437 N.am    1  UNL1       -0.3009
     26 C           7.7120   -6.8059   26.4596 C.2     1  UNL1        0.2458
     27 O           7.3476   -8.2463   26.6648 O.2     1  UNL1       -0.2701
     28 H           8.1876   -4.9706   27.5090 H       1  UNL1        0.1497
     29 C           7.8205   -6.4667   29.0331 C.3     1  UNL1        0.0897
     30 C           7.2714   -5.8018   31.4840 C.3     1  UNL1        0.0018
     31 C           6.9188   -5.7949   30.0260 C.3     1  UNL1        0.0213
@<TRIPOS>BOND
     1    30    31    1
     2    31    29    1
     3    29    25    1
     4    25    26   am
     5    26    27    2
     6    26    19    1
     7    19    20   ar
     8    20    21   ar
     9    21    22   ar
    10    22    18    1
    11    18     1    1
    12     1     2    1
    13     1     3   am
    14     3     4    2
    15     3     5    1
    16     5     6   ar
    17     6     7   ar
    18     7    15    1
    19    15    16    1
    20    15    17    1
    21     7     8   ar
    22     8     9    1
    23     8    10   ar
    24    10    11   ar
    25    11    12    1
    26    22    23   ar
    27    23    24   ar
    28    24    19   ar
    29    11     5   ar
    30    25    28    1
    31     9    13    1
    32    12    14    1
@<TRIPOS>MOLECULE
*****
 31 32 0 0 0
SMALL
GASTEIGER

@<TRIPOS>ATOM
      1 N           1.6321    1.6169   21.7631 N.am    1  UNL1       -0.2701
      2 C           3.1046    1.8856   21.8613 C.3     1  UNL1        0.1155
      3 C           1.1192    0.5963   20.7907 C.2     1  UNL1        0.2522
      4 O          -0.3532    0.3275   20.6925 O.2     1  UNL1       -0.2698
      5 C           2.0787   -0.1554   19.9165 C.ar    1  UNL1        0.0871
      6 C           2.5902   -1.4986   20.3459 C.ar    1  UNL1        0.0063
      7 C           3.5497   -2.2502   19.4717 C.ar    1  UNL1        0.0115
      8 C           3.9978   -1.6588   18.1681 C.ar    1  UNL1        0.1326
      9 O           4.9573   -2.4105   17.2939 O.3     1  UNL1       -0.5057
     10 C           3.4864   -0.3157   17.7387 C.ar    1  UNL1        0.0730
     11 C           2.5268    0.4361   18.6129 C.ar    1  UNL1        0.1410
     12 O           2.0154    1.7792   18.1835 O.3     1  UNL1       -0.5053
     13 H           5.2768   -3.2495   17.5622 H       1  UNL1        0.2922
     14 H           2.2954    2.1486   17.3692 H       1  UNL1        0.2922
     15 C           4.0611   -3.5934   19.9012 C.3     1  UNL1        0.0253
     16 C           5.1846   -3.6868   20.8906 C.3     1  UNL1        0.0048
     17 C           3.4490   -4.8431   19.3412 C.3     1  UNL1        0.0048
     18 C           0.6726    2.3685   22.6373 C.3     1  UNL1        0.1205
     19 C           0.4258    1.4325   27.0319 C.ar    1  UNL1        0.0533
     20 C           1.6584    1.0730   26.2566 C.ar    1  UNL1        0.0042
     21 C           1.7407    1.3850   24.7917 C.ar    1  UNL1       -0.0025
     22 C           0.5903    2.0565   24.1022 C.ar    1  UNL1       -0.0023
     23 C          -0.6424    2.4161   24.8775 C.ar    1  UNL1       -0.0025
     24 C          -0.7246    2.1041   26.3424 C.ar    1  UNL1        0.0042
     25 N           0.4812    2.2208   29.5069 N.am    1  UNL1       -0.3009
     26 C           0.3435    1.1205   28.4968 C.2     1  UNL1        0.2458
     27 O           0.1234   -0.2918   28.9516 O.2     1  UNL1       -0.2701
     28 H           0.6257    3.1478   29.2084 H       1  UNL1        0.1497
     29 C           0.3990    1.9088   30.9718 C.3     1  UNL1        0.0897
     30 C           1.7034    2.3884   33.1669 C.3     1  UNL1        0.0018
     31 C           1.6533    1.8016   31.7874 C.3     1  UNL1        0.0213
@<TRIPOS>BOND
     1    30    31    1
     2    31    29    1
     3    29    25    1
     4    25    26   am
     5    26    27    2
     6    26    19    1
     7    19    20   ar
     8    20    21   ar
     9    21    22   ar
    10    22    18    1
    11    18     1    1
    12     1     2    1
    13     1     3   am
    14     3     4    2
    15     3     5    1
    16     5     6   ar
    17     6     7   ar
    18     7    15    1
    19    15    16    1
    20    15    17    1
    21     7     8   ar
    22     8     9    1
    23     8    10   ar
    24    10    11   ar
    25    11    12    1
    26    22    23   ar
    27    23    24   ar
    28    24    19   ar
    29    11     5   ar
    30    25    28    1
    31     9    13    1
    32    12    14    1
@<TRIPOS>MOLECULE
*****
 31 32 0 0 0
SMALL
GASTEIGER

@<TRIPOS>ATOM
      1 N           6.1508   -1.9038   22.7731 N.am    1  UNL1       -0.2701
      2 C           6.9364   -0.8385   22.0674 C.3     1  UNL1        0.1155
      3 C           5.0643   -2.6399   22.0466 C.2     1  UNL1        0.2522
      4 O           4.2788   -3.7053   22.7523 O.2     1  UNL1       -0.2698
      5 C           4.7634   -2.3107   20.6145 C.ar    1  UNL1        0.0871
      6 C           4.0217   -1.0521   20.2741 C.ar    1  UNL1        0.0063
      7 C           3.7208   -0.7229   18.8420 C.ar    1  UNL1        0.0115
      8 C           4.1616   -1.6522   17.7502 C.ar    1  UNL1        0.1326
      9 O           3.8607   -1.3230   16.3181 O.3     1  UNL1       -0.5057
     10 C           4.9033   -2.9107   18.0905 C.ar    1  UNL1        0.0730
     11 C           5.2043   -3.2400   19.5227 C.ar    1  UNL1        0.1410
     12 O           5.9460   -4.4986   19.8630 O.3     1  UNL1       -0.5053
     13 H           3.3974   -0.5368   16.1054 H       1  UNL1        0.2922
     14 H           6.2214   -5.0791   19.1810 H       1  UNL1        0.2922
     15 C           2.9790    0.5356   18.5017 C.3     1  UNL1        0.0253
     16 C           3.7296    1.8201   18.3101 C.3     1  UNL1        0.0048
     17 C           1.4866    0.5098   18.3529 C.3     1  UNL1        0.0048
     18 C           6.4517   -2.2331   24.2053 C.3     1  UNL1        0.1205
     19 C           3.6102   -0.9560   27.4525 C.ar    1  UNL1        0.0533
     20 C           4.7677   -1.8525   27.7786 C.ar    1  UNL1        0.0042
     21 C           5.7148   -2.2782   26.6962 C.ar    1  UNL1       -0.0025
     22 C           5.5045   -1.8074   25.2877 C.ar    1  UNL1       -0.0023
     23 C           4.3471   -0.9108   24.9615 C.ar    1  UNL1       -0.0025
     24 C           3.3999   -0.4851   26.0440 C.ar    1  UNL1        0.0042
     25 N           1.3999    0.1979   28.1826 N.am    1  UNL1       -0.3009
     26 C           2.6630   -0.5303   28.5349 C.2     1  UNL1        0.2458
     27 O           2.9790   -0.8327   29.9697 O.2     1  UNL1       -0.2701
     28 H           1.1925    0.3964   27.2408 H       1  UNL1        0.1497
     29 C           0.4527    0.6236   29.2650 C.3     1  UNL1        0.0897
     30 C          -1.6849   -0.8031   28.8838 C.3     1  UNL1        0.0018
     31 C          -1.0283    0.5361   29.0428 C.3     1  UNL1        0.0213
@<TRIPOS>BOND
     1    30    31    1
     2    31    29    1
     3    29    25    1
     4    25    26   am
     5    26    27    2
     6    26    19    1
     7    19    20   ar
     8    20    21   ar
     9    21    22   ar
    10    22    18    1
    11    18     1    1
    12     1     2    1
    13     1     3   am
    14     3     4    2
    15     3     5    1
    16     5     6   ar
    17     6     7   ar
    18     7    15    1
    19    15    16    1
    20    15    17    1
    21     7     8   ar
    22     8     9    1
    23     8    10   ar
    24    10    11   ar
    25    11    12    1
    26    22    23   ar
    27    23    24   ar
    28    24    19   ar
    29    11     5   ar
    30    25    28    1
    31     9    13    1
    32    12    14    1
@<TRIPOS>MOLECULE
*****
 31 32 0 0 0
SMALL
GASTEIGER

@<TRIPOS>ATOM
      1 N           6.9181   -3.0948   20.8490 N.am    1  UNL1       -0.2701
      2 C           7.4167   -1.6802   20.8683 C.3     1  UNL1        0.1155
      3 C           5.5671   -3.4061   20.2762 C.2     1  UNL1        0.2522
      4 O           5.0685   -4.8206   20.2569 O.2     1  UNL1       -0.2698
      5 C           4.7149   -2.3028   19.7227 C.ar    1  UNL1        0.0871
      6 C           3.6567   -1.6713   20.5781 C.ar    1  UNL1        0.0063
      7 C           2.8045   -0.5681   20.0246 C.ar    1  UNL1        0.0115
      8 C           3.0102   -0.0963   18.6156 C.ar    1  UNL1        0.1326
      9 O           2.1580    1.0070   18.0621 O.3     1  UNL1       -0.5057
     10 C           4.0683   -0.7277   17.7602 C.ar    1  UNL1        0.0730
     11 C           4.9207   -1.8310   18.3138 C.ar    1  UNL1        0.1410
     12 O           5.9787   -2.4624   17.4584 O.3     1  UNL1       -0.5053
     13 H           1.4970    1.4014   18.5964 H       1  UNL1        0.2922
     14 H           6.1073   -2.1677   16.5783 H       1  UNL1        0.2922
     15 C           1.7464    0.0634   20.8799 C.3     1  UNL1        0.0253
     16 C           0.3049   -0.0199   20.4735 C.3     1  UNL1        0.0048
     17 C           2.1298    0.7781   22.1418 C.3     1  UNL1        0.0048
     18 C           7.7704   -4.1980   21.4025 C.3     1  UNL1        0.1205
     19 C           7.3559   -5.4135   25.7154 C.ar    1  UNL1        0.0533
     20 C           6.7350   -4.1360   25.2332 C.ar    1  UNL1        0.0042
     21 C           6.8731   -3.7309   23.7956 C.ar    1  UNL1       -0.0025
     22 C           7.6322   -4.6032   22.8402 C.ar    1  UNL1       -0.0023
     23 C           8.2532   -5.8806   23.3224 C.ar    1  UNL1       -0.0025
     24 C           8.1150   -6.2857   24.7600 C.ar    1  UNL1        0.0042
     25 N           8.3929   -6.3942   27.8863 N.am    1  UNL1       -0.3009
     26 C           7.2178   -5.8186   27.1530 C.2     1  UNL1        0.2458
     27 O           5.9045   -5.6482   27.8574 O.2     1  UNL1       -0.2701
     28 H           9.2549   -6.5060   27.4240 H       1  UNL1        0.1497
     29 C           8.2548   -6.7993   29.3239 C.3     1  UNL1        0.0897
     30 C           7.1340   -5.4974   31.2730 C.3     1  UNL1        0.0018
     31 C           8.3287   -5.7628   30.4057 C.3     1  UNL1        0.0213
@<TRIPOS>BOND
     1    30    31    1
     2    31    29    1
     3    29    25    1
     4    25    26   am
     5    26    27    2
     6    26    19    1
     7    19    20   ar
     8    20    21   ar
     9    21    22   ar
    10    22    18    1
    11    18     1    1
    12     1     2    1
    13     1     3   am
    14     3     4    2
    15     3     5    1
    16     5     6   ar
    17     6     7   ar
    18     7    15    1
    19    15    16    1
    20    15    17    1
    21     7     8   ar
    22     8     9    1
    23     8    10   ar
    24    10    11   ar
    25    11    12    1
    26    22    23   ar
    27    23    24   ar
    28    24    19   ar
    29    11     5   ar
    30    25    28    1
    31     9    13    1
    32    12    14    1
@<TRIPOS>MOLECULE
*****
 31 32 0 0 0
SMALL
GASTEIGER

@<TRIPOS>ATOM
      1 N           1.8630    1.7763   20.6267 N.am    1  UNL1       -0.2701
      2 C           3.3179    2.1311   20.7124 C.3     1  UNL1        0.1155
      3 C           1.4270    0.3515   20.8001 C.2     1  UNL1        0.2522
      4 O          -0.0279   -0.0033   20.7145 O.2     1  UNL1       -0.2698
      5 C           2.4459   -0.7184   21.0591 C.ar    1  UNL1        0.0871
      6 C           2.9447   -1.5686   19.9284 C.ar    1  UNL1        0.0063
      7 C           3.9637   -2.6384   20.1874 C.ar    1  UNL1        0.0115
      8 C           4.4838   -2.8582   21.5770 C.ar    1  UNL1        0.1326
      9 O           5.5027   -3.9281   21.8360 O.3     1  UNL1       -0.5057
     10 C           3.9851   -2.0081   22.7077 C.ar    1  UNL1        0.0730
     11 C           2.9661   -0.9381   22.4487 C.ar    1  UNL1        0.1410
     12 O           2.4673   -0.0880   23.5794 O.3     1  UNL1       -0.5053
     13 H           5.8143   -4.4591   21.1297 H       1  UNL1        0.2922
     14 H           2.7923   -0.2253   24.4475 H       1  UNL1        0.2922
     15 C           4.4624   -3.4886   19.0567 C.3     1  UNL1        0.0253
     16 C           3.9398   -4.8834   18.8799 C.3     1  UNL1        0.0048
     17 C           5.4839   -2.9439   18.1027 C.3     1  UNL1        0.0048
     18 C           0.8441    2.8462   20.3677 C.3     1  UNL1        0.1205
     19 C          -2.5055    3.5196   23.2963 C.ar    1  UNL1        0.0533
     20 C          -2.8001    3.4258   21.8286 C.ar    1  UNL1        0.0042
     21 C          -1.6836    3.2014   20.8524 C.ar    1  UNL1       -0.0025
     22 C          -0.2725    3.0707   21.3439 C.ar    1  UNL1       -0.0023
     23 C           0.0221    3.1644   22.8117 C.ar    1  UNL1       -0.0025
     24 C          -1.0945    3.3889   23.7879 C.ar    1  UNL1        0.0042
     25 N          -3.3323    4.3343   25.6207 N.am    1  UNL1       -0.3009
     26 C          -3.6221    3.7441   24.2725 C.2     1  UNL1        0.2458
     27 O          -5.0284    3.3783   23.9006 O.2     1  UNL1       -0.2701
     28 H          -2.4093    4.5744   25.8649 H       1  UNL1        0.1497
     29 C          -4.4488    4.5588   26.5969 C.3     1  UNL1        0.0897
     30 C          -6.5217    5.8819   25.7586 C.3     1  UNL1        0.0018
     31 C          -5.2459    5.8285   26.5457 C.3     1  UNL1        0.0213
@<TRIPOS>BOND
     1    30    31    1
     2    31    29    1
     3    29    25    1
     4    25    26   am
     5    26    27    2
     6    26    19    1
     7    19    20   ar
     8    20    21   ar
     9    21    22   ar
    10    22    18    1
    11    18     1    1
    12     1     2    1
    13     1     3   am
    14     3     4    2
    15     3     5    1
    16     5     6   ar
    17     6     7   ar
    18     7    15    1
    19    15    16    1
    20    15    17    1
    21     7     8   ar
    22     8     9    1
    23     8    10   ar
    24    10    11   ar
    25    11    12    1
    26    22    23   ar
    27    23    24   ar
    28    24    19   ar
    29    11     5   ar
    30    25    28    1
    31     9    13    1
    32    12    14    1
@<TRIPOS>MOLECULE
*****
 31 32 0 0 0
SMALL
GASTEIGER

@<TRIPOS>ATOM
      1 N           1.6627    1.1457   28.7904 N.am    1  UNL1       -0.2701
      2 C           2.4117    2.3307   28.2568 C.3     1  UNL1        0.1155
      3 C           0.3561    0.7440   28.1726 C.2     1  UNL1        0.2522
      4 O          -0.3928   -0.4411   28.7062 O.2     1  UNL1       -0.2698
      5 C          -0.2014    1.5273   27.0214 C.ar    1  UNL1        0.0871
      6 C          -1.3128    2.5085   27.2500 C.ar    1  UNL1        0.0063
      7 C          -1.8703    3.2919   26.0988 C.ar    1  UNL1        0.0115
      8 C          -1.3166    3.0941   24.7188 C.ar    1  UNL1        0.1326
      9 O          -1.8741    3.8775   23.5676 O.3     1  UNL1       -0.5057
     10 C          -0.2053    2.1129   24.4901 C.ar    1  UNL1        0.0730
     11 C           0.3523    1.3295   25.6414 C.ar    1  UNL1        0.1410
     12 O           1.4636    0.3484   25.4127 O.3     1  UNL1       -0.5053
     13 H          -2.5683    4.4904   23.7104 H       1  UNL1        0.2922
     14 H           1.8095    0.2248   24.5507 H       1  UNL1        0.2922
     15 C          -2.9816    4.2731   26.3275 C.3     1  UNL1        0.0253
     16 C          -2.6744    5.6467   26.8459 C.3     1  UNL1        0.0048
     17 C          -4.4001    3.8806   26.0377 C.3     1  UNL1        0.0048
     18 C           2.2203    0.3623   29.9416 C.3     1  UNL1        0.1205
     19 C           2.4095    2.2115   34.0398 C.ar    1  UNL1        0.0533
     20 C           3.3521    1.1040   33.6725 C.ar    1  UNL1        0.0042
     21 C           3.2890    0.4876   32.3064 C.ar    1  UNL1       -0.0025
     22 C           2.2834    0.9787   31.3077 C.ar    1  UNL1       -0.0023
     23 C           1.3408    2.0862   31.6750 C.ar    1  UNL1       -0.0025
     24 C           1.4038    2.7026   33.0411 C.ar    1  UNL1        0.0042
     25 N           2.4496    1.9540   36.6248 N.am    1  UNL1       -0.3009
     26 C           2.4726    2.8278   35.4059 C.2     1  UNL1        0.2458
     27 O           2.5586    4.3181   35.5530 O.2     1  UNL1       -0.2701
     28 H           2.3932    0.9758   36.5282 H       1  UNL1        0.1497
     29 C           2.5127    2.5703   37.9908 C.3     1  UNL1        0.0897
     30 C           0.9665    1.0298   39.4002 C.3     1  UNL1        0.0018
     31 C           1.3663    2.4015   38.9434 C.3     1  UNL1        0.0213
@<TRIPOS>BOND
     1    30    31    1
     2    31    29    1
     3    29    25    1
     4    25    26   am
     5    26    27    2
     6    26    19    1
     7    19    20   ar
     8    20    21   ar
     9    21    22   ar
    10    22    18    1
    11    18     1    1
    12     1     2    1
    13     1     3   am
    14     3     4    2
    15     3     5    1
    16     5     6   ar
    17     6     7   ar
    18     7    15    1
    19    15    16    1
    20    15    17    1
    21     7     8   ar
    22     8     9    1
    23     8    10   ar
    24    10    11   ar
    25    11    12    1
    26    22    23   ar
    27    23    24   ar
    28    24    19   ar
    29    11     5   ar
    30    25    28    1
    31     9    13    1
    32    12    14    1
@<TRIPOS>MOLECULE
*****
 31 32 0 0 0
SMALL
GASTEIGER

@<TRIPOS>ATOM
      1 N           3.2221    2.0304   18.6540 N.am    1  UNL1       -0.2701
      2 C           4.5824    2.3129   19.2195 C.3     1  UNL1        0.1155
      3 C           2.7740    0.6134   18.4504 C.2     1  UNL1        0.2522
      4 O           1.4137    0.3309   17.8849 O.2     1  UNL1       -0.2698
      5 C           3.6862   -0.5210   18.8122 C.ar    1  UNL1        0.0871
      6 C           4.0839   -0.7367   20.2424 C.ar    1  UNL1        0.0063
      7 C           4.9961   -1.8712   20.6042 C.ar    1  UNL1        0.0115
      8 C           5.5105   -2.7899   19.5360 C.ar    1  UNL1        0.1326
      9 O           6.4227   -3.9244   19.8978 O.3     1  UNL1       -0.5057
     10 C           5.1128   -2.5743   18.1059 C.ar    1  UNL1        0.0730
     11 C           4.2006   -1.4398   17.7439 C.ar    1  UNL1        0.1410
     12 O           3.8029   -1.2241   16.3138 O.3     1  UNL1       -0.5053
     13 H           6.6712   -4.0591   20.7912 H       1  UNL1        0.2922
     14 H           4.1243   -1.7981   15.6465 H       1  UNL1        0.2922
     15 C           5.3938   -2.0868   22.0343 C.3     1  UNL1        0.0253
     16 C           6.7034   -1.5555   22.5369 C.3     1  UNL1        0.0048
     17 C           4.4819   -2.8338   22.9620 C.3     1  UNL1        0.0048
     18 C           2.3100    3.1648   18.2921 C.3     1  UNL1        0.1205
     19 C          -1.8489    3.3412   20.0017 C.ar    1  UNL1        0.0533
     20 C          -0.7069    2.8728   20.8540 C.ar    1  UNL1        0.0042
     21 C           0.6794    2.8141   20.2841 C.ar    1  UNL1       -0.0025
     22 C           0.9237    3.2236   18.8620 C.ar    1  UNL1       -0.0023
     23 C          -0.2183    3.6920   18.0097 C.ar    1  UNL1       -0.0025
     24 C          -1.6046    3.7507   18.5796 C.ar    1  UNL1        0.0042
     25 N          -3.4462    3.2450   22.0485 N.am    1  UNL1       -0.3009
     26 C          -3.2352    3.4000   20.5716 C.2     1  UNL1        0.2458
     27 O          -4.4105    3.6137   19.6645 O.2     1  UNL1       -0.2701
     28 H          -2.6747    3.1047   22.6439 H       1  UNL1        0.1497
     29 C          -4.8324    3.3037   22.6184 C.3     1  UNL1        0.0897
     30 C          -5.6540    4.2803   24.8815 C.3     1  UNL1        0.0018
     31 C          -5.0425    3.1579   24.0965 C.3     1  UNL1        0.0213
@<TRIPOS>BOND
     1    30    31    1
     2    31    29    1
     3    29    25    1
     4    25    26   am
     5    26    27    2
     6    26    19    1
     7    19    20   ar
     8    20    21   ar
     9    21    22   ar
    10    22    18    1
    11    18     1    1
    12     1     2    1
    13     1     3   am
    14     3     4    2
    15     3     5    1
    16     5     6   ar
    17     6     7   ar
    18     7    15    1
    19    15    16    1
    20    15    17    1
    21     7     8   ar
    22     8     9    1
    23     8    10   ar
    24    10    11   ar
    25    11    12    1
    26    22    23   ar
    27    23    24   ar
    28    24    19   ar
    29    11     5   ar
    30    25    28    1
    31     9    13    1
    32    12    14    1
@<TRIPOS>MOLECULE
*****
 31 32 0 0 0
SMALL
GASTEIGER

@<TRIPOS>ATOM
      1 N           6.7656   -3.8494   23.3132 N.am    1  UNL1       -0.2701
      2 C           5.7696   -2.8941   23.9008 C.3     1  UNL1        0.1155
      3 C           6.8667   -4.0061   21.8248 C.2     1  UNL1        0.2522
      4 O           7.8628   -4.9615   21.2372 O.2     1  UNL1       -0.2698
      5 C           5.9718   -3.2076   20.9240 C.ar    1  UNL1        0.0871
      6 C           6.4712   -1.9344   20.3077 C.ar    1  UNL1        0.0063
      7 C           5.5763   -1.1358   19.4069 C.ar    1  UNL1        0.0115
      8 C           4.1820   -1.6103   19.1225 C.ar    1  UNL1        0.1326
      9 O           3.2871   -0.8117   18.2218 O.3     1  UNL1       -0.5057
     10 C           3.6826   -2.8834   19.7388 C.ar    1  UNL1        0.0730
     11 C           4.5776   -3.6820   20.6396 C.ar    1  UNL1        0.1410
     12 O           4.0782   -4.9551   21.2559 O.3     1  UNL1       -0.5053
     13 H           3.5990   -0.0164   17.8368 H       1  UNL1        0.2922
     14 H           3.2072   -5.2515   21.0783 H       1  UNL1        0.2922
     15 C           6.0757    0.1372   18.7906 C.3     1  UNL1        0.0253
     16 C           5.8356    1.4483   19.4788 C.3     1  UNL1        0.0048
     17 C           6.8151    0.0993   17.4861 C.3     1  UNL1        0.0048
     18 C           7.6605   -4.6480   24.2139 C.3     1  UNL1        0.1205
     19 C           7.0090   -4.5828   28.6660 C.ar    1  UNL1        0.0533
     20 C           6.4144   -5.6824   27.8371 C.ar    1  UNL1        0.0042
     21 C           6.6316   -5.7042   26.3530 C.ar    1  UNL1       -0.0025
     22 C           7.4433   -4.6263   25.6980 C.ar    1  UNL1       -0.0023
     23 C           8.0379   -3.5266   26.5269 C.ar    1  UNL1       -0.0025
     24 C           7.8207   -3.5049   28.0110 C.ar    1  UNL1        0.0042
     25 N           6.4096   -3.2817   30.8334 N.am    1  UNL1       -0.3009
     26 C           6.7918   -4.5610   30.1501 C.2     1  UNL1        0.2458
     27 O           6.9569   -5.8187   30.9507 O.2     1  UNL1       -0.2701
     28 H           6.3013   -2.4562   30.3080 H       1  UNL1        0.1497
     29 C           6.1924   -3.2599   32.3175 C.3     1  UNL1        0.0897
     30 C           4.4246   -1.3585   32.4156 C.3     1  UNL1        0.0018
     31 C           4.9226   -2.6946   32.8814 C.3     1  UNL1        0.0213
@<TRIPOS>BOND
     1    30    31    1
     2    31    29    1
     3    29    25    1
     4    25    26   am
     5    26    27    2
     6    26    19    1
     7    19    20   ar
     8    20    21   ar
     9    21    22   ar
    10    22    18    1
    11    18     1    1
    12     1     2    1
    13     1     3   am
    14     3     4    2
    15     3     5    1
    16     5     6   ar
    17     6     7   ar
    18     7    15    1
    19    15    16    1
    20    15    17    1
    21     7     8   ar
    22     8     9    1
    23     8    10   ar
    24    10    11   ar
    25    11    12    1
    26    22    23   ar
    27    23    24   ar
    28    24    19   ar
    29    11     5   ar
    30    25    28    1
    31     9    13    1
    32    12    14    1
@<TRIPOS>MOLECULE
*****
 31 32 0 0 0
SMALL
GASTEIGER

@<TRIPOS>ATOM
      1 N           1.3447    1.4827   20.2765 N.am    1  UNL1       -0.2701
      2 C           0.6443    0.3596   19.5707 C.3     1  UNL1        0.1155
      3 C           2.8436    1.5335   20.3023 C.2     1  UNL1        0.2522
      4 O           3.5440    2.6566   21.0081 O.2     1  UNL1       -0.2698
      5 C           3.6422    0.4612   19.6223 C.ar    1  UNL1        0.0871
      6 C           3.5608   -0.9560   20.1070 C.ar    1  UNL1        0.0063
      7 C           4.3593   -2.0284   19.4270 C.ar    1  UNL1        0.0115
      8 C           5.2392   -1.6835   18.2622 C.ar    1  UNL1        0.1326
      9 O           6.0378   -2.7558   17.5822 O.3     1  UNL1       -0.5057
     10 C           5.3207   -0.2664   17.7774 C.ar    1  UNL1        0.0730
     11 C           4.5221    0.8060   18.4574 C.ar    1  UNL1        0.1410
     12 O           4.6035    2.2231   17.9727 O.3     1  UNL1       -0.5053
     13 H           5.9869   -3.6411   17.8850 H       1  UNL1        0.2922
     14 H           5.1532    2.4385   17.2450 H       1  UNL1        0.2922
     15 C           4.2778   -3.4455   19.9118 C.3     1  UNL1        0.0253
     16 C           5.0214   -3.8595   21.1470 C.3     1  UNL1        0.0048
     17 C           3.4529   -4.4487   19.1614 C.3     1  UNL1        0.0048
     18 C           0.5461    2.5550   20.9565 C.3     1  UNL1        0.1205
     19 C          -0.4932    2.1631   25.3173 C.ar    1  UNL1        0.0533
     20 C           0.5498    1.2712   24.7117 C.ar    1  UNL1        0.0042
     21 C           0.8962    1.4019   23.2581 C.ar    1  UNL1       -0.0025
     22 C           0.1997    2.4244   22.4101 C.ar    1  UNL1       -0.0023
     23 C          -0.8433    3.3162   23.0156 C.ar    1  UNL1       -0.0025
     24 C          -1.1898    3.1856   24.4692 C.ar    1  UNL1        0.0042
     25 N           0.1075    1.3446   27.7087 N.am    1  UNL1       -0.3009
     26 C          -0.8397    2.0324   26.7708 C.2     1  UNL1        0.2458
     27 O          -2.1334    2.5895   27.2865 O.2     1  UNL1       -0.2701
     28 H           0.9566    0.9789   27.3703 H       1  UNL1        0.1497
     29 C          -0.2390    1.2139   29.1623 C.3     1  UNL1        0.0897
     30 C           0.6362    2.1800   31.4097 C.3     1  UNL1        0.0018
     31 C           0.8378    1.3137   30.2019 C.3     1  UNL1        0.0213
@<TRIPOS>BOND
     1    30    31    1
     2    31    29    1
     3    29    25    1
     4    25    26   am
     5    26    27    2
     6    26    19    1
     7    19    20   ar
     8    20    21   ar
     9    21    22   ar
    10    22    18    1
    11    18     1    1
    12     1     2    1
    13     1     3   am
    14     3     4    2
    15     3     5    1
    16     5     6   ar
    17     6     7   ar
    18     7    15    1
    19    15    16    1
    20    15    17    1
    21     7     8   ar
    22     8     9    1
    23     8    10   ar
    24    10    11   ar
    25    11    12    1
    26    22    23   ar
    27    23    24   ar
    28    24    19   ar
    29    11     5   ar
    30    25    28    1
    31     9    13    1
    32    12    14    1
