@<TRIPOS>MOLECULE
*****
 43 47 0 0 0
SMALL
GASTEIGER

@<TRIPOS>ATOM
      1 C           5.1065   -1.0380   32.6221 C.ar    1  UNL1       -0.0052
      2 C           6.0125   -1.2989   33.7888 C.ar    1  UNL1       -0.0029
      3 C           5.8430   -0.5192   35.0590 C.ar    1  UNL1       -0.0006
      4 C           4.7676    0.5212   35.1626 C.ar    1  UNL1       -0.0041
      5 C           3.8615    0.7821   33.9959 C.ar    1  UNL1       -0.0231
      6 C           4.0310    0.0025   32.7257 C.ar    1  UNL1       -0.0085
      7 C           3.1250    0.2633   31.5590 C.3     1  UNL1        0.1211
      8 N           2.0496    1.3038   31.6626 N.am    1  UNL1       -0.2598
      9 C           1.1435    1.5647   30.4959 C.2     1  UNL1        0.3041
     10 O           0.0681    2.6051   30.5995 O.2     1  UNL1       -0.2526
     11 N           1.3130    0.7850   29.2257 N.am    1  UNL1       -0.2919
     12 C           1.8801    2.0834   32.9328 C.3     1  UNL1        0.0999
     13 C           2.7861    1.8226   34.0994 C.3     1  UNL1        0.0476
     14 H           2.0189    0.1021   29.1577 H       1  UNL1        0.1508
     15 C           4.5981    1.3009   36.4328 C.ar    1  UNL1        0.0027
     16 C           5.4523    2.5063   36.6926 C.ar    1  UNL1        0.0002
     17 C           5.2828    3.2859   37.9628 C.ar    1  UNL1        0.0031
     18 C           4.2592    2.8601   38.9732 C.ar    1  UNL1        0.0372
     19 C           3.4050    1.6548   38.7134 C.ar    1  UNL1        0.1468
     20 C           3.5745    0.8751   37.4432 C.ar    1  UNL1        0.0372
     21 O           2.3814    1.2290   39.7238 O.3     1  UNL1       -0.4045
     22 C           0.9458    1.0737   39.3175 C.3     1  UNL1        0.5753
     23 F          -0.4897    0.9185   38.9111 F       1  UNL1       -0.1328
     24 F           0.8855    2.5325   38.9734 F       1  UNL1       -0.1328
     25 F           1.0062   -0.3850   39.6615 F       1  UNL1       -0.1328
     26 C           0.4070    1.0459   28.0590 C.3     1  UNL1        0.0583
     27 C           1.3770    2.0619   27.5329 C.3     1  UNL1        0.0197
     28 C          -0.5630    0.0298   28.5851 C.3     1  UNL1        0.0197
     29 C          -0.4991    1.3067   26.8923 C.3     1  UNL1        0.0197
     30 C           5.2760   -1.8177   31.3519 C.3     1  UNL1        0.1161
     31 C           6.6511   -3.6543   30.1329 C.2     1  UNL1        0.2227
     32 O           6.6173   -2.8427   28.8719 O.2     1  UNL1       -0.2751
     33 N           5.9804   -3.1418   31.3729 N.am    1  UNL1       -0.3004
     34 H           6.0026   -3.6744   32.2006 H       1  UNL1        0.1497
     35 C           7.8602   -6.1930   29.4328 C.3     1  UNL1        0.0883
     36 C           8.0710   -6.0574   30.9117 C.3     1  UNL1        0.0194
     37 C           7.3555   -4.9785   30.1540 C.3     1  UNL1        0.0858
     38 C           8.2756   -7.4273   24.3157 C.3     1  UNL1        0.0773
     39 C           8.2208   -7.5399   25.8104 C.ar    1  UNL1        0.1809
     40 N           8.3613   -8.8043   26.6051 N.ar    1  UNL1       -0.0606
     41 O           8.2433   -8.4537   28.0588 O.2     1  UNL1       -0.3374
     42 C           8.0299   -6.9725   28.1625 C.ar    1  UNL1        0.2363
     43 N           8.0160   -6.4078   26.7730 N.ar    1  UNL1       -0.1949
@<TRIPOS>BOND
     1    38    39    1
     2    39    40   ar
     3    40    41   ar
     4    41    42   ar
     5    35    42    1
     6    35    36    1
     7    36    37    1
     8    37    31    1
     9    31    32    2
    10    31    33   am
    11    33    30    1
    12    30     1    1
    13     1     2   ar
    14     2     3   ar
    15     3     4   ar
    16     4    15    1
    17    15    16   ar
    18    16    17   ar
    19    17    18   ar
    20    18    19   ar
    21    19    21    1
    22    21    22    1
    23    22    23    1
    24    22    24    1
    25    22    25    1
    26    19    20   ar
    27     4     5   ar
    28     5     6   ar
    29     6     7    1
    30     7     8    1
    31     8     9   am
    32     9    10    2
    33     9    11   am
    34    11    26    1
    35    26    27    1
    36    26    28    1
    37    26    29    1
    38     8    12    1
    39    12    13    1
    40    42    43   ar
    41    43    39   ar
    42    37    35    1
    43     6     1   ar
    44    20    15   ar
    45    13     5    1
    46    33    34    1
    47    11    14    1
@<TRIPOS>MOLECULE
*****
 43 47 0 0 0
SMALL
GASTEIGER

@<TRIPOS>ATOM
      1 C           1.7142    0.5988   23.2145 C.ar    1  UNL1       -0.0052
      2 C           2.6965   -0.4485   23.6482 C.ar    1  UNL1       -0.0029
      3 C           3.4293   -1.2605   22.6216 C.ar    1  UNL1       -0.0006
      4 C           3.1797   -1.0252   21.1614 C.ar    1  UNL1       -0.0041
      5 C           2.1973    0.0222   20.7277 C.ar    1  UNL1       -0.0231
      6 C           1.4646    0.8342   21.7542 C.ar    1  UNL1       -0.0085
      7 C           0.4823    1.8815   21.3206 C.3     1  UNL1        0.1211
      8 N           0.2327    2.1169   19.8603 N.am    1  UNL1       -0.2598
      9 C          -0.7496    3.1642   19.4266 C.2     1  UNL1        0.3041
     10 O          -0.9992    3.3996   17.9664 O.2     1  UNL1       -0.2526
     11 N          -1.4823    3.9762   20.4531 N.am    1  UNL1       -0.2919
     12 C           0.9654    1.3049   18.8338 C.3     1  UNL1        0.0999
     13 C           1.9477    0.2575   19.2675 C.3     1  UNL1        0.0476
     14 H          -1.3185    3.8218   21.4115 H       1  UNL1        0.1508
     15 C           3.9124   -1.8372   20.1349 C.ar    1  UNL1        0.0027
     16 C           3.6487   -3.3090   20.0150 C.ar    1  UNL1        0.0002
     17 C           4.3814   -4.1210   18.9884 C.ar    1  UNL1        0.0031
     18 C           5.3778   -3.4612   18.0818 C.ar    1  UNL1        0.0372
     19 C           5.6414   -1.9895   18.2017 C.ar    1  UNL1        0.1468
     20 C           4.9087   -1.1775   19.2283 C.ar    1  UNL1        0.0372
     21 O           6.6378   -1.3296   17.2951 O.3     1  UNL1       -0.4045
     22 C           6.7010    0.1668   17.2127 C.3     1  UNL1        0.5753
     23 F           6.7641    1.6632   17.1302 F       1  UNL1       -0.1328
     24 F           5.4499    0.1740   16.3852 F       1  UNL1       -0.1328
     25 F           7.9521    0.1596   18.0401 F       1  UNL1       -0.1328
     26 C          -2.4647    5.0236   20.0195 C.3     1  UNL1        0.0583
     27 C          -1.3723    6.0515   20.0275 C.3     1  UNL1        0.0197
     28 C          -3.5570    3.9957   20.0114 C.3     1  UNL1        0.0197
     29 C          -3.4470    6.0709   19.5858 C.3     1  UNL1        0.0197
     30 C           0.9815    1.4108   24.2411 C.3     1  UNL1        0.1161
     31 C          -0.3866    1.3846   26.4496 C.2     1  UNL1        0.2227
     32 O          -1.2504    2.4942   25.9277 O.2     1  UNL1       -0.2751
     33 N           0.7294    0.8429   25.6062 N.am    1  UNL1       -0.3004
     34 H           1.2964    0.1145   25.9488 H       1  UNL1        0.1497
     35 C          -0.1396    0.4452   29.1797 C.3     1  UNL1        0.0883
     36 C          -1.5743    0.2041   28.8145 C.3     1  UNL1        0.0194
     37 C          -0.6387    0.8166   27.8148 C.3     1  UNL1        0.0858
     38 C           4.2195   -1.0910   31.7328 C.3     1  UNL1        0.0773
     39 C           2.9806   -0.3361   31.3522 C.ar    1  UNL1        0.1809
     40 N           2.4094    0.8449   32.0795 N.ar    1  UNL1       -0.0606
     41 O           1.1710    1.2814   31.3543 O.2     1  UNL1       -0.3374
     42 C           0.9769    0.3701   30.1787 C.ar    1  UNL1        0.2363
     43 N           2.0952   -0.6295   30.1774 N.ar    1  UNL1       -0.1949
@<TRIPOS>BOND
     1    38    39    1
     2    39    40   ar
     3    40    41   ar
     4    41    42   ar
     5    35    42    1
     6    35    36    1
     7    36    37    1
     8    37    31    1
     9    31    32    2
    10    31    33   am
    11    33    30    1
    12    30     1    1
    13     1     2   ar
    14     2     3   ar
    15     3     4   ar
    16     4    15    1
    17    15    16   ar
    18    16    17   ar
    19    17    18   ar
    20    18    19   ar
    21    19    21    1
    22    21    22    1
    23    22    23    1
    24    22    24    1
    25    22    25    1
    26    19    20   ar
    27     4     5   ar
    28     5     6   ar
    29     6     7    1
    30     7     8    1
    31     8     9   am
    32     9    10    2
    33     9    11   am
    34    11    26    1
    35    26    27    1
    36    26    28    1
    37    26    29    1
    38     8    12    1
    39    12    13    1
    40    42    43   ar
    41    43    39   ar
    42    37    35    1
    43     6     1   ar
    44    20    15   ar
    45    13     5    1
    46    33    34    1
    47    11    14    1
@<TRIPOS>MOLECULE
*****
 43 47 0 0 0
SMALL
GASTEIGER

@<TRIPOS>ATOM
      1 C           1.2603    0.6060   22.9410 C.ar    1  UNL1       -0.0052
      2 C           0.8287    0.4848   21.5096 C.ar    1  UNL1       -0.0029
      3 C           1.6491   -0.3184   20.5443 C.ar    1  UNL1       -0.0006
      4 C           2.9010   -1.0005   21.0104 C.ar    1  UNL1       -0.0041
      5 C           3.3327   -0.8794   22.4419 C.ar    1  UNL1       -0.0231
      6 C           2.5123   -0.0761   23.4072 C.ar    1  UNL1       -0.0085
      7 C           2.9439    0.0451   24.8386 C.3     1  UNL1        0.1211
      8 N           4.1959   -0.6370   25.3047 N.am    1  UNL1       -0.2598
      9 C           4.6275   -0.5159   26.7362 C.2     1  UNL1        0.3041
     10 O           5.8795   -1.1980   27.2024 O.2     1  UNL1       -0.2526
     11 N           3.8071    0.2874   27.7015 N.am    1  UNL1       -0.2919
     12 C           5.0162   -1.4403   24.3395 C.3     1  UNL1        0.0999
     13 C           4.5846   -1.5614   22.9080 C.3     1  UNL1        0.0476
     14 H           2.9854    0.7351   27.3956 H       1  UNL1        0.1508
     15 C           3.7214   -1.8038   20.0451 C.ar    1  UNL1        0.0027
     16 C           3.5405   -3.2906   19.9632 C.ar    1  UNL1        0.0002
     17 C           4.3609   -4.0938   18.9979 C.ar    1  UNL1        0.0031
     18 C           5.3621   -3.4103   18.1146 C.ar    1  UNL1        0.0372
     19 C           5.5430   -1.9235   18.1966 C.ar    1  UNL1        0.1468
     20 C           4.7227   -1.1202   19.1618 C.ar    1  UNL1        0.0372
     21 O           6.5443   -1.2399   17.3132 O.3     1  UNL1       -0.4045
     22 C           6.4106    0.2255   17.0221 C.3     1  UNL1        0.5753
     23 F           6.2769    1.6909   16.7310 F       1  UNL1       -0.1328
     24 F           7.7040    0.4853   17.7360 F       1  UNL1       -0.1328
     25 F           5.1172   -0.0343   16.3083 F       1  UNL1       -0.1328
     26 C           4.2387    0.4085   29.1329 C.3     1  UNL1        0.0583
     27 C           5.1771    1.5164   28.7562 C.3     1  UNL1        0.0197
     28 C           3.3003   -0.6993   29.5097 C.3     1  UNL1        0.0197
     29 C           4.6703    0.5297   30.5645 C.3     1  UNL1        0.0197
     30 C           0.4399    1.4092   23.9063 C.3     1  UNL1        0.1161
     31 C          -0.6005    1.6995   26.2692 C.2     1  UNL1        0.2227
     32 O          -1.3910    2.8754   25.7767 O.2     1  UNL1       -0.2751
     33 N           0.3149    0.9665   25.3340 N.am    1  UNL1       -0.3004
     34 H           0.8338    0.1948   25.6572 H       1  UNL1        0.1497
     35 C          -0.2657    1.3248   29.1231 C.3     1  UNL1        0.0883
     36 C          -1.4016    0.4217   28.7436 C.3     1  UNL1        0.0194
     37 C          -0.7254    1.2567   27.6969 C.3     1  UNL1        0.0858
     38 C           2.0794    2.2982   33.7527 C.3     1  UNL1        0.0773
     39 C           1.7335    2.3330   32.2936 C.ar    1  UNL1        0.1809
     40 N           2.4131    3.1640   31.2460 N.ar    1  UNL1       -0.0606
     41 O           1.7470    2.8876   29.9307 O.2     1  UNL1       -0.3374
     42 C           0.6556    1.8856   30.1655 C.ar    1  UNL1        0.2363
     43 N           0.6473    1.5429   31.6258 N.ar    1  UNL1       -0.1949
@<TRIPOS>BOND
     1    38    39    1
     2    39    40   ar
     3    40    41   ar
     4    41    42   ar
     5    35    42    1
     6    35    36    1
     7    36    37    1
     8    37    31    1
     9    31    32    2
    10    31    33   am
    11    33    30    1
    12    30     1    1
    13     1     2   ar
    14     2     3   ar
    15     3     4   ar
    16     4    15    1
    17    15    16   ar
    18    16    17   ar
    19    17    18   ar
    20    18    19   ar
    21    19    21    1
    22    21    22    1
    23    22    23    1
    24    22    24    1
    25    22    25    1
    26    19    20   ar
    27     4     5   ar
    28     5     6   ar
    29     6     7    1
    30     7     8    1
    31     8     9   am
    32     9    10    2
    33     9    11   am
    34    11    26    1
    35    26    27    1
    36    26    28    1
    37    26    29    1
    38     8    12    1
    39    12    13    1
    40    42    43   ar
    41    43    39   ar
    42    37    35    1
    43     6     1   ar
    44    20    15   ar
    45    13     5    1
    46    33    34    1
    47    11    14    1
@<TRIPOS>MOLECULE
*****
 43 47 0 0 0
SMALL
GASTEIGER

@<TRIPOS>ATOM
      1 C           0.6557    1.7904   20.3750 C.ar    1  UNL1       -0.0052
      2 C           0.8167    1.3973   18.9364 C.ar    1  UNL1       -0.0029
      3 C           1.7029    0.2443   18.5686 C.ar    1  UNL1       -0.0006
      4 C           2.4281   -0.5156   19.6394 C.ar    1  UNL1       -0.0041
      5 C           2.2671   -0.1225   21.0780 C.ar    1  UNL1       -0.0231
      6 C           1.3809    1.0305   21.4458 C.ar    1  UNL1       -0.0085
      7 C           1.2200    1.4236   22.8844 C.3     1  UNL1        0.1211
      8 N           1.9452    0.6637   23.9551 N.am    1  UNL1       -0.2598
      9 C           1.7842    1.0567   25.3938 C.2     1  UNL1        0.3041
     10 O           2.5094    0.2968   26.4646 O.2     1  UNL1       -0.2526
     11 N           0.8980    2.2097   25.7616 N.am    1  UNL1       -0.2919
     12 C           2.8313   -0.4893   23.5873 C.3     1  UNL1        0.0999
     13 C           2.9923   -0.8824   22.1488 C.3     1  UNL1        0.0476
     14 H           0.4220    2.7085   25.0588 H       1  UNL1        0.1508
     15 C           3.3143   -1.6686   19.2716 C.ar    1  UNL1        0.0027
     16 C           2.8362   -3.0761   19.4731 C.ar    1  UNL1        0.0002
     17 C           3.7223   -4.2291   19.1053 C.ar    1  UNL1        0.0031
     18 C           5.0866   -3.9746   18.5359 C.ar    1  UNL1        0.0372
     19 C           5.5647   -2.5672   18.3345 C.ar    1  UNL1        0.1468
     20 C           4.6785   -1.4142   18.7023 C.ar    1  UNL1        0.0372
     21 O           6.9290   -2.3127   17.7652 O.3     1  UNL1       -0.4045
     22 C           7.9573   -1.5845   18.5789 C.3     1  UNL1        0.5753
     23 F           8.9857   -0.8564   19.3927 F       1  UNL1       -0.1328
     24 F           7.6500   -0.3189   17.8348 F       1  UNL1       -0.1328
     25 F           8.2646   -2.8502   19.3231 F       1  UNL1       -0.1328
     26 C           0.7370    2.6028   27.2002 C.3     1  UNL1        0.0583
     27 C          -0.4443    1.6862   27.3184 C.3     1  UNL1        0.0197
     28 C           1.9184    3.5195   27.0819 C.3     1  UNL1        0.0197
     29 C           0.5761    2.9960   28.6388 C.3     1  UNL1        0.0197
     30 C          -0.2305    2.9434   20.7428 C.3     1  UNL1        0.1161
     31 C          -2.6443    3.8547   20.4381 C.2     1  UNL1        0.2227
     32 O          -2.0900    5.1570   19.9415 O.2     1  UNL1       -0.2751
     33 N          -1.7145    2.7479   20.8387 N.am    1  UNL1       -0.3004
     34 H          -2.0784    1.8931   21.1646 H       1  UNL1        0.1497
     35 C          -5.4087    3.7891   21.3047 C.3     1  UNL1        0.0883
     36 C          -5.4187    3.1904   19.9295 C.3     1  UNL1        0.0194
     37 C          -4.1284    3.6591   20.5340 C.3     1  UNL1        0.0858
     38 C          -9.1970    5.4989   24.5613 C.3     1  UNL1        0.0773
     39 C          -7.8834    4.9959   24.0406 C.ar    1  UNL1        0.1809
     40 N          -6.6579    4.7191   24.8600 N.ar    1  UNL1       -0.0606
     41 O          -5.5816    4.2334   23.9349 O.2     1  UNL1       -0.3374
     42 C          -6.1421    4.2099   22.5437 C.ar    1  UNL1        0.2363
     43 N          -7.5646    4.6812   22.6090 N.ar    1  UNL1       -0.1949
@<TRIPOS>BOND
     1    38    39    1
     2    39    40   ar
     3    40    41   ar
     4    41    42   ar
     5    35    42    1
     6    35    36    1
     7    36    37    1
     8    37    31    1
     9    31    32    2
    10    31    33   am
    11    33    30    1
    12    30     1    1
    13     1     2   ar
    14     2     3   ar
    15     3     4   ar
    16     4    15    1
    17    15    16   ar
    18    16    17   ar
    19    17    18   ar
    20    18    19   ar
    21    19    21    1
    22    21    22    1
    23    22    23    1
    24    22    24    1
    25    22    25    1
    26    19    20   ar
    27     4     5   ar
    28     5     6   ar
    29     6     7    1
    30     7     8    1
    31     8     9   am
    32     9    10    2
    33     9    11   am
    34    11    26    1
    35    26    27    1
    36    26    28    1
    37    26    29    1
    38     8    12    1
    39    12    13    1
    40    42    43   ar
    41    43    39   ar
    42    37    35    1
    43     6     1   ar
    44    20    15   ar
    45    13     5    1
    46    33    34    1
    47    11    14    1
@<TRIPOS>MOLECULE
*****
 43 47 0 0 0
SMALL
GASTEIGER

@<TRIPOS>ATOM
      1 C           1.1765    0.9749   24.3147 C.ar    1  UNL1       -0.0052
      2 C           2.3955    0.1591   24.6286 C.ar    1  UNL1       -0.0029
      3 C           3.2835   -0.3202   23.5187 C.ar    1  UNL1       -0.0006
      4 C           2.9524    0.0163   22.0949 C.ar    1  UNL1       -0.0041
      5 C           1.7334    0.8320   21.7810 C.ar    1  UNL1       -0.0231
      6 C           0.8454    1.3113   22.8908 C.ar    1  UNL1       -0.0085
      7 C          -0.3736    2.1271   22.5769 C.3     1  UNL1        0.1211
      8 N          -0.7046    2.4635   21.1531 N.am    1  UNL1       -0.2598
      9 C          -1.9237    3.2793   20.8392 C.2     1  UNL1        0.3041
     10 O          -2.2547    3.6157   19.4154 O.2     1  UNL1       -0.2526
     11 N          -2.8116    3.7586   21.9490 N.am    1  UNL1       -0.2919
     12 C           0.1834    1.9842   20.0433 C.3     1  UNL1        0.0999
     13 C           1.4024    1.1685   20.3572 C.3     1  UNL1        0.0476
     14 H          -2.5943    3.5377   22.8835 H       1  UNL1        0.1508
     15 C           3.8404   -0.4630   20.9851 C.ar    1  UNL1        0.0027
     16 C           4.9837    0.3886   20.5183 C.ar    1  UNL1        0.0002
     17 C           5.8716   -0.0907   19.4085 C.ar    1  UNL1        0.0031
     18 C           5.6163   -1.4216   18.7653 C.ar    1  UNL1        0.0372
     19 C           4.4731   -2.2732   19.2321 C.ar    1  UNL1        0.1468
     20 C           3.5852   -1.7939   20.3419 C.ar    1  UNL1        0.0372
     21 O           4.2178   -3.6041   18.5890 O.3     1  UNL1       -0.4045
     22 C           3.6926   -4.7449   19.4091 C.3     1  UNL1        0.5753
     23 F           3.1674   -5.8858   20.2293 F       1  UNL1       -0.1328
     24 F           4.9891   -4.8010   20.1614 F       1  UNL1       -0.1328
     25 F           2.3961   -4.6889   18.6568 F       1  UNL1       -0.1328
     26 C          -4.0306    4.5743   21.6351 C.3     1  UNL1        0.0583
     27 C          -4.8441    3.3184   21.5307 C.3     1  UNL1        0.0197
     28 C          -3.2171    5.8302   21.7395 C.3     1  UNL1        0.0197
     29 C          -5.2496    5.3901   21.3212 C.3     1  UNL1        0.0197
     30 C           0.2886    1.4542   25.4245 C.3     1  UNL1        0.1161
     31 C           0.3009    1.3750   28.0213 C.2     1  UNL1        0.2227
     32 O          -0.8818    0.4527   27.9989 O.2     1  UNL1       -0.2751
     33 N           0.8861    1.8757   26.7342 N.am    1  UNL1       -0.3004
     34 H           1.6623    2.4811   26.7489 H       1  UNL1        0.1497
     35 C           1.6880    1.4698   30.5638 C.3     1  UNL1        0.0883
     36 C           1.1440    2.8537   30.3666 C.3     1  UNL1        0.0194
     37 C           0.8985    1.7966   29.3310 C.3     1  UNL1        0.0858
     38 C           4.6811   -0.6468   34.3640 C.3     1  UNL1        0.0773
     39 C           3.8337   -0.4908   33.1363 C.ar    1  UNL1        0.1809
     40 N           3.4517   -1.5848   32.1838 N.ar    1  UNL1       -0.0606
     41 O           2.6014   -0.9836   31.1042 O.2     1  UNL1       -0.3374
     42 C           2.4579    0.4821   31.3895 C.ar    1  UNL1        0.2363
     43 N           3.2195    0.7866   32.6453 N.ar    1  UNL1       -0.1949
@<TRIPOS>BOND
     1    38    39    1
     2    39    40   ar
     3    40    41   ar
     4    41    42   ar
     5    35    42    1
     6    35    36    1
     7    36    37    1
     8    37    31    1
     9    31    32    2
    10    31    33   am
    11    33    30    1
    12    30     1    1
    13     1     2   ar
    14     2     3   ar
    15     3     4   ar
    16     4    15    1
    17    15    16   ar
    18    16    17   ar
    19    17    18   ar
    20    18    19   ar
    21    19    21    1
    22    21    22    1
    23    22    23    1
    24    22    24    1
    25    22    25    1
    26    19    20   ar
    27     4     5   ar
    28     5     6   ar
    29     6     7    1
    30     7     8    1
    31     8     9   am
    32     9    10    2
    33     9    11   am
    34    11    26    1
    35    26    27    1
    36    26    28    1
    37    26    29    1
    38     8    12    1
    39    12    13    1
    40    42    43   ar
    41    43    39   ar
    42    37    35    1
    43     6     1   ar
    44    20    15   ar
    45    13     5    1
    46    33    34    1
    47    11    14    1
@<TRIPOS>MOLECULE
*****
 43 47 0 0 0
SMALL
GASTEIGER

@<TRIPOS>ATOM
      1 C           2.8022    0.2603   31.3618 C.ar    1  UNL1       -0.0052
      2 C           1.9147    1.3229   31.9390 C.ar    1  UNL1       -0.0029
      3 C           2.2569    1.9515   33.2572 C.ar    1  UNL1       -0.0006
      4 C           3.4867    1.5174   33.9983 C.ar    1  UNL1       -0.0041
      5 C           4.3743    0.4548   33.4211 C.ar    1  UNL1       -0.0231
      6 C           4.0320   -0.1738   32.1029 C.ar    1  UNL1       -0.0085
      7 C           4.9195   -1.2364   31.5257 C.3     1  UNL1        0.1211
      8 N           6.1493   -1.6704   32.2668 N.am    1  UNL1       -0.2598
      9 C           7.0369   -2.7331   31.6896 C.2     1  UNL1        0.3041
     10 O           8.2667   -3.1671   32.4307 O.2     1  UNL1       -0.2526
     11 N           6.6946   -3.3617   30.3714 N.am    1  UNL1       -0.2919
     12 C           6.4916   -1.0419   33.5850 C.3     1  UNL1        0.0999
     13 C           5.6041    0.0207   34.1622 C.3     1  UNL1        0.0476
     14 H           5.8875   -3.0768   29.8850 H       1  UNL1        0.1508
     15 C           3.8290    2.1460   35.3165 C.ar    1  UNL1        0.0027
     16 C           4.8046    3.2839   35.3740 C.ar    1  UNL1        0.0002
     17 C           5.1469    3.9125   36.6922 C.ar    1  UNL1        0.0031
     18 C           4.5135    3.4031   37.9530 C.ar    1  UNL1        0.0372
     19 C           3.5379    2.2653   37.8954 C.ar    1  UNL1        0.1468
     20 C           3.1956    1.6367   36.5772 C.ar    1  UNL1        0.0372
     21 O           2.9045    1.7559   39.1562 O.3     1  UNL1       -0.4045
     22 C           1.4260    1.5076   39.2054 C.3     1  UNL1        0.5753
     23 F          -0.0525    1.2593   39.2546 F       1  UNL1       -0.1328
     24 F           1.1737    2.9296   38.8001 F       1  UNL1       -0.1328
     25 F           1.6783    0.0856   39.6107 F       1  UNL1       -0.1328
     26 C           7.5821   -4.4243   29.7942 C.3     1  UNL1        0.0583
     27 C           8.2955   -3.3861   28.9798 C.3     1  UNL1        0.0197
     28 C           6.8688   -5.4624   30.6086 C.3     1  UNL1        0.0197
     29 C           8.4697   -5.4870   29.2171 C.3     1  UNL1        0.0197
     30 C           2.4599   -0.3683   30.0436 C.3     1  UNL1        0.1161
     31 C           0.4024    0.4106   28.6616 C.2     1  UNL1        0.2227
     32 O          -0.4843   -0.4812   29.4792 O.2     1  UNL1       -0.2751
     33 N           1.8745    0.4670   28.9438 N.am    1  UNL1       -0.3004
     34 H           2.4565    1.0524   28.4072 H       1  UNL1        0.1497
     35 C          -0.2149    1.6578   26.1199 C.3     1  UNL1        0.0883
     36 C          -1.1651    2.2810   27.0989 C.3     1  UNL1        0.0194
     37 C          -0.1830    1.2460   27.5618 C.3     1  UNL1        0.0858
     38 C           2.6599    0.1583   21.9524 C.3     1  UNL1        0.0773
     39 C           1.6368    0.8465   22.8065 C.ar    1  UNL1        0.1809
     40 N           0.6259    1.8496   22.3354 N.ar    1  UNL1       -0.0606
     41 O          -0.1909    2.2756   23.5193 O.2     1  UNL1       -0.3374
     42 C           0.3154    1.5358   24.7220 C.ar    1  UNL1        0.2363
     43 N           1.4449    0.6526   24.2814 N.ar    1  UNL1       -0.1949
@<TRIPOS>BOND
     1    38    39    1
     2    39    40   ar
     3    40    41   ar
     4    41    42   ar
     5    35    42    1
     6    35    36    1
     7    36    37    1
     8    37    31    1
     9    31    32    2
    10    31    33   am
    11    33    30    1
    12    30     1    1
    13     1     2   ar
    14     2     3   ar
    15     3     4   ar
    16     4    15    1
    17    15    16   ar
    18    16    17   ar
    19    17    18   ar
    20    18    19   ar
    21    19    21    1
    22    21    22    1
    23    22    23    1
    24    22    24    1
    25    22    25    1
    26    19    20   ar
    27     4     5   ar
    28     5     6   ar
    29     6     7    1
    30     7     8    1
    31     8     9   am
    32     9    10    2
    33     9    11   am
    34    11    26    1
    35    26    27    1
    36    26    28    1
    37    26    29    1
    38     8    12    1
    39    12    13    1
    40    42    43   ar
    41    43    39   ar
    42    37    35    1
    43     6     1   ar
    44    20    15   ar
    45    13     5    1
    46    33    34    1
    47    11    14    1
@<TRIPOS>MOLECULE
*****
 43 47 0 0 0
SMALL
GASTEIGER

@<TRIPOS>ATOM
      1 C           3.9135   -1.1685   24.9611 C.ar    1  UNL1       -0.0052
      2 C           3.1309   -0.6455   23.7933 C.ar    1  UNL1       -0.0029
      3 C           3.3689   -1.2023   22.4210 C.ar    1  UNL1       -0.0006
      4 C           4.3896   -2.2822   22.2165 C.ar    1  UNL1       -0.0041
      5 C           5.1724   -2.8053   23.3843 C.ar    1  UNL1       -0.0231
      6 C           4.9343   -2.2485   24.7566 C.ar    1  UNL1       -0.0085
      7 C           5.7170   -2.7715   25.9244 C.3     1  UNL1        0.1211
      8 N           6.7377   -3.8514   25.7199 N.am    1  UNL1       -0.2598
      9 C           7.5205   -4.3745   26.8877 C.2     1  UNL1        0.3041
     10 O           8.5412   -5.4544   26.6832 O.2     1  UNL1       -0.2526
     11 N           7.2824   -3.8177   28.2600 N.am    1  UNL1       -0.2919
     12 C           6.9758   -4.4083   24.3476 C.3     1  UNL1        0.0999
     13 C           6.1931   -3.8852   23.1798 C.3     1  UNL1        0.0476
     14 H           6.6125   -3.1089   28.3943 H       1  UNL1        0.1508
     15 C           4.6277   -2.8391   20.8442 C.ar    1  UNL1        0.0027
     16 C           4.0512   -4.1709   20.4648 C.ar    1  UNL1        0.0002
     17 C           4.2892   -4.7278   19.0925 C.ar    1  UNL1        0.0031
     18 C           5.1038   -3.9528   18.0995 C.ar    1  UNL1        0.0372
     19 C           5.6802   -2.6210   18.4789 C.ar    1  UNL1        0.1468
     20 C           5.4422   -2.0641   19.8512 C.ar    1  UNL1        0.0372
     21 O           6.4948   -1.8459   17.4859 O.3     1  UNL1       -0.4045
     22 C           6.2864   -0.3681   17.3355 C.3     1  UNL1        0.5753
     23 F           6.0780    1.1097   17.1851 F       1  UNL1       -0.1328
     24 F           4.9092   -0.6172   16.7958 F       1  UNL1       -0.1328
     25 F           7.6636   -0.1190   17.8752 F       1  UNL1       -0.1328
     26 C           8.0651   -4.3407   29.4278 C.3     1  UNL1        0.0583
     27 C           6.9939   -5.3572   29.6905 C.3     1  UNL1        0.0197
     28 C           9.1364   -3.3242   29.1651 C.3     1  UNL1        0.0197
     29 C           8.8479   -4.8638   30.5957 C.3     1  UNL1        0.0197
     30 C           3.6755   -0.6117   26.3334 C.3     1  UNL1        0.1161
     31 C           1.7440   -0.0543   27.9792 C.2     1  UNL1        0.2227
     32 O           2.3706   -0.9402   29.0147 O.2     1  UNL1       -0.2751
     33 N           2.3964    0.1100   26.6385 N.am    1  UNL1       -0.3004
     34 H           1.9851    0.6914   25.9588 H       1  UNL1        0.1497
     35 C          -0.5813    1.6734   27.9054 C.3     1  UNL1        0.0883
     36 C          -0.7046    0.9113   29.1914 C.3     1  UNL1        0.0194
     37 C           0.4648    0.6674   28.2842 C.3     1  UNL1        0.0858
     38 C          -2.2564    6.2368   25.8439 C.3     1  UNL1        0.0773
     39 C          -1.8840    4.7919   25.9966 C.ar    1  UNL1        0.1809
     40 N          -1.9837    3.7386   24.9332 N.ar    1  UNL1       -0.0606
     41 O          -1.5079    2.4422   25.5188 O.2     1  UNL1       -0.3374
     42 C          -1.1140    2.6943   26.9441 C.ar    1  UNL1        0.2363
     43 N          -1.3465    4.1464   27.2394 N.ar    1  UNL1       -0.1949
@<TRIPOS>BOND
     1    38    39    1
     2    39    40   ar
     3    40    41   ar
     4    41    42   ar
     5    35    42    1
     6    35    36    1
     7    36    37    1
     8    37    31    1
     9    31    32    2
    10    31    33   am
    11    33    30    1
    12    30     1    1
    13     1     2   ar
    14     2     3   ar
    15     3     4   ar
    16     4    15    1
    17    15    16   ar
    18    16    17   ar
    19    17    18   ar
    20    18    19   ar
    21    19    21    1
    22    21    22    1
    23    22    23    1
    24    22    24    1
    25    22    25    1
    26    19    20   ar
    27     4     5   ar
    28     5     6   ar
    29     6     7    1
    30     7     8    1
    31     8     9   am
    32     9    10    2
    33     9    11   am
    34    11    26    1
    35    26    27    1
    36    26    28    1
    37    26    29    1
    38     8    12    1
    39    12    13    1
    40    42    43   ar
    41    43    39   ar
    42    37    35    1
    43     6     1   ar
    44    20    15   ar
    45    13     5    1
    46    33    34    1
    47    11    14    1
@<TRIPOS>MOLECULE
*****
 43 47 0 0 0
SMALL
GASTEIGER

@<TRIPOS>ATOM
      1 C           0.9598    1.5177   22.1942 C.ar    1  UNL1       -0.0052
      2 C           0.8227    1.4821   20.7009 C.ar    1  UNL1       -0.0029
      3 C           1.6674    0.5425   19.8924 C.ar    1  UNL1       -0.0006
      4 C           2.6492   -0.3614   20.5771 C.ar    1  UNL1       -0.0041
      5 C           2.7863   -0.3258   22.0705 C.ar    1  UNL1       -0.0231
      6 C           1.9416    0.6137   22.8790 C.ar    1  UNL1       -0.0085
      7 C           2.0787    0.6493   24.3723 C.3     1  UNL1        0.1211
      8 N           3.0605   -0.2546   25.0570 N.am    1  UNL1       -0.2598
      9 C           3.1976   -0.2191   26.5504 C.2     1  UNL1        0.3041
     10 O           4.1794   -1.1230   27.2351 O.2     1  UNL1       -0.2526
     11 N           2.3529    0.7205   27.3589 N.am    1  UNL1       -0.2919
     12 C           3.9052   -1.1942   24.2485 C.3     1  UNL1        0.0999
     13 C           3.7681   -1.2298   22.7552 C.3     1  UNL1        0.0476
     14 H           1.7085    1.3138   26.9095 H       1  UNL1        0.1508
     15 C           3.4939   -1.3010   19.7686 C.ar    1  UNL1        0.0027
     16 C           3.2084   -2.7734   19.7900 C.ar    1  UNL1        0.0002
     17 C           4.0531   -3.7130   18.9815 C.ar    1  UNL1        0.0031
     18 C           5.1833   -3.1800   18.1515 C.ar    1  UNL1        0.0372
     19 C           5.4687   -1.7076   18.1301 C.ar    1  UNL1        0.1468
     20 C           4.6240   -0.7681   18.9387 C.ar    1  UNL1        0.0372
     21 O           6.5989   -1.1747   17.3001 O.3     1  UNL1       -0.4045
     22 C           6.9618    0.2789   17.3723 C.3     1  UNL1        0.5753
     23 F           7.3248    1.7326   17.4445 F       1  UNL1       -0.1328
     24 F           7.8511   -0.0014   18.5473 F       1  UNL1       -0.1328
     25 F           6.0726    0.5593   16.1973 F       1  UNL1       -0.1328
     26 C           2.4900    0.7561   28.8522 C.3     1  UNL1        0.0583
     27 C           1.4013   -0.2682   28.9765 C.3     1  UNL1        0.0197
     28 C           3.5787    1.7804   28.7278 C.3     1  UNL1        0.0197
     29 C           2.6271    0.7917   30.3455 C.3     1  UNL1        0.0197
     30 C           0.1150    2.4572   23.0027 C.3     1  UNL1        0.1161
     31 C          -2.3090    3.2279   23.5318 C.2     1  UNL1        0.2227
     32 O          -1.9724    3.2842   24.9924 O.2     1  UNL1       -0.2751
     33 N          -1.2653    2.8144   22.5370 N.am    1  UNL1       -0.3004
     34 H          -1.4863    2.7775   21.5783 H       1  UNL1        0.1497
     35 C          -4.6740    3.7820   21.9516 C.3     1  UNL1        0.0883
     36 C          -5.0957    4.0069   23.3734 C.3     1  UNL1        0.0194
     37 C          -3.6894    3.5851   23.0659 C.3     1  UNL1        0.0858
     38 C          -4.1705    3.6588   16.6969 C.3     1  UNL1        0.0773
     39 C          -4.7675    3.7092   18.0720 C.ar    1  UNL1        0.1809
     40 N          -6.2307    3.7728   18.3960 N.ar    1  UNL1       -0.0606
     41 O          -6.3738    3.8078   19.8888 O.2     1  UNL1       -0.3374
     42 C          -4.9990    3.7659   20.4873 C.ar    1  UNL1        0.2363
     43 N          -4.0063    3.7050   19.3645 N.ar    1  UNL1       -0.1949
@<TRIPOS>BOND
     1    38    39    1
     2    39    40   ar
     3    40    41   ar
     4    41    42   ar
     5    35    42    1
     6    35    36    1
     7    36    37    1
     8    37    31    1
     9    31    32    2
    10    31    33   am
    11    33    30    1
    12    30     1    1
    13     1     2   ar
    14     2     3   ar
    15     3     4   ar
    16     4    15    1
    17    15    16   ar
    18    16    17   ar
    19    17    18   ar
    20    18    19   ar
    21    19    21    1
    22    21    22    1
    23    22    23    1
    24    22    24    1
    25    22    25    1
    26    19    20   ar
    27     4     5   ar
    28     5     6   ar
    29     6     7    1
    30     7     8    1
    31     8     9   am
    32     9    10    2
    33     9    11   am
    34    11    26    1
    35    26    27    1
    36    26    28    1
    37    26    29    1
    38     8    12    1
    39    12    13    1
    40    42    43   ar
    41    43    39   ar
    42    37    35    1
    43     6     1   ar
    44    20    15   ar
    45    13     5    1
    46    33    34    1
    47    11    14    1
@<TRIPOS>MOLECULE
*****
 43 47 0 0 0
SMALL
GASTEIGER

@<TRIPOS>ATOM
      1 C           0.2461    2.2589   21.6473 C.ar    1  UNL1       -0.0052
      2 C           0.3823    2.2545   20.1535 C.ar    1  UNL1       -0.0029
      3 C           1.4874    1.4758   19.5035 C.ar    1  UNL1       -0.0006
      4 C           2.4562    0.7016   20.3472 C.ar    1  UNL1       -0.0041
      5 C           2.3200    0.7060   21.8410 C.ar    1  UNL1       -0.0231
      6 C           1.2150    1.4847   22.4911 C.ar    1  UNL1       -0.0085
      7 C           1.0788    1.4891   23.9848 C.3     1  UNL1        0.1211
      8 N           2.0476    0.7149   24.8286 N.am    1  UNL1       -0.2598
      9 C           1.9114    0.7194   26.3224 C.2     1  UNL1        0.3041
     10 O           2.8802   -0.0548   27.1661 O.2     1  UNL1       -0.2526
     11 N           0.8064    1.4980   26.9725 N.am    1  UNL1       -0.2919
     12 C           3.1526   -0.0637   24.1785 C.3     1  UNL1        0.0999
     13 C           3.2888   -0.0682   22.6848 C.3     1  UNL1        0.0476
     14 H           0.1705    2.0062   26.4187 H       1  UNL1        0.1508
     15 C           3.5612   -0.0771   19.6971 C.ar    1  UNL1        0.0027
     16 C           4.8469    0.6054   19.3345 C.ar    1  UNL1        0.0002
     17 C           5.9519   -0.1733   18.6844 C.ar    1  UNL1        0.0031
     18 C           5.7713   -1.6345   18.3971 C.ar    1  UNL1        0.0372
     19 C           4.4857   -2.3169   18.7597 C.ar    1  UNL1        0.1468
     20 C           3.3807   -1.5382   19.4098 C.ar    1  UNL1        0.0372
     21 O           4.3051   -3.7780   18.4723 O.3     1  UNL1       -0.4045
     22 C           3.8078   -4.6980   19.5477 C.3     1  UNL1        0.5753
     23 F           3.3104   -5.6179   20.6230 F       1  UNL1       -0.1328
     24 F           2.4790   -4.7865   18.8573 F       1  UNL1       -0.1328
     25 F           5.1365   -4.6094   20.2380 F       1  UNL1       -0.1328
     26 C           0.6702    1.5025   28.4662 C.3     1  UNL1        0.0583
     27 C          -0.2055    0.2871   28.3900 C.3     1  UNL1        0.0197
     28 C           1.5459    2.7179   28.5424 C.3     1  UNL1        0.0197
     29 C           0.5340    1.5070   29.9601 C.3     1  UNL1        0.0197
     30 C          -0.8589    3.0376   22.2973 C.3     1  UNL1        0.1161
     31 C          -3.4000    3.5737   22.3699 C.2     1  UNL1        0.2227
     32 O          -3.3175    3.7640   23.8554 O.2     1  UNL1       -0.2751
     33 N          -2.1707    3.2105   21.5908 N.am    1  UNL1       -0.3004
     34 H          -2.2249    3.0856   20.6158 H       1  UNL1        0.1497
     35 C          -6.1167    4.2720   21.6423 C.3     1  UNL1        0.0883
     36 C          -5.5793    3.5206   20.4606 C.3     1  UNL1        0.0194
     37 C          -4.7119    3.7466   21.6633 C.3     1  UNL1        0.0858
     38 C         -10.0649    5.4984   24.9269 C.3     1  UNL1        0.0773
     39 C          -9.0529    5.5729   23.8223 C.ar    1  UNL1        0.1809
     40 N          -8.8745    6.7141   22.8654 N.ar    1  UNL1       -0.0606
     41 O          -7.7529    6.3658   21.9323 O.2     1  UNL1       -0.3374
     42 C          -7.2380    5.0091   22.3125 C.ar    1  UNL1        0.2363
     43 N          -8.0415    4.5191   23.4806 N.ar    1  UNL1       -0.1949
@<TRIPOS>BOND
     1    38    39    1
     2    39    40   ar
     3    40    41   ar
     4    41    42   ar
     5    35    42    1
     6    35    36    1
     7    36    37    1
     8    37    31    1
     9    31    32    2
    10    31    33   am
    11    33    30    1
    12    30     1    1
    13     1     2   ar
    14     2     3   ar
    15     3     4   ar
    16     4    15    1
    17    15    16   ar
    18    16    17   ar
    19    17    18   ar
    20    18    19   ar
    21    19    21    1
    22    21    22    1
    23    22    23    1
    24    22    24    1
    25    22    25    1
    26    19    20   ar
    27     4     5   ar
    28     5     6   ar
    29     6     7    1
    30     7     8    1
    31     8     9   am
    32     9    10    2
    33     9    11   am
    34    11    26    1
    35    26    27    1
    36    26    28    1
    37    26    29    1
    38     8    12    1
    39    12    13    1
    40    42    43   ar
    41    43    39   ar
    42    37    35    1
    43     6     1   ar
    44    20    15   ar
    45    13     5    1
    46    33    34    1
    47    11    14    1
