@<TRIPOS>MOLECULE
*****
 23 25 0 0 0
SMALL
GASTEIGER

@<TRIPOS>ATOM
      1 C          -4.3902  -19.7859   21.0496 C.ar    1  UNL1        0.1384
      2 C          -5.5950  -20.4919   20.5019 C.ar    1  UNL1        0.0369
      3 C          -6.9705  -20.0571   20.9130 C.ar    1  UNL1        0.0025
      4 C          -7.1412  -18.9163   21.8718 C.ar    1  UNL1       -0.0076
      5 C          -5.9364  -18.2103   22.4195 C.ar    1  UNL1       -0.0154
      6 C          -4.5609  -18.6451   22.0084 C.ar    1  UNL1        0.0329
      7 C          -6.4131  -17.1269   23.3411 C.3     1  UNL1        0.0481
      8 C          -7.9125  -17.1635   23.3629 C.2     1  UNL1       -0.0420
      9 C          -8.3624  -18.2693   22.4548 C.2     1  UNL1       -0.0242
     10 C          -1.9228  -19.2045   20.4808 C.3     1  UNL1        0.2525
     11 O          -3.0147  -20.2207   20.6385 O.3     1  UNL1       -0.4714
     12 C          -9.7841  -18.6597   22.1783 C.3     1  UNL1        0.0681
     13 C         -10.3031  -19.9857   22.6500 C.3     1  UNL1        0.0116
     14 C         -10.6868  -17.7242   21.4301 C.ar    1  UNL1        0.0919
     15 N         -10.3880  -17.0782   20.1097 N.ar    1  UNL1       -0.2408
     16 C         -11.5633  -16.2252   19.7344 C.ar    1  UNL1        0.1061
     17 C         -12.5887  -16.3440   20.8228 C.ar    1  UNL1        0.0572
     18 S         -12.0470  -17.2704   21.8708 S.2     1  UNL1       -0.0699
     19 C          -8.8052  -16.2538   24.1539 C.3     1  UNL1        0.0394
     20 C          -8.2077  -15.2059   25.0454 C.3     1  UNL1        0.0765
     21 N          -7.5353  -15.6048   26.3255 N.3     1  UNL1       -0.2700
     22 C          -6.0823  -15.2980   26.5367 C.3     1  UNL1        0.0897
     23 C          -8.3160  -16.3105   27.3944 C.3     1  UNL1        0.0897
@<TRIPOS>BOND
     1    10    11    1
     2    11     1    1
     3     1     2   ar
     4     2     3   ar
     5     3     4   ar
     6     4     5   ar
     7     5     6   ar
     8     5     7    1
     9     7     8    1
    10     8    19    1
    11    19    20    1
    12    20    21    1
    13    21    22    1
    14    21    23    1
    15     8     9    2
    16     9    12    1
    17    12    13    1
    18    12    14    1
    19    14    15   ar
    20    15    16   ar
    21    16    17   ar
    22    17    18   ar
    23     6     1   ar
    24    18    14   ar
    25     9     4    1
@<TRIPOS>MOLECULE
*****
 23 25 0 0 0
SMALL
GASTEIGER

@<TRIPOS>ATOM
      1 C          -5.8884  -15.8016   24.7360 C.ar    1  UNL1        0.1384
      2 C          -4.6398  -16.5161   24.3114 C.ar    1  UNL1        0.0369
      3 C          -4.6944  -17.5300   23.2072 C.ar    1  UNL1        0.0025
      4 C          -5.9976  -17.8294   22.5277 C.ar    1  UNL1       -0.0076
      5 C          -7.2463  -17.1149   22.9523 C.ar    1  UNL1       -0.0154
      6 C          -7.1917  -16.1010   24.0565 C.ar    1  UNL1        0.0329
      7 C          -8.3779  -17.6152   22.1041 C.3     1  UNL1        0.0481
      8 C          -7.8285  -18.6389   21.1553 C.2     1  UNL1       -0.0420
      9 C          -6.3574  -18.7712   21.4171 C.2     1  UNL1       -0.0242
     10 C          -6.5269  -15.0591   27.1424 C.3     1  UNL1        0.2525
     11 O          -5.8338  -14.7878   25.8401 O.3     1  UNL1       -0.4714
     12 C          -5.4121  -19.6850   20.6951 C.3     1  UNL1        0.0681
     13 C          -5.8180  -21.0970   20.3925 C.3     1  UNL1        0.0116
     14 C          -4.0609  -19.1869   20.2756 C.ar    1  UNL1        0.0919
     15 N          -3.7914  -18.1281   19.2478 N.ar    1  UNL1       -0.2408
     16 C          -2.3059  -17.9469   19.1472 C.ar    1  UNL1        0.1061
     17 C          -1.6570  -18.8938   20.1130 C.ar    1  UNL1        0.0572
     18 S          -2.7416  -19.6601   20.8103 S.2     1  UNL1       -0.0699
     19 C          -8.6125  -19.3971   20.1255 C.3     1  UNL1        0.0394
     20 C         -10.0308  -19.0100   19.8278 C.3     1  UNL1        0.0765
     21 N         -11.0644  -19.0554   20.9138 N.3     1  UNL1       -0.2700
     22 C         -12.0821  -17.9593   21.0270 C.3     1  UNL1        0.0897
     23 C         -11.0803  -20.1970   21.8867 C.3     1  UNL1        0.0897
@<TRIPOS>BOND
     1    10    11    1
     2    11     1    1
     3     1     2   ar
     4     2     3   ar
     5     3     4   ar
     6     4     5   ar
     7     5     6   ar
     8     5     7    1
     9     7     8    1
    10     8    19    1
    11    19    20    1
    12    20    21    1
    13    21    22    1
    14    21    23    1
    15     8     9    2
    16     9    12    1
    17    12    13    1
    18    12    14    1
    19    14    15   ar
    20    15    16   ar
    21    16    17   ar
    22    17    18   ar
    23     6     1   ar
    24    18    14   ar
    25     9     4    1
@<TRIPOS>MOLECULE
*****
 23 25 0 0 0
SMALL
GASTEIGER

@<TRIPOS>ATOM
      1 C         -10.7341  -18.4005   20.5367 C.ar    1  UNL1        0.1384
      2 C         -10.0342  -19.3067   19.5677 C.ar    1  UNL1        0.0369
      3 C          -8.5663  -19.5758   19.7187 C.ar    1  UNL1        0.0025
      4 C          -7.7983  -18.9387   20.8386 C.ar    1  UNL1       -0.0076
      5 C          -8.4982  -18.0326   21.8076 C.ar    1  UNL1       -0.0154
      6 C          -9.9661  -17.7635   21.6566 C.ar    1  UNL1        0.0329
      7 C          -7.4867  -17.5504   22.8049 C.3     1  UNL1        0.0481
      8 C          -6.1617  -18.1587   22.4523 C.2     1  UNL1       -0.0420
      9 C          -6.3543  -19.0167   21.2371 C.2     1  UNL1       -0.0242
     10 C         -12.9862  -17.5811   21.5398 C.3     1  UNL1        0.2525
     11 O         -12.2020  -18.1314   20.3857 O.3     1  UNL1       -0.4714
     12 C          -5.2897  -19.8129   20.5423 C.3     1  UNL1        0.0681
     13 C          -5.5318  -21.2540   20.2035 C.3     1  UNL1        0.0116
     14 C          -3.9831  -19.1681   20.1862 C.ar    1  UNL1        0.0919
     15 N          -3.7968  -18.0122   19.2484 N.ar    1  UNL1       -0.2408
     16 C          -2.3320  -17.6957   19.1879 C.ar    1  UNL1        0.1061
     17 C          -1.6126  -18.6559   20.0883 C.ar    1  UNL1        0.0572
     18 S          -2.6330  -19.5659   20.7052 S.2     1  UNL1       -0.0699
     19 C          -4.8708  -17.9463   23.1861 C.3     1  UNL1        0.0394
     20 C          -4.4801  -16.5688   23.6332 C.3     1  UNL1        0.0765
     21 N          -5.2756  -15.8717   24.6968 N.3     1  UNL1       -0.2700
     22 C          -6.3954  -14.9503   24.3132 C.3     1  UNL1        0.0897
     23 C          -4.9514  -16.0961   26.1440 C.3     1  UNL1        0.0897
@<TRIPOS>BOND
     1    10    11    1
     2    11     1    1
     3     1     2   ar
     4     2     3   ar
     5     3     4   ar
     6     4     5   ar
     7     5     6   ar
     8     5     7    1
     9     7     8    1
    10     8    19    1
    11    19    20    1
    12    20    21    1
    13    21    22    1
    14    21    23    1
    15     8     9    2
    16     9    12    1
    17    12    13    1
    18    12    14    1
    19    14    15   ar
    20    15    16   ar
    21    16    17   ar
    22    17    18   ar
    23     6     1   ar
    24    18    14   ar
    25     9     4    1
@<TRIPOS>MOLECULE
*****
 23 25 0 0 0
SMALL
GASTEIGER

@<TRIPOS>ATOM
      1 C         -10.6944  -17.9314   21.5386 C.ar    1  UNL1        0.1384
      2 C         -10.5512  -16.6875   22.3645 C.ar    1  UNL1        0.0369
      3 C          -9.2144  -16.3150   22.9340 C.ar    1  UNL1        0.0025
      4 C          -8.0208  -17.1865   22.6776 C.ar    1  UNL1       -0.0076
      5 C          -8.1640  -18.4304   21.8517 C.ar    1  UNL1       -0.0154
      6 C          -9.5007  -18.8029   21.2822 C.ar    1  UNL1        0.0329
      7 C          -6.8188  -19.0889   21.7684 C.3     1  UNL1        0.0481
      8 C          -5.8443  -18.2519   22.5428 C.2     1  UNL1       -0.0420
      9 C          -6.5872  -17.0761   23.1047 C.2     1  UNL1       -0.0242
     10 C         -13.2876  -17.7892   21.6065 C.3     1  UNL1        0.2525
     11 O         -12.0311  -18.3038   20.9691 O.3     1  UNL1       -0.4714
     12 C          -5.9996  -15.9821   23.9460 C.3     1  UNL1        0.0681
     13 C          -4.8574  -15.1636   23.4212 C.3     1  UNL1        0.0116
     14 C          -6.5542  -15.7065   25.3122 C.ar    1  UNL1        0.0919
     15 N          -7.9727  -15.9246   25.7485 N.ar    1  UNL1       -0.2408
     16 C          -8.0829  -15.5174   27.1878 C.ar    1  UNL1        0.1061
     17 C          -6.7324  -15.0474   27.6413 C.ar    1  UNL1        0.0572
     18 S          -5.7877  -15.1643   26.4821 S.2     1  UNL1       -0.0699
     19 C          -4.3833  -18.5400   22.7236 C.3     1  UNL1        0.0394
     20 C          -3.5316  -18.8723   21.5344 C.3     1  UNL1        0.0765
     21 N          -2.7704  -17.7882   20.8307 N.3     1  UNL1       -0.2700
     22 C          -2.1249  -16.6898   21.6224 C.3     1  UNL1        0.0897
     23 C          -2.6547  -17.8026   19.3353 C.3     1  UNL1        0.0897
@<TRIPOS>BOND
     1    10    11    1
     2    11     1    1
     3     1     2   ar
     4     2     3   ar
     5     3     4   ar
     6     4     5   ar
     7     5     6   ar
     8     5     7    1
     9     7     8    1
    10     8    19    1
    11    19    20    1
    12    20    21    1
    13    21    22    1
    14    21    23    1
    15     8     9    2
    16     9    12    1
    17    12    13    1
    18    12    14    1
    19    14    15   ar
    20    15    16   ar
    21    16    17   ar
    22    17    18   ar
    23     6     1   ar
    24    18    14   ar
    25     9     4    1
@<TRIPOS>MOLECULE
*****
 23 25 0 0 0
SMALL
GASTEIGER

@<TRIPOS>ATOM
      1 C           0.8927    1.2597   19.2513 C.ar    1  UNL1        0.1384
      2 C           0.6201    0.1211   20.1889 C.ar    1  UNL1        0.0369
      3 C           1.5736   -1.0346   20.2625 C.ar    1  UNL1        0.0025
      4 C           2.7996   -1.0516   19.3986 C.ar    1  UNL1       -0.0076
      5 C           3.0722    0.0871   18.4610 C.ar    1  UNL1       -0.0154
      6 C           2.1187    1.2427   18.3873 C.ar    1  UNL1        0.0329
      7 C           4.3533   -0.2049   17.7372 C.3     1  UNL1        0.0481
      8 C           4.8723   -1.5240   18.2275 C.2     1  UNL1       -0.0420
      9 C           3.9122   -2.0473   19.2543 C.2     1  UNL1       -0.0242
     10 C          -0.1177    3.2631   17.9415 C.3     1  UNL1        0.2525
     11 O          -0.0608    2.4153   19.1776 O.3     1  UNL1       -0.4714
     12 C           4.0417   -3.3394   20.0051 C.3     1  UNL1        0.0681
     13 C           3.5027   -4.6079   19.4133 C.3     1  UNL1        0.0116
     14 C           4.7103   -3.3630   21.3476 C.ar    1  UNL1        0.0919
     15 N           5.8940   -4.2021   21.7285 N.ar    1  UNL1       -0.2408
     16 C           6.2279   -3.9095   23.1611 C.ar    1  UNL1        0.1061
     17 C           5.2506   -2.8895   23.6659 C.ar    1  UNL1        0.0572
     18 S           4.3128   -2.5518   22.5451 S.2     1  UNL1       -0.0699
     19 C           6.1307   -2.2010   17.7712 C.3     1  UNL1        0.0394
     20 C           7.3532   -2.1761   18.6401 C.3     1  UNL1        0.0765
     21 N           7.6759   -0.9528   19.4458 N.3     1  UNL1       -0.2700
     22 C           7.5045   -0.9693   20.9359 C.3     1  UNL1        0.0897
     23 C           8.1700    0.2871   18.7614 C.3     1  UNL1        0.0897
@<TRIPOS>BOND
     1    10    11    1
     2    11     1    1
     3     1     2   ar
     4     2     3   ar
     5     3     4   ar
     6     4     5   ar
     7     5     6   ar
     8     5     7    1
     9     7     8    1
    10     8    19    1
    11    19    20    1
    12    20    21    1
    13    21    22    1
    14    21    23    1
    15     8     9    2
    16     9    12    1
    17    12    13    1
    18    12    14    1
    19    14    15   ar
    20    15    16   ar
    21    16    17   ar
    22    17    18   ar
    23     6     1   ar
    24    18    14   ar
    25     9     4    1
@<TRIPOS>MOLECULE
*****
 23 25 0 0 0
SMALL
GASTEIGER

@<TRIPOS>ATOM
      1 C           4.3198   -1.5328   25.4167 C.ar    1  UNL1        0.1384
      2 C           3.4108   -0.3916   25.0685 C.ar    1  UNL1        0.0369
      3 C           2.9454   -0.2080   23.6544 C.ar    1  UNL1        0.0025
      4 C           3.3889   -1.1656   22.5885 C.ar    1  UNL1       -0.0076
      5 C           4.2979   -2.3068   22.9367 C.ar    1  UNL1       -0.0154
      6 C           4.7633   -2.4904   24.3508 C.ar    1  UNL1        0.0329
      7 C           4.5668   -3.0846   21.6825 C.3     1  UNL1        0.0481
      8 C           3.8240   -2.4240   20.5592 C.2     1  UNL1       -0.0420
      9 C           3.0961   -1.2380   21.1192 C.2     1  UNL1       -0.0242
     10 C           3.9887   -1.1397   27.9634 C.3     1  UNL1        0.2525
     11 O           4.7852   -1.7164   26.8308 O.3     1  UNL1       -0.4714
     12 C           2.2277   -0.2907   20.3456 C.3     1  UNL1        0.0681
     13 C           0.7559   -0.5529   20.2223 C.3     1  UNL1        0.0116
     14 C           2.8309    0.9189   19.6952 C.ar    1  UNL1        0.0919
     15 N           2.1593    1.8067   18.6898 N.ar    1  UNL1       -0.2408
     16 C           3.1249    2.8896   18.3093 C.ar    1  UNL1        0.1061
     17 C           4.3934    2.6711   19.0795 C.ar    1  UNL1        0.0572
     18 S           4.2118    1.4532   19.9361 S.2     1  UNL1       -0.0699
     19 C           3.8114   -2.8709   19.1274 C.3     1  UNL1        0.0394
     20 C           4.9926   -2.5946   18.2450 C.3     1  UNL1        0.0765
     21 N           5.0685   -1.3103   17.4738 N.3     1  UNL1       -0.2700
     22 C           3.8710   -0.8186   16.7160 C.3     1  UNL1        0.0897
     23 C           6.3419   -0.5177   17.4604 C.3     1  UNL1        0.0897
@<TRIPOS>BOND
     1    10    11    1
     2    11     1    1
     3     1     2   ar
     4     2     3   ar
     5     3     4   ar
     6     4     5   ar
     7     5     6   ar
     8     5     7    1
     9     7     8    1
    10     8    19    1
    11    19    20    1
    12    20    21    1
    13    21    22    1
    14    21    23    1
    15     8     9    2
    16     9    12    1
    17    12    13    1
    18    12    14    1
    19    14    15   ar
    20    15    16   ar
    21    16    17   ar
    22    17    18   ar
    23     6     1   ar
    24    18    14   ar
    25     9     4    1
@<TRIPOS>MOLECULE
*****
 23 25 0 0 0
SMALL
GASTEIGER

@<TRIPOS>ATOM
      1 C          -9.7517  -18.5282   21.8094 C.ar    1  UNL1        0.1384
      2 C          -9.1579  -17.5975   22.8249 C.ar    1  UNL1        0.0369
      3 C          -7.6699  -17.5319   23.0024 C.ar    1  UNL1        0.0025
      4 C          -6.7757  -18.3970   22.1646 C.ar    1  UNL1       -0.0076
      5 C          -7.3696  -19.3276   21.1491 C.ar    1  UNL1       -0.0154
      6 C          -8.8576  -19.3933   20.9716 C.ar    1  UNL1        0.0329
      7 C          -6.2450  -20.0543   20.4727 C.3     1  UNL1        0.0481
      8 C          -4.9562  -19.5726   21.0701 C.2     1  UNL1       -0.0420
      9 C          -5.2842  -18.5484   22.1157 C.2     1  UNL1       -0.0242
     10 C         -11.9387  -17.5778   20.7780 C.3     1  UNL1        0.2525
     11 O         -11.2398  -18.5938   21.6319 O.3     1  UNL1       -0.4714
     12 C          -4.2944  -17.8058   22.9637 C.3     1  UNL1        0.0681
     13 C          -2.8305  -18.1122   22.8499 C.3     1  UNL1        0.0116
     14 C          -4.7686  -16.7570   23.9255 C.ar    1  UNL1        0.0919
     15 N          -5.3270  -15.4136   23.5602 N.ar    1  UNL1       -0.2408
     16 C          -5.6711  -14.6936   24.8303 C.ar    1  UNL1        0.1061
     17 C          -5.3253  -15.5921   25.9807 C.ar    1  UNL1        0.0572
     18 S          -4.7676  -16.8673   25.4215 S.2     1  UNL1       -0.0699
     19 C          -3.5808  -20.0342   20.6889 C.3     1  UNL1        0.0394
     20 C          -2.9874  -19.6184   19.3755 C.3     1  UNL1        0.0765
     21 N          -2.2009  -18.3450   19.2774 N.3     1  UNL1       -0.2700
     22 C          -2.8124  -17.1331   18.6391 C.3     1  UNL1        0.0897
     23 C          -0.8029  -18.2834   19.8176 C.3     1  UNL1        0.0897
@<TRIPOS>BOND
     1    10    11    1
     2    11     1    1
     3     1     2   ar
     4     2     3   ar
     5     3     4   ar
     6     4     5   ar
     7     5     6   ar
     8     5     7    1
     9     7     8    1
    10     8    19    1
    11    19    20    1
    12    20    21    1
    13    21    22    1
    14    21    23    1
    15     8     9    2
    16     9    12    1
    17    12    13    1
    18    12    14    1
    19    14    15   ar
    20    15    16   ar
    21    16    17   ar
    22    17    18   ar
    23     6     1   ar
    24    18    14   ar
    25     9     4    1
@<TRIPOS>MOLECULE
*****
 23 25 0 0 0
SMALL
GASTEIGER

@<TRIPOS>ATOM
      1 C           4.1784   -1.2528   25.5712 C.ar    1  UNL1        0.1384
      2 C           5.0178   -2.3460   24.9793 C.ar    1  UNL1        0.0369
      3 C           4.9242   -2.6537   23.5142 C.ar    1  UNL1        0.0025
      4 C           3.9912   -1.8683   22.6410 C.ar    1  UNL1       -0.0076
      5 C           3.1518   -0.7752   23.2328 C.ar    1  UNL1       -0.0154
      6 C           3.2454   -0.4674   24.6979 C.ar    1  UNL1        0.0329
      7 C           2.3286   -0.1750   22.1318 C.3     1  UNL1        0.0481
      8 C           2.6593   -0.8973   20.8594 C.2     1  UNL1       -0.0420
      9 C           3.6868   -1.9438   21.1741 C.2     1  UNL1       -0.0242
     10 C           5.0926   -1.8211   27.9357 C.3     1  UNL1        0.2525
     11 O           4.2720   -0.9450   27.0363 O.3     1  UNL1       -0.4714
     12 C           4.3020   -2.8983   20.1941 C.3     1  UNL1        0.0681
     13 C           3.4250   -3.7321   19.3077 C.3     1  UNL1        0.0116
     14 C           5.7941   -3.0191   20.1003 C.ar    1  UNL1        0.0919
     15 N           6.6312   -4.1030   20.7122 N.ar    1  UNL1       -0.2408
     16 C           8.0656   -3.8311   20.3684 C.ar    1  UNL1        0.1061
     17 C           8.1152   -2.5789   19.5439 C.ar    1  UNL1        0.0572
     18 S           6.7114   -2.0771   19.3782 S.2     1  UNL1       -0.0699
     19 C           2.0666   -0.6215   19.5093 C.3     1  UNL1        0.0394
     20 C           2.6185    0.4846   18.6597 C.3     1  UNL1        0.0765
     21 N           3.8490    0.2533   17.8337 N.3     1  UNL1       -0.2700
     22 C           3.9077   -0.9061   16.8838 C.3     1  UNL1        0.0897
     23 C           5.0209    1.1813   17.9577 C.3     1  UNL1        0.0897
@<TRIPOS>BOND
     1    10    11    1
     2    11     1    1
     3     1     2   ar
     4     2     3   ar
     5     3     4   ar
     6     4     5   ar
     7     5     6   ar
     8     5     7    1
     9     7     8    1
    10     8    19    1
    11    19    20    1
    12    20    21    1
    13    21    22    1
    14    21    23    1
    15     8     9    2
    16     9    12    1
    17    12    13    1
    18    12    14    1
    19    14    15   ar
    20    15    16   ar
    21    16    17   ar
    22    17    18   ar
    23     6     1   ar
    24    18    14   ar
    25     9     4    1
@<TRIPOS>MOLECULE
*****
 23 25 0 0 0
SMALL
GASTEIGER

@<TRIPOS>ATOM
      1 C          -9.1739  -19.6324   19.6585 C.ar    1  UNL1        0.1384
      2 C          -9.9511  -18.4964   20.2546 C.ar    1  UNL1        0.0369
      3 C          -9.3147  -17.6115   21.2851 C.ar    1  UNL1        0.0025
      4 C          -7.9011  -17.8626   21.7195 C.ar    1  UNL1       -0.0076
      5 C          -7.1240  -18.9986   21.1234 C.ar    1  UNL1       -0.0154
      6 C          -7.7604  -19.8836   20.0929 C.ar    1  UNL1        0.0329
      7 C          -5.7581  -19.0017   21.7435 C.3     1  UNL1        0.0481
      8 C          -5.6912  -17.8676   22.7229 C.2     1  UNL1       -0.0420
      9 C          -7.0157  -17.1636   22.7080 C.2     1  UNL1       -0.0242
     10 C          -8.9523  -21.3107   17.6876 C.3     1  UNL1        0.2525
     11 O          -9.8104  -20.5174   18.6280 O.3     1  UNL1       -0.4714
     12 C          -7.3891  -15.9701   23.5363 C.3     1  UNL1        0.0681
     13 C          -7.6378  -14.6467   22.8754 C.3     1  UNL1        0.0116
     14 C          -7.5138  -16.0998   25.0254 C.ar    1  UNL1        0.0919
     15 N          -8.6449  -16.7543   25.7618 N.ar    1  UNL1       -0.2408
     16 C          -8.3596  -16.6570   27.2311 C.ar    1  UNL1        0.1061
     17 C          -7.0519  -15.9423   27.4030 C.ar    1  UNL1        0.0572
     18 S          -6.5292  -15.5980   26.0398 S.2     1  UNL1       -0.0699
     19 C          -4.5076  -17.5017   23.5687 C.3     1  UNL1        0.0394
     20 C          -3.4006  -16.6711   22.9902 C.3     1  UNL1        0.0765
     21 N          -2.4062  -17.2931   22.0552 N.3     1  UNL1       -0.2700
     22 C          -1.6962  -16.4444   21.0424 C.3     1  UNL1        0.0897
     23 C          -2.1219  -18.7638   22.1329 C.3     1  UNL1        0.0897
@<TRIPOS>BOND
     1    10    11    1
     2    11     1    1
     3     1     2   ar
     4     2     3   ar
     5     3     4   ar
     6     4     5   ar
     7     5     6   ar
     8     5     7    1
     9     7     8    1
    10     8    19    1
    11    19    20    1
    12    20    21    1
    13    21    22    1
    14    21    23    1
    15     8     9    2
    16     9    12    1
    17    12    13    1
    18    12    14    1
    19    14    15   ar
    20    15    16   ar
    21    16    17   ar
    22    17    18   ar
    23     6     1   ar
    24    18    14   ar
    25     9     4    1
