@<TRIPOS>MOLECULE
*****
 33 34 0 0 0
SMALL
GASTEIGER

@<TRIPOS>ATOM
      1 C          -5.0968  -16.0890   24.7019 C.3     1  UNL1        0.2430
      2 C          -5.6449  -15.3551   23.5141 C.2     1  UNL1        0.2845
      3 O          -4.7579  -14.4402   22.7229 O.2     1  UNL1       -0.2691
      4 N          -7.0802  -15.5362   23.1174 N.am    1  UNL1       -0.1940
      5 O          -7.6284  -14.8023   21.9296 O.3     1  UNL1       -0.2951
      6 H          -7.6624  -16.1367   23.6367 H       1  UNL1        0.1823
      7 H          -6.9291  -14.2583   21.5347 H       1  UNL1        0.2414
      8 C          -5.3133  -15.5470   26.0838 C.3     1  UNL1        0.0533
      9 C          -6.6925  -15.1625   26.5311 C.3     1  UNL1        0.0057
     10 C          -7.5240  -16.1330   27.3162 C.3     1  UNL1        0.0172
     11 C          -8.6100  -16.9125   26.6355 C.3     1  UNL1        0.0688
     12 N          -8.7748  -16.8265   25.1471 N.3     1  UNL1       -0.2951
     13 H          -9.0713  -15.8731   24.9383 H       1  UNL1        0.1235
     14 C          -9.7332  -17.7417   24.4445 C.3     1  UNL1        0.0768
     15 C         -10.3317  -17.3354   23.1305 C.ar    1  UNL1       -0.0079
     16 C         -11.5389  -16.4457   23.0993 C.ar    1  UNL1       -0.0007
     17 C         -12.1375  -16.0395   21.7853 C.ar    1  UNL1        0.0294
     18 C         -11.5288  -16.5229   20.5024 C.ar    1  UNL1        0.1401
     19 F         -12.1273  -16.1166   19.1884 F       1  UNL1       -0.2042
     20 C         -10.3215  -17.4126   20.5336 C.ar    1  UNL1        0.0294
     21 C          -9.7230  -17.8189   21.8476 C.ar    1  UNL1       -0.0007
     22 C          -9.6560  -20.3383   24.3976 C.3     1  UNL1        0.0018
     23 C         -10.0931  -19.0634   25.0560 C.3     1  UNL1        0.0202
     24 O          -4.3322  -17.3648   24.5080 O.3     1  UNL1       -0.4699
     25 C          -3.9446  -17.8044   23.1272 C.ar    1  UNL1        0.1386
     26 C          -4.7599  -18.8420   22.4140 C.ar    1  UNL1        0.0349
     27 C          -4.3723  -19.2816   21.0332 C.ar    1  UNL1        0.0083
     28 C          -5.1876  -20.3193   20.3200 C.3     1  UNL1        0.0335
     29 C          -3.1695  -18.6836   20.3657 C.ar    1  UNL1        0.1323
     30 F          -2.7820  -19.1232   18.9848 F       1  UNL1       -0.2048
     31 C          -2.3543  -17.6459   21.0788 C.ar    1  UNL1        0.0083
     32 C          -1.1515  -17.0479   20.4113 C.3     1  UNL1        0.0335
     33 C          -2.7418  -17.2064   22.4596 C.ar    1  UNL1        0.0349
@<TRIPOS>BOND
     1    22    23    1
     2    23    14    1
     3    14    12    1
     4    12    11    1
     5    11    10    1
     6    10     9    1
     7     9     8    1
     8     1     8    1
     9     1    24    1
    10    24    25    1
    11    25    26   ar
    12    26    27   ar
    13    27    28    1
    14    27    29   ar
    15    29    30    1
    16    29    31   ar
    17    31    32    1
    18    31    33   ar
    19     1     2    1
    20     2     3    2
    21     2     4   am
    22     4     5    1
    23    14    15    1
    24    15    16   ar
    25    16    17   ar
    26    17    18   ar
    27    18    19    1
    28    18    20   ar
    29    20    21   ar
    30    33    25   ar
    31    21    15   ar
    32    12    13    1
    33     4     6    1
    34     5     7    1
@<TRIPOS>MOLECULE
*****
 33 34 0 0 0
SMALL
GASTEIGER

@<TRIPOS>ATOM
      1 C         -10.7883  -17.8681   22.5372 C.3     1  UNL1        0.2430
      2 C         -11.0466  -18.6515   23.7901 C.2     1  UNL1        0.2845
      3 O         -12.3435  -18.4845   24.5250 O.2     1  UNL1       -0.2691
      4 N         -10.0080  -19.6017   24.3080 N.am    1  UNL1       -0.1940
      5 O         -10.2663  -20.3851   25.5609 O.3     1  UNL1       -0.2951
      6 H          -9.1568  -19.7113   23.8257 H       1  UNL1        0.1823
      7 H         -11.1441  -20.1607   25.9073 H       1  UNL1        0.2414
      8 C         -11.1761  -18.4362   21.2042 C.3     1  UNL1        0.0533
      9 C         -10.3133  -19.4755   20.5521 C.3     1  UNL1        0.0057
     10 C          -9.4258  -19.0999   19.4027 C.3     1  UNL1        0.0172
     11 C          -8.0614  -19.7106   19.2779 C.3     1  UNL1        0.0688
     12 N          -6.8499  -18.9316   19.6967 N.3     1  UNL1       -0.2951
     13 H          -6.3476  -18.6868   18.8434 H       1  UNL1        0.1235
     14 C          -5.8476  -19.5469   20.6277 C.3     1  UNL1        0.0768
     15 C          -4.3950  -19.1933   20.5060 C.ar    1  UNL1       -0.0079
     16 C          -3.8825  -18.5487   19.2523 C.ar    1  UNL1       -0.0007
     17 C          -2.4299  -18.1950   19.1306 C.ar    1  UNL1        0.0294
     18 C          -1.4898  -18.4859   20.2626 C.ar    1  UNL1        0.1401
     19 F          -0.0371  -18.1323   20.1408 F       1  UNL1       -0.2042
     20 C          -2.0022  -19.1306   21.5163 C.ar    1  UNL1        0.0294
     21 C          -3.4548  -19.4842   21.6381 C.ar    1  UNL1       -0.0007
     22 C          -7.4076  -20.1427   22.6181 C.3     1  UNL1        0.0018
     23 C          -6.2979  -20.5160   21.6805 C.3     1  UNL1        0.0202
     24 O         -10.1422  -16.5168   22.6174 O.3     1  UNL1       -0.4699
     25 C          -8.9724  -16.2977   23.5305 C.ar    1  UNL1        0.1386
     26 C          -9.1979  -15.8479   24.9435 C.ar    1  UNL1        0.0349
     27 C          -8.0281  -15.6288   25.8565 C.ar    1  UNL1        0.0083
     28 C          -8.2536  -15.1789   27.2696 C.3     1  UNL1        0.0335
     29 C          -6.6329  -15.8596   25.3565 C.ar    1  UNL1        0.1323
     30 F          -5.4631  -15.6406   26.2695 F       1  UNL1       -0.2048
     31 C          -6.4074  -16.3095   23.9434 C.ar    1  UNL1        0.0083
     32 C          -5.0122  -16.5403   23.4434 C.3     1  UNL1        0.0335
     33 C          -7.5772  -16.5285   23.0304 C.ar    1  UNL1        0.0349
@<TRIPOS>BOND
     1    22    23    1
     2    23    14    1
     3    14    12    1
     4    12    11    1
     5    11    10    1
     6    10     9    1
     7     9     8    1
     8     1     8    1
     9     1    24    1
    10    24    25    1
    11    25    26   ar
    12    26    27   ar
    13    27    28    1
    14    27    29   ar
    15    29    30    1
    16    29    31   ar
    17    31    32    1
    18    31    33   ar
    19     1     2    1
    20     2     3    2
    21     2     4   am
    22     4     5    1
    23    14    15    1
    24    15    16   ar
    25    16    17   ar
    26    17    18   ar
    27    18    19    1
    28    18    20   ar
    29    20    21   ar
    30    33    25   ar
    31    21    15   ar
    32    12    13    1
    33     4     6    1
    34     5     7    1
@<TRIPOS>MOLECULE
*****
 33 34 0 0 0
SMALL
GASTEIGER

@<TRIPOS>ATOM
      1 C         -10.1721  -16.5983   21.6842 C.3     1  UNL1        0.2430
      2 C         -10.1428  -15.5654   20.5969 C.2     1  UNL1        0.2845
      3 O         -11.1518  -15.6147   19.4882 O.2     1  UNL1       -0.2691
      4 N          -9.1044  -14.4830   20.6184 N.am    1  UNL1       -0.1940
      5 O          -9.0751  -13.4501   19.5311 O.3     1  UNL1       -0.2951
      6 H          -8.4421  -14.4506   21.3462 H       1  UNL1        0.1823
      7 H          -9.7895  -13.6258   18.8989 H       1  UNL1        0.2414
      8 C         -10.1595  -18.0568   21.3337 C.3     1  UNL1        0.0533
      9 C         -10.1574  -18.4824   19.8954 C.3     1  UNL1        0.0057
     10 C          -9.4773  -19.7569   19.4915 C.3     1  UNL1        0.0172
     11 C          -8.0390  -19.7371   19.0658 C.3     1  UNL1        0.0688
     12 N          -7.0508  -18.8817   19.8017 N.3     1  UNL1       -0.2951
     13 H          -6.5018  -18.3919   19.0952 H       1  UNL1        0.1235
     14 C          -6.0736  -19.5110   20.7498 C.3     1  UNL1        0.0768
     15 C          -4.6075  -19.2233   20.6164 C.ar    1  UNL1       -0.0079
     16 C          -3.6811  -19.5025   21.7626 C.ar    1  UNL1       -0.0007
     17 C          -2.2150  -19.2147   21.6292 C.ar    1  UNL1        0.0294
     18 C          -1.6754  -18.6478   20.3496 C.ar    1  UNL1        0.1401
     19 F          -0.2093  -18.3600   20.2162 F       1  UNL1       -0.2042
     20 C          -2.6018  -18.3685   19.2034 C.ar    1  UNL1        0.0294
     21 C          -4.0679  -18.6563   19.3368 C.ar    1  UNL1       -0.0007
     22 C          -7.6850  -19.9983   22.7287 C.3     1  UNL1        0.0018
     23 C          -6.5625  -20.4282   21.8314 C.3     1  UNL1        0.0202
     24 O         -10.2140  -16.1728   23.1220 O.3     1  UNL1       -0.4699
     25 C          -8.9403  -16.0462   23.9041 C.ar    1  UNL1        0.1386
     26 C          -7.6221  -16.3097   23.2385 C.ar    1  UNL1        0.0349
     27 C          -6.3485  -16.1831   24.0207 C.ar    1  UNL1        0.0083
     28 C          -5.0303  -16.4465   23.3551 C.3     1  UNL1        0.0335
     29 C          -6.3930  -15.7930   25.4684 C.ar    1  UNL1        0.1323
     30 F          -5.1193  -15.6664   26.2506 F       1  UNL1       -0.2048
     31 C          -7.7112  -15.5296   26.1340 C.ar    1  UNL1        0.0083
     32 C          -7.7557  -15.1395   27.5817 C.3     1  UNL1        0.0335
     33 C          -8.9848  -15.6562   25.3518 C.ar    1  UNL1        0.0349
@<TRIPOS>BOND
     1    22    23    1
     2    23    14    1
     3    14    12    1
     4    12    11    1
     5    11    10    1
     6    10     9    1
     7     9     8    1
     8     1     8    1
     9     1    24    1
    10    24    25    1
    11    25    26   ar
    12    26    27   ar
    13    27    28    1
    14    27    29   ar
    15    29    30    1
    16    29    31   ar
    17    31    32    1
    18    31    33   ar
    19     1     2    1
    20     2     3    2
    21     2     4   am
    22     4     5    1
    23    14    15    1
    24    15    16   ar
    25    16    17   ar
    26    17    18   ar
    27    18    19    1
    28    18    20   ar
    29    20    21   ar
    30    33    25   ar
    31    21    15   ar
    32    12    13    1
    33     4     6    1
    34     5     7    1
@<TRIPOS>MOLECULE
*****
 33 34 0 0 0
SMALL
GASTEIGER

@<TRIPOS>ATOM
      1 C         -10.4734  -16.9941   21.6641 C.3     1  UNL1        0.2430
      2 C         -10.8215  -16.0136   20.5836 C.2     1  UNL1        0.2845
      3 O          -9.8712  -14.9041   20.2432 O.2     1  UNL1       -0.2691
      4 N         -12.1199  -16.1426   19.8436 N.am    1  UNL1       -0.1940
      5 O         -12.4680  -15.1620   18.7632 O.3     1  UNL1       -0.2951
      6 H         -12.7436  -16.8708   20.0671 H       1  UNL1        0.1823
      7 H         -11.7515  -14.5147   18.6709 H       1  UNL1        0.2414
      8 C         -10.1061  -18.4041   21.3074 C.3     1  UNL1        0.0533
      9 C         -10.1250  -18.8442   19.8736 C.3     1  UNL1        0.0057
     10 C          -9.1857  -19.9160   19.4056 C.3     1  UNL1        0.0172
     11 C          -7.7821  -19.5633   19.0111 C.3     1  UNL1        0.0688
     12 N          -6.9267  -18.7461   19.9332 N.3     1  UNL1       -0.2951
     13 H          -6.4130  -18.0854   19.3501 H       1  UNL1        0.1235
     14 C          -5.9182  -19.4204   20.8153 C.3     1  UNL1        0.0768
     15 C          -4.4551  -19.1514   20.6235 C.ar    1  UNL1       -0.0079
     16 C          -3.9634  -18.5626   19.3345 C.ar    1  UNL1       -0.0007
     17 C          -2.5003  -18.2936   19.1426 C.ar    1  UNL1        0.0294
     18 C          -1.5287  -18.6134   20.2398 C.ar    1  UNL1        0.1401
     19 F          -0.0656  -18.3444   20.0479 F       1  UNL1       -0.2042
     20 C          -2.0204  -19.2022   21.5289 C.ar    1  UNL1        0.0294
     21 C          -3.4835  -19.4712   21.7207 C.ar    1  UNL1       -0.0007
     22 C          -7.6158  -20.0643   22.6737 C.3     1  UNL1        0.0018
     23 C          -6.3729  -20.3638   21.8894 C.3     1  UNL1        0.0202
     24 O         -10.4926  -16.5648   23.1012 O.3     1  UNL1       -0.4699
     25 C          -9.2037  -16.3108   23.8254 C.ar    1  UNL1        0.1386
     26 C          -9.2237  -15.8420   25.2501 C.ar    1  UNL1        0.0349
     27 C          -7.9349  -15.5881   25.9742 C.ar    1  UNL1        0.0083
     28 C          -7.9549  -15.1192   27.3989 C.3     1  UNL1        0.0335
     29 C          -6.6261  -15.8029   25.2736 C.ar    1  UNL1        0.1323
     30 F          -5.3372  -15.5490   25.9978 F       1  UNL1       -0.2048
     31 C          -6.6061  -16.2717   23.8489 C.ar    1  UNL1        0.0083
     32 C          -5.2972  -16.4866   23.1484 C.3     1  UNL1        0.0335
     33 C          -7.8949  -16.5257   23.1248 C.ar    1  UNL1        0.0349
@<TRIPOS>BOND
     1    22    23    1
     2    23    14    1
     3    14    12    1
     4    12    11    1
     5    11    10    1
     6    10     9    1
     7     9     8    1
     8     1     8    1
     9     1    24    1
    10    24    25    1
    11    25    26   ar
    12    26    27   ar
    13    27    28    1
    14    27    29   ar
    15    29    30    1
    16    29    31   ar
    17    31    32    1
    18    31    33   ar
    19     1     2    1
    20     2     3    2
    21     2     4   am
    22     4     5    1
    23    14    15    1
    24    15    16   ar
    25    16    17   ar
    26    17    18   ar
    27    18    19    1
    28    18    20   ar
    29    20    21   ar
    30    33    25   ar
    31    21    15   ar
    32    12    13    1
    33     4     6    1
    34     5     7    1
@<TRIPOS>MOLECULE
*****
 33 34 0 0 0
SMALL
GASTEIGER

@<TRIPOS>ATOM
      1 C         -10.7480  -17.9856   22.5963 C.3     1  UNL1        0.2430
      2 C         -11.0134  -18.7366   23.8674 C.2     1  UNL1        0.2845
      3 O         -12.3164  -18.5549   24.5878 O.2     1  UNL1       -0.2691
      4 N          -9.9756  -19.6693   24.4180 N.am    1  UNL1       -0.1940
      5 O         -10.2409  -20.4203   25.6891 O.3     1  UNL1       -0.2951
      6 H          -9.1203  -19.7886   23.9452 H       1  UNL1        0.1823
      7 H         -11.1221  -20.1899   26.0229 H       1  UNL1        0.2414
      8 C         -11.1033  -18.5993   21.2745 C.3     1  UNL1        0.0533
      9 C         -10.1615  -19.5652   20.6187 C.3     1  UNL1        0.0057
     10 C          -9.4844  -19.1962   19.3322 C.3     1  UNL1        0.0172
     11 C          -8.0764  -19.6426   19.0707 C.3     1  UNL1        0.0688
     12 N          -6.9258  -18.8695   19.6439 N.3     1  UNL1       -0.2951
     13 H          -6.3942  -18.5037   18.8539 H       1  UNL1        0.1235
     14 C          -5.9425  -19.5494   20.5498 C.3     1  UNL1        0.0768
     15 C          -4.4865  -19.1967   20.4759 C.ar    1  UNL1       -0.0079
     16 C          -3.5826  -19.4954   21.6352 C.ar    1  UNL1       -0.0007
     17 C          -2.1266  -19.1428   21.5613 C.ar    1  UNL1        0.0294
     18 C          -1.5743  -18.4914   20.3281 C.ar    1  UNL1        0.1401
     19 F          -0.1182  -18.1387   20.2542 F       1  UNL1       -0.2042
     20 C          -2.4781  -18.1927   19.1688 C.ar    1  UNL1        0.0294
     21 C          -3.9342  -18.5453   19.2427 C.ar    1  UNL1       -0.0007
     22 C          -7.2982  -20.1812   22.6743 C.3     1  UNL1        0.0018
     23 C          -6.4153  -20.5820   21.5298 C.3     1  UNL1        0.0202
     24 O         -10.1274  -16.6210   22.6470 O.3     1  UNL1       -0.4699
     25 C          -8.9595  -16.3613   23.5518 C.ar    1  UNL1        0.1386
     26 C          -7.5608  -16.5489   23.0435 C.ar    1  UNL1        0.0349
     27 C          -6.3929  -16.2892   23.9483 C.ar    1  UNL1        0.0083
     28 C          -4.9941  -16.4768   23.4400 C.3     1  UNL1        0.0335
     29 C          -6.6238  -15.8420   25.3613 C.ar    1  UNL1        0.1323
     30 F          -5.4558  -15.5823   26.2661 F       1  UNL1       -0.2048
     31 C          -8.0225  -15.6544   25.8696 C.ar    1  UNL1        0.0083
     32 C          -8.2533  -15.2071   27.2826 C.3     1  UNL1        0.0335
     33 C          -9.1903  -15.9140   24.9648 C.ar    1  UNL1        0.0349
@<TRIPOS>BOND
     1    22    23    1
     2    23    14    1
     3    14    12    1
     4    12    11    1
     5    11    10    1
     6    10     9    1
     7     9     8    1
     8     1     8    1
     9     1    24    1
    10    24    25    1
    11    25    26   ar
    12    26    27   ar
    13    27    28    1
    14    27    29   ar
    15    29    30    1
    16    29    31   ar
    17    31    32    1
    18    31    33   ar
    19     1     2    1
    20     2     3    2
    21     2     4   am
    22     4     5    1
    23    14    15    1
    24    15    16   ar
    25    16    17   ar
    26    17    18   ar
    27    18    19    1
    28    18    20   ar
    29    20    21   ar
    30    33    25   ar
    31    21    15   ar
    32    12    13    1
    33     4     6    1
    34     5     7    1
@<TRIPOS>MOLECULE
*****
 33 34 0 0 0
SMALL
GASTEIGER

@<TRIPOS>ATOM
      1 C         -10.5777  -16.9766   22.0176 C.3     1  UNL1        0.2430
      2 C         -10.8312  -16.0843   20.8388 C.2     1  UNL1        0.2845
      3 O          -9.8158  -15.0519   20.4476 O.2     1  UNL1       -0.2691
      4 N         -12.1000  -16.2246   20.0511 N.am    1  UNL1       -0.1940
      5 O         -12.3535  -15.3323   18.8722 O.3     1  UNL1       -0.2951
      6 H         -12.7665  -16.9022   20.3078 H       1  UNL1        0.1823
      7 H         -11.6040  -14.7272   18.7577 H       1  UNL1        0.2414
      8 C         -10.3665  -18.4476   21.8131 C.3     1  UNL1        0.0533
      9 C         -10.4100  -19.3817   22.9859 C.3     1  UNL1        0.0057
     10 C          -9.1349  -19.8210   23.6425 C.3     1  UNL1        0.0172
     11 C          -8.0021  -20.3411   22.8080 C.3     1  UNL1        0.0688
     12 N          -6.9392  -19.4029   22.3181 N.3     1  UNL1       -0.2951
     13 H          -7.3790  -18.4887   22.2131 H       1  UNL1        0.1235
     14 C          -6.2215  -19.6885   21.0323 C.3     1  UNL1        0.0768
     15 C          -4.7718  -19.3317   20.8873 C.ar    1  UNL1       -0.0079
     16 C          -3.8850  -19.2902   22.0964 C.ar    1  UNL1       -0.0007
     17 C          -2.4353  -18.9335   21.9514 C.ar    1  UNL1        0.0294
     18 C          -1.8723  -18.6183   20.5973 C.ar    1  UNL1        0.1401
     19 F          -0.4226  -18.2615   20.4523 F       1  UNL1       -0.2042
     20 C          -2.7590  -18.6598   19.3881 C.ar    1  UNL1        0.0294
     21 C          -4.2088  -19.0165   19.5331 C.ar    1  UNL1       -0.0007
     22 C          -8.1317  -19.6393   19.2720 C.3     1  UNL1        0.0018
     23 C          -6.9536  -20.3308   19.8914 C.3     1  UNL1        0.0202
     24 O         -10.5356  -16.3980   23.4008 O.3     1  UNL1       -0.4699
     25 C          -9.2162  -16.1463   24.0687 C.ar    1  UNL1        0.1386
     26 C          -7.9439  -16.2592   23.2822 C.ar    1  UNL1        0.0349
     27 C          -6.6246  -16.0075   23.9501 C.ar    1  UNL1        0.0083
     28 C          -5.3522  -16.1205   23.1637 C.3     1  UNL1        0.0335
     29 C          -6.5776  -15.6429   25.4043 C.ar    1  UNL1        0.1323
     30 F          -5.2582  -15.3912   26.0722 F       1  UNL1       -0.2048
     31 C          -7.8499  -15.5300   26.1907 C.ar    1  UNL1        0.0083
     32 C          -7.8029  -15.1654   27.6450 C.3     1  UNL1        0.0335
     33 C          -9.1692  -15.7817   25.5229 C.ar    1  UNL1        0.0349
@<TRIPOS>BOND
     1    22    23    1
     2    23    14    1
     3    14    12    1
     4    12    11    1
     5    11    10    1
     6    10     9    1
     7     9     8    1
     8     1     8    1
     9     1    24    1
    10    24    25    1
    11    25    26   ar
    12    26    27   ar
    13    27    28    1
    14    27    29   ar
    15    29    30    1
    16    29    31   ar
    17    31    32    1
    18    31    33   ar
    19     1     2    1
    20     2     3    2
    21     2     4   am
    22     4     5    1
    23    14    15    1
    24    15    16   ar
    25    16    17   ar
    26    17    18   ar
    27    18    19    1
    28    18    20   ar
    29    20    21   ar
    30    33    25   ar
    31    21    15   ar
    32    12    13    1
    33     4     6    1
    34     5     7    1
@<TRIPOS>MOLECULE
*****
 33 34 0 0 0
SMALL
GASTEIGER

@<TRIPOS>ATOM
      1 C          -7.5468  -17.5865   22.6975 C.3     1  UNL1        0.2430
      2 C          -7.6645  -16.0932   22.7758 C.2     1  UNL1        0.2845
      3 O          -7.9257  -15.2953   21.5328 O.2     1  UNL1       -0.2691
      4 N          -7.5210  -15.3978   24.0971 N.am    1  UNL1       -0.1940
      5 O          -7.6387  -13.9044   24.1754 O.3     1  UNL1       -0.2951
      6 H          -7.3495  -15.9215   24.9130 H       1  UNL1        0.1823
      7 H          -7.8066  -13.5465   23.2896 H       1  UNL1        0.2414
      8 C          -8.6487  -18.3943   22.0783 C.3     1  UNL1        0.0533
      9 C          -8.9397  -19.7766   22.5827 C.3     1  UNL1        0.0057
     10 C          -9.4337  -19.9747   23.9851 C.3     1  UNL1        0.0172
     11 C         -10.1910  -18.8792   24.6753 C.3     1  UNL1        0.0688
     12 N         -11.6617  -19.0290   24.9294 N.3     1  UNL1       -0.2951
     13 H         -11.8723  -20.0247   24.8613 H       1  UNL1        0.1235
     14 C         -12.6502  -18.3164   24.0548 C.3     1  UNL1        0.0768
     15 C         -12.1979  -17.6853   22.7714 C.ar    1  UNL1       -0.0079
     16 C         -11.7280  -16.2608   22.7610 C.ar    1  UNL1       -0.0007
     17 C         -11.2756  -15.6297   21.4776 C.ar    1  UNL1        0.0294
     18 C         -11.2932  -16.4229   20.2047 C.ar    1  UNL1        0.1401
     19 F         -10.8408  -15.7918   18.9214 F       1  UNL1       -0.2042
     20 C         -11.7631  -17.8475   20.2151 C.ar    1  UNL1        0.0294
     21 C         -12.2154  -18.4786   21.4985 C.ar    1  UNL1       -0.0007
     22 C         -14.4834  -18.5022   25.8864 C.3     1  UNL1        0.0018
     23 C         -14.0912  -18.2350   24.4635 C.3     1  UNL1        0.0202
     24 O          -6.3272  -18.2721   23.2384 O.3     1  UNL1       -0.4699
     25 C          -5.1068  -18.4203   22.3789 C.ar    1  UNL1        0.1386
     26 C          -5.0038  -19.5638   21.4136 C.ar    1  UNL1        0.0349
     27 C          -3.7835  -19.7120   20.5541 C.ar    1  UNL1        0.0083
     28 C          -3.6804  -20.8556   19.5887 C.3     1  UNL1        0.0335
     29 C          -2.6662  -18.7168   20.6598 C.ar    1  UNL1        0.1323
     30 F          -1.4458  -18.8651   19.8003 F       1  UNL1       -0.2048
     31 C          -2.7692  -17.5733   21.6251 C.ar    1  UNL1        0.0083
     32 C          -1.6520  -16.5781   21.7309 C.3     1  UNL1        0.0335
     33 C          -3.9895  -17.4251   22.4846 C.ar    1  UNL1        0.0349
@<TRIPOS>BOND
     1    22    23    1
     2    23    14    1
     3    14    12    1
     4    12    11    1
     5    11    10    1
     6    10     9    1
     7     9     8    1
     8     1     8    1
     9     1    24    1
    10    24    25    1
    11    25    26   ar
    12    26    27   ar
    13    27    28    1
    14    27    29   ar
    15    29    30    1
    16    29    31   ar
    17    31    32    1
    18    31    33   ar
    19     1     2    1
    20     2     3    2
    21     2     4   am
    22     4     5    1
    23    14    15    1
    24    15    16   ar
    25    16    17   ar
    26    17    18   ar
    27    18    19    1
    28    18    20   ar
    29    20    21   ar
    30    33    25   ar
    31    21    15   ar
    32    12    13    1
    33     4     6    1
    34     5     7    1
@<TRIPOS>MOLECULE
*****
 33 34 0 0 0
SMALL
GASTEIGER

@<TRIPOS>ATOM
      1 C          -7.4920  -19.6388   20.8758 C.3     1  UNL1        0.2430
      2 C          -8.6467  -19.3440   19.9649 C.2     1  UNL1        0.2845
      3 O          -8.8583  -20.1698   18.7308 O.2     1  UNL1       -0.2691
      4 N          -9.5899  -18.2232   20.2883 N.am    1  UNL1       -0.1940
      5 O         -10.7446  -17.9284   19.3774 O.3     1  UNL1       -0.2951
      6 H          -9.4510  -17.6812   21.0983 H       1  UNL1        0.1823
      7 H         -10.7360  -18.5500   18.6328 H       1  UNL1        0.2414
      8 C          -7.6459  -19.4753   22.3590 C.3     1  UNL1        0.0533
      9 C          -8.4263  -20.4846   23.1478 C.3     1  UNL1        0.0057
     10 C          -9.8468  -20.1980   23.5352 C.3     1  UNL1        0.0172
     11 C         -10.1648  -19.7238   24.9223 C.3     1  UNL1        0.0688
     12 N         -10.6260  -18.3140   25.1456 N.3     1  UNL1       -0.2951
     13 H         -11.6311  -18.3021   24.9723 H       1  UNL1        0.1235
     14 C         -10.0344  -17.1950   24.3408 C.3     1  UNL1        0.0768
     15 C          -8.7324  -16.5780   24.7579 C.ar    1  UNL1       -0.0079
     16 C          -8.4684  -16.2910   26.2063 C.ar    1  UNL1       -0.0007
     17 C          -7.1663  -15.6740   26.6234 C.ar    1  UNL1        0.0294
     18 C          -6.1283  -15.3440   25.5921 C.ar    1  UNL1        0.1401
     19 F          -4.8262  -14.7271   26.0092 F       1  UNL1       -0.2042
     20 C          -6.3923  -15.6311   24.1436 C.ar    1  UNL1        0.0294
     21 C          -7.6943  -16.2481   23.7265 C.ar    1  UNL1       -0.0007
     22 C         -12.1241  -17.1871   22.7970 C.3     1  UNL1        0.0018
     23 C         -10.7449  -16.6930   23.1188 C.3     1  UNL1        0.0202
     24 O          -6.1834  -20.0971   20.3036 O.3     1  UNL1       -0.4699
     25 C          -4.9344  -19.3075   20.5615 C.ar    1  UNL1        0.1386
     26 C          -4.6036  -18.8610   21.9547 C.ar    1  UNL1        0.0349
     27 C          -3.3546  -18.0714   22.2125 C.ar    1  UNL1        0.0083
     28 C          -3.0238  -17.6248   23.6058 C.3     1  UNL1        0.0335
     29 C          -2.4364  -17.7283   21.0771 C.ar    1  UNL1        0.1323
     30 F          -1.1873  -16.9387   21.3350 F       1  UNL1       -0.2048
     31 C          -2.7671  -18.1749   19.6839 C.ar    1  UNL1        0.0083
     32 C          -1.8489  -17.8319   18.5485 C.3     1  UNL1        0.0335
     33 C          -4.0161  -18.9645   19.4261 C.ar    1  UNL1        0.0349
@<TRIPOS>BOND
     1    22    23    1
     2    23    14    1
     3    14    12    1
     4    12    11    1
     5    11    10    1
     6    10     9    1
     7     9     8    1
     8     1     8    1
     9     1    24    1
    10    24    25    1
    11    25    26   ar
    12    26    27   ar
    13    27    28    1
    14    27    29   ar
    15    29    30    1
    16    29    31   ar
    17    31    32    1
    18    31    33   ar
    19     1     2    1
    20     2     3    2
    21     2     4   am
    22     4     5    1
    23    14    15    1
    24    15    16   ar
    25    16    17   ar
    26    17    18   ar
    27    18    19    1
    28    18    20   ar
    29    20    21   ar
    30    33    25   ar
    31    21    15   ar
    32    12    13    1
    33     4     6    1
    34     5     7    1
@<TRIPOS>MOLECULE
*****
 33 34 0 0 0
SMALL
GASTEIGER

@<TRIPOS>ATOM
      1 C          -6.5636  -15.7587   23.9132 C.3     1  UNL1        0.2430
      2 C          -6.4410  -15.1491   25.2782 C.2     1  UNL1        0.2845
      3 O          -5.1429  -14.5351   25.7116 O.2     1  UNL1       -0.2691
      4 N          -7.6166  -15.1534   26.2099 N.am    1  UNL1       -0.1940
      5 O          -7.4940  -14.5438   27.5750 O.3     1  UNL1       -0.2951
      6 H          -8.4687  -15.5564   25.9255 H       1  UNL1        0.1823
      7 H          -6.5968  -14.1948   27.6938 H       1  UNL1        0.2414
      8 C          -5.6782  -16.9043   23.5211 C.3     1  UNL1        0.0533
      9 C          -4.1996  -16.6952   23.3797 C.3     1  UNL1        0.0057
     10 C          -3.2520  -17.8219   23.6668 C.3     1  UNL1        0.0172
     11 C          -2.4378  -18.4184   22.5571 C.3     1  UNL1        0.0688
     12 N          -2.9527  -19.6103   21.8061 N.3     1  UNL1       -0.2951
     13 H          -2.1368  -20.1174   21.4633 H       1  UNL1        0.1235
     14 C          -3.8683  -19.4196   20.6334 C.3     1  UNL1        0.0768
     15 C          -5.3538  -19.5143   20.8184 C.ar    1  UNL1       -0.0079
     16 C          -6.2755  -19.1040   19.7085 C.ar    1  UNL1       -0.0007
     17 C          -7.7611  -19.1987   19.8936 C.ar    1  UNL1        0.0294
     18 C          -8.3249  -19.7036   21.1886 C.ar    1  UNL1        0.1401
     19 F          -9.8104  -19.7983   21.3736 F       1  UNL1       -0.2042
     20 C          -7.4031  -20.1140   22.2986 C.ar    1  UNL1        0.0294
     21 C          -5.9176  -20.0193   22.1135 C.ar    1  UNL1       -0.0007
     22 C          -2.5604  -17.8523   19.0262 C.3     1  UNL1        0.0018
     23 C          -3.2983  -19.1342   19.2755 C.3     1  UNL1        0.0202
     24 O          -7.5716  -15.2227   22.9402 O.3     1  UNL1       -0.4699
     25 C          -8.8520  -15.9666   22.7006 C.ar    1  UNL1        0.1386
     26 C          -9.6170  -15.7524   21.4283 C.ar    1  UNL1        0.0349
     27 C         -10.8973  -16.4962   21.1887 C.ar    1  UNL1        0.0083
     28 C         -11.6624  -16.2820   19.9164 C.3     1  UNL1        0.0335
     29 C         -11.4126  -17.4543   22.2215 C.ar    1  UNL1        0.1323
     30 F         -12.6930  -18.1981   21.9819 F       1  UNL1       -0.2048
     31 C         -10.6476  -17.6685   23.4938 C.ar    1  UNL1        0.0083
     32 C         -11.1629  -18.6266   24.5266 C.3     1  UNL1        0.0335
     33 C          -9.3673  -16.9246   23.7334 C.ar    1  UNL1        0.0349
@<TRIPOS>BOND
     1    22    23    1
     2    23    14    1
     3    14    12    1
     4    12    11    1
     5    11    10    1
     6    10     9    1
     7     9     8    1
     8     1     8    1
     9     1    24    1
    10    24    25    1
    11    25    26   ar
    12    26    27   ar
    13    27    28    1
    14    27    29   ar
    15    29    30    1
    16    29    31   ar
    17    31    32    1
    18    31    33   ar
    19     1     2    1
    20     2     3    2
    21     2     4   am
    22     4     5    1
    23    14    15    1
    24    15    16   ar
    25    16    17   ar
    26    17    18   ar
    27    18    19    1
    28    18    20   ar
    29    20    21   ar
    30    33    25   ar
    31    21    15   ar
    32    12    13    1
    33     4     6    1
    34     5     7    1
