@<TRIPOS>MOLECULE
*****
 33 35 0 0 0
SMALL
GASTEIGER

@<TRIPOS>ATOM
      1 C          -6.3968  -17.1173   23.1590 C.ar    1  UNL1        0.0949
      2 C          -7.7272  -17.6773   22.7509 C.ar    1  UNL1        0.0055
      3 C          -7.7943  -18.9472   21.9555 C.ar    1  UNL1       -0.0002
      4 C          -6.5310  -19.6573   21.5683 C.ar    1  UNL1        0.0746
      5 N          -5.2007  -19.0974   21.9764 N.ar    1  UNL1       -0.2901
      6 C          -5.1336  -17.8274   22.7718 C.ar    1  UNL1        0.2642
      7 O          -3.8032  -17.2674   23.1800 O.2     1  UNL1       -0.2669
      8 C          -6.3297  -15.8473   23.9544 C.2     1  UNL1        0.2033
      9 O          -5.8886  -14.5732   23.2972 O.2     1  UNL1       -0.2863
     10 C          -8.1099  -15.5317   25.8202 C.2     1  UNL1        0.1507
     11 O          -9.1418  -15.2078   24.7810 O.2     1  UNL1       -0.5043
     12 C          -6.7039  -15.8514   25.4070 C.2     1  UNL1        0.0799
     13 H         -10.0201  -15.0080   25.0391 H       1  UNL1        0.2922
     14 O          -8.6157  -14.2402   28.0171 O.co2   1  UNL1       -0.5416
     15 C          -8.4840  -15.5358   27.2729 C.2     1  UNL1        0.1068
     16 O          -8.7263  -16.8356   27.9812 O.co2   1  UNL1       -0.5416
     17 C          -9.1247  -19.5072   21.5473 C.3     1  UNL1        0.0564
     18 C         -10.3797  -19.0121   22.2029 C.ar    1  UNL1        0.0099
     19 C         -10.6099  -19.2588   23.6645 C.ar    1  UNL1        0.0006
     20 C         -11.8650  -18.7637   24.3201 C.ar    1  UNL1        0.0295
     21 C         -12.8898  -18.0221   23.5141 C.ar    1  UNL1        0.1424
     22 F         -14.1449  -17.5270   24.1696 F       1  UNL1       -0.2041
     23 C         -12.6596  -17.7755   22.0525 C.ar    1  UNL1        0.0589
     24 C         -11.4046  -18.2705   21.3969 C.ar    1  UNL1        0.1387
     25 F         -11.1744  -18.0239   19.9353 F       1  UNL1       -0.2044
     26 C          -3.9373  -19.8074   21.5892 C.3     1  UNL1        0.1380
     27 C          -2.9152  -19.1106   20.7410 C.ar    1  UNL1        0.0280
     28 C          -1.4912  -19.0215   21.2038 C.ar    1  UNL1       -0.0002
     29 C          -0.4690  -18.3246   20.3556 C.ar    1  UNL1       -0.0001
     30 C          -0.8708  -17.7169   19.0444 C.ar    1  UNL1        0.0023
     31 C          -2.2949  -17.8059   18.5815 C.ar    1  UNL1        0.0294
     32 C          -3.3170  -18.5028   19.4297 C.ar    1  UNL1        0.1380
     33 F          -4.7410  -18.5919   18.9669 F       1  UNL1       -0.2044
@<TRIPOS>UNITY_ATOM_ATTR
14 1
charge -1
@<TRIPOS>BOND
     1    14    15   ar
     2    15    16   ar
     3    15    10    1
     4    10    11    1
     5    10    12    2
     6    12     8    1
     7     8     9    2
     8     8     1    1
     9     1     2   ar
    10     2     3   ar
    11     3    17    1
    12    17    18    1
    13    18    19   ar
    14    19    20   ar
    15    20    21   ar
    16    21    22    1
    17    21    23   ar
    18    23    24   ar
    19    24    25    1
    20     3     4   ar
    21     4     5   ar
    22     5    26    1
    23    26    27    1
    24    27    28   ar
    25    28    29   ar
    26    29    30   ar
    27    30    31   ar
    28    31    32   ar
    29    32    33    1
    30     5     6   ar
    31     6     7    2
    32     6     1   ar
    33    24    18   ar
    34    32    27   ar
    35    11    13    1
@<TRIPOS>MOLECULE
*****
 33 35 0 0 0
SMALL
GASTEIGER

@<TRIPOS>ATOM
      1 C          -6.8011  -17.2706   22.7498 C.ar    1  UNL1        0.0949
      2 C          -8.1873  -17.7053   22.3764 C.ar    1  UNL1        0.0055
      3 C          -8.3852  -18.8868   21.4737 C.ar    1  UNL1       -0.0002
      4 C          -7.1969  -19.6336   20.9443 C.ar    1  UNL1        0.0746
      5 N          -5.8107  -19.1989   21.3177 N.ar    1  UNL1       -0.2901
      6 C          -5.6128  -18.0174   22.2205 C.ar    1  UNL1        0.2642
      7 O          -4.2265  -17.5827   22.5939 O.2     1  UNL1       -0.2669
      8 C          -6.6032  -16.0892   23.6526 C.2     1  UNL1        0.2033
      9 O          -5.6809  -14.9791   23.2439 O.2     1  UNL1       -0.2863
     10 C          -6.7433  -15.2343   26.1020 C.2     1  UNL1        0.1507
     11 O          -5.4346  -14.5222   25.9283 O.2     1  UNL1       -0.5043
     12 C          -7.3276  -16.0178   24.9641 C.2     1  UNL1        0.0799
     13 H          -5.0696  -14.0328   26.6391 H       1  UNL1        0.2922
     14 O          -8.4769  -16.2134   27.7710 O.co2   1  UNL1       -0.5416
     15 C          -7.4677  -15.1629   27.4136 C.2     1  UNL1        0.1068
     16 O          -7.1829  -14.0410   28.3676 O.co2   1  UNL1       -0.5416
     17 C          -9.7714  -19.3215   21.1002 C.3     1  UNL1        0.0564
     18 C         -10.9399  -18.9091   21.9456 C.ar    1  UNL1        0.0099
     19 C         -12.0247  -18.0543   21.3601 C.ar    1  UNL1        0.0006
     20 C         -13.1932  -17.6420   22.2054 C.ar    1  UNL1        0.0295
     21 C         -13.2770  -18.0845   23.6362 C.ar    1  UNL1        0.1424
     22 F         -14.4455  -17.6722   24.4816 F       1  UNL1       -0.2041
     23 C         -12.1923  -18.9393   24.2217 C.ar    1  UNL1        0.0589
     24 C         -11.0238  -19.3516   23.3764 C.ar    1  UNL1        0.1387
     25 F          -9.9391  -20.2064   23.9619 F       1  UNL1       -0.2044
     26 C          -4.6223  -19.9456   20.7884 C.3     1  UNL1        0.1380
     27 C          -3.4560  -19.1930   20.2197 C.ar    1  UNL1        0.0280
     28 C          -3.6505  -18.2897   19.0381 C.ar    1  UNL1       -0.0002
     29 C          -2.4842  -17.5371   18.4694 C.ar    1  UNL1       -0.0001
     30 C          -1.1235  -17.6878   19.0823 C.ar    1  UNL1        0.0023
     31 C          -0.9290  -18.5912   20.2640 C.ar    1  UNL1        0.0294
     32 C          -2.0952  -19.3438   20.8327 C.ar    1  UNL1        0.1380
     33 F          -1.9008  -20.2471   22.0142 F       1  UNL1       -0.2044
@<TRIPOS>UNITY_ATOM_ATTR
14 1
charge -1
@<TRIPOS>BOND
     1    14    15   ar
     2    15    16   ar
     3    15    10    1
     4    10    11    1
     5    10    12    2
     6    12     8    1
     7     8     9    2
     8     8     1    1
     9     1     2   ar
    10     2     3   ar
    11     3    17    1
    12    17    18    1
    13    18    19   ar
    14    19    20   ar
    15    20    21   ar
    16    21    22    1
    17    21    23   ar
    18    23    24   ar
    19    24    25    1
    20     3     4   ar
    21     4     5   ar
    22     5    26    1
    23    26    27    1
    24    27    28   ar
    25    28    29   ar
    26    29    30   ar
    27    30    31   ar
    28    31    32   ar
    29    32    33    1
    30     5     6   ar
    31     6     7    2
    32     6     1   ar
    33    24    18   ar
    34    32    27   ar
    35    11    13    1
@<TRIPOS>MOLECULE
*****
 33 35 0 0 0
SMALL
GASTEIGER

@<TRIPOS>ATOM
      1 C          -8.0532  -18.5080   21.6879 C.ar    1  UNL1        0.0949
      2 C          -7.5879  -17.4989   22.6955 C.ar    1  UNL1        0.0055
      3 C          -6.1213  -17.2416   22.8771 C.ar    1  UNL1       -0.0002
      4 C          -5.1201  -17.9934   22.0511 C.ar    1  UNL1        0.0746
      5 N          -5.5854  -19.0025   21.0436 N.ar    1  UNL1       -0.2901
      6 C          -7.0519  -19.2597   20.8619 C.ar    1  UNL1        0.2642
      7 O          -7.5172  -20.2688   19.8542 O.2     1  UNL1       -0.2669
      8 C          -9.5198  -18.7652   21.5062 C.2     1  UNL1        0.2033
      9 O         -10.2077  -19.8050   22.3401 O.2     1  UNL1       -0.2863
     10 C         -10.7379  -16.5821   20.7991 C.2     1  UNL1        0.1507
     11 O         -10.3988  -15.9640   22.1231 O.2     1  UNL1       -0.5043
     12 C         -10.2984  -17.9827   20.4907 C.2     1  UNL1        0.0799
     13 H         -10.6734  -15.0891   22.3158 H       1  UNL1        0.2922
     14 O         -13.0160  -15.8367   19.7967 O.co2   1  UNL1       -0.5416
     15 C         -11.5165  -15.7996   19.7835 C.2     1  UNL1        0.1068
     16 O         -10.7956  -14.9799   18.7546 O.co2   1  UNL1       -0.5416
     17 C          -5.6561  -16.2325   23.8848 C.3     1  UNL1        0.0564
     18 C          -6.5577  -15.8293   25.0137 C.ar    1  UNL1        0.0099
     19 C          -7.9984  -15.5091   24.7452 C.ar    1  UNL1        0.0006
     20 C          -8.9000  -15.1058   25.8741 C.ar    1  UNL1        0.0295
     21 C          -8.3610  -15.0227   27.2715 C.ar    1  UNL1        0.1424
     22 F          -9.2626  -14.6194   28.4004 F       1  UNL1       -0.2041
     23 C          -6.9204  -15.3429   27.5399 C.ar    1  UNL1        0.0589
     24 C          -6.0188  -15.7462   26.4110 C.ar    1  UNL1        0.1387
     25 F          -4.5781  -16.0664   26.6795 F       1  UNL1       -0.2044
     26 C          -4.5841  -19.7543   20.2175 C.3     1  UNL1        0.1380
     27 C          -3.2556  -19.1337   19.9011 C.ar    1  UNL1        0.0280
     28 C          -3.0987  -18.2808   18.6772 C.ar    1  UNL1       -0.0002
     29 C          -1.7703  -17.6602   18.3608 C.ar    1  UNL1       -0.0001
     30 C          -0.5988  -17.8926   19.2682 C.ar    1  UNL1        0.0023
     31 C          -0.7556  -18.7455   20.4921 C.ar    1  UNL1        0.0294
     32 C          -2.0840  -19.3661   20.8085 C.ar    1  UNL1        0.1380
     33 F          -2.2409  -20.2190   22.0324 F       1  UNL1       -0.2044
@<TRIPOS>UNITY_ATOM_ATTR
14 1
charge -1
@<TRIPOS>BOND
     1    14    15   ar
     2    15    16   ar
     3    15    10    1
     4    10    11    1
     5    10    12    2
     6    12     8    1
     7     8     9    2
     8     8     1    1
     9     1     2   ar
    10     2     3   ar
    11     3    17    1
    12    17    18    1
    13    18    19   ar
    14    19    20   ar
    15    20    21   ar
    16    21    22    1
    17    21    23   ar
    18    23    24   ar
    19    24    25    1
    20     3     4   ar
    21     4     5   ar
    22     5    26    1
    23    26    27    1
    24    27    28   ar
    25    28    29   ar
    26    29    30   ar
    27    30    31   ar
    28    31    32   ar
    29    32    33    1
    30     5     6   ar
    31     6     7    2
    32     6     1   ar
    33    24    18   ar
    34    32    27   ar
    35    11    13    1
@<TRIPOS>MOLECULE
*****
 33 35 0 0 0
SMALL
GASTEIGER

@<TRIPOS>ATOM
      1 C          -7.1026  -16.9773   22.6894 C.ar    1  UNL1        0.0949
      2 C          -6.0490  -17.8828   22.1236 C.ar    1  UNL1        0.0055
      3 C          -6.4426  -19.0395   21.2535 C.ar    1  UNL1       -0.0002
      4 C          -7.8898  -19.2907   20.9492 C.ar    1  UNL1        0.0746
      5 N          -8.9433  -18.3853   21.5150 N.ar    1  UNL1       -0.2901
      6 C          -8.5497  -17.2286   22.3851 C.ar    1  UNL1        0.2642
      7 O          -9.6033  -16.3231   22.9509 O.2     1  UNL1       -0.2669
      8 C          -6.7090  -15.8206   23.5595 C.2     1  UNL1        0.2033
      9 O          -5.5969  -14.9076   23.1357 O.2     1  UNL1       -0.2863
     10 C          -6.6570  -15.5134   26.1388 C.2     1  UNL1        0.1507
     11 O          -5.1679  -15.6938   26.1303 O.2     1  UNL1       -0.5043
     12 C          -7.4275  -15.5768   24.8534 C.2     1  UNL1        0.0799
     13 H          -4.6866  -15.6542   26.9333 H       1  UNL1        0.2922
     14 O          -6.9732  -14.1208   28.3092 O.co2   1  UNL1       -0.5416
     15 C          -7.3756  -15.2696   27.4328 C.2     1  UNL1        0.1068
     16 O          -8.4966  -16.1747   27.8502 O.co2   1  UNL1       -0.5416
     17 C          -5.3890  -19.9449   20.6877 C.3     1  UNL1        0.0564
     18 C          -3.9903  -19.4389   20.4941 C.ar    1  UNL1        0.0099
     19 C          -3.5506  -18.9462   19.1473 C.ar    1  UNL1        0.0006
     20 C          -2.1519  -18.4401   18.9537 C.ar    1  UNL1        0.0295
     21 C          -1.1928  -18.4267   20.1071 C.ar    1  UNL1        0.1424
     22 F           0.2059  -17.9207   19.9135 F       1  UNL1       -0.2041
     23 C          -1.6325  -18.9194   21.4539 C.ar    1  UNL1        0.0589
     24 C          -3.0313  -19.4255   21.6474 C.ar    1  UNL1        0.1387
     25 F          -3.4710  -19.9181   22.9943 F       1  UNL1       -0.2044
     26 C         -10.3905  -18.6365   21.2107 C.3     1  UNL1        0.1380
     27 C         -11.4167  -18.5208   22.2986 C.ar    1  UNL1        0.0280
     28 C         -12.6643  -17.7199   22.0707 C.ar    1  UNL1       -0.0002
     29 C         -13.6905  -17.6043   23.1586 C.ar    1  UNL1       -0.0001
     30 C         -13.4691  -18.2895   24.4744 C.ar    1  UNL1        0.0023
     31 C         -12.2214  -19.0905   24.7024 C.ar    1  UNL1        0.0294
     32 C         -11.1952  -19.2061   23.6144 C.ar    1  UNL1        0.1380
     33 F          -9.9476  -20.0071   23.8423 F       1  UNL1       -0.2044
@<TRIPOS>UNITY_ATOM_ATTR
14 1
charge -1
@<TRIPOS>BOND
     1    14    15   ar
     2    15    16   ar
     3    15    10    1
     4    10    11    1
     5    10    12    2
     6    12     8    1
     7     8     9    2
     8     8     1    1
     9     1     2   ar
    10     2     3   ar
    11     3    17    1
    12    17    18    1
    13    18    19   ar
    14    19    20   ar
    15    20    21   ar
    16    21    22    1
    17    21    23   ar
    18    23    24   ar
    19    24    25    1
    20     3     4   ar
    21     4     5   ar
    22     5    26    1
    23    26    27    1
    24    27    28   ar
    25    28    29   ar
    26    29    30   ar
    27    30    31   ar
    28    31    32   ar
    29    32    33    1
    30     5     6   ar
    31     6     7    2
    32     6     1   ar
    33    24    18   ar
    34    32    27   ar
    35    11    13    1
@<TRIPOS>MOLECULE
*****
 33 35 0 0 0
SMALL
GASTEIGER

@<TRIPOS>ATOM
      1 C         -10.1193  -17.6997   21.1673 C.ar    1  UNL1        0.0949
      2 C          -9.5841  -16.5421   21.9568 C.ar    1  UNL1        0.0055
      3 C          -8.1062  -16.3983   22.1691 C.ar    1  UNL1       -0.0002
      4 C          -7.1635  -17.4123   21.5920 C.ar    1  UNL1        0.0746
      5 N          -7.6986  -18.5700   20.8026 N.ar    1  UNL1       -0.2901
      6 C          -9.1766  -18.7137   20.5902 C.ar    1  UNL1        0.2642
      7 O          -9.7117  -19.8715   19.8007 O.2     1  UNL1       -0.2669
      8 C         -11.5972  -17.8435   20.9549 C.2     1  UNL1        0.2033
      9 O         -12.2227  -17.3573   19.6812 O.2     1  UNL1       -0.2863
     10 C         -13.0789  -17.6200   23.0773 C.2     1  UNL1        0.1507
     11 O         -12.8556  -16.1367   23.0771 O.2     1  UNL1       -0.5043
     12 C         -12.4497  -18.4733   22.0163 C.2     1  UNL1        0.0799
     13 H         -13.2486  -15.6036   23.7399 H       1  UNL1        0.2922
     14 O         -15.3875  -18.5006   23.8804 O.co2   1  UNL1       -0.5416
     15 C         -13.9314  -18.2499   24.1387 C.2     1  UNL1        0.1068
     16 O         -13.3277  -18.6292   25.4585 O.co2   1  UNL1       -0.5416
     17 C          -7.5710  -15.2406   22.9586 C.3     1  UNL1        0.0564
     18 C          -7.2923  -15.3971   24.4242 C.ar    1  UNL1        0.0099
     19 C          -8.4295  -15.5078   25.3962 C.ar    1  UNL1        0.0006
     20 C          -8.1508  -15.6643   26.8618 C.ar    1  UNL1        0.0295
     21 C          -6.7350  -15.7101   27.3553 C.ar    1  UNL1        0.1424
     22 F          -6.4563  -15.8667   28.8209 F       1  UNL1       -0.2041
     23 C          -5.5980  -15.5994   26.3833 C.ar    1  UNL1        0.0589
     24 C          -5.8766  -15.4429   24.9178 C.ar    1  UNL1        0.1387
     25 F          -4.7395  -15.3322   23.9457 F       1  UNL1       -0.2044
     26 C          -6.7559  -19.5840   20.2254 C.3     1  UNL1        0.1380
     27 C          -5.2757  -19.4181   20.4026 C.ar    1  UNL1        0.0280
     28 C          -4.4395  -18.8917   19.2741 C.ar    1  UNL1       -0.0002
     29 C          -2.9593  -18.7258   19.4512 C.ar    1  UNL1       -0.0001
     30 C          -2.3152  -19.0864   20.7570 C.ar    1  UNL1        0.0023
     31 C          -3.1513  -19.6128   21.8857 C.ar    1  UNL1        0.0294
     32 C          -4.6316  -19.7787   21.7085 C.ar    1  UNL1        0.1380
     33 F          -5.4677  -20.3052   22.8370 F       1  UNL1       -0.2044
@<TRIPOS>UNITY_ATOM_ATTR
14 1
charge -1
@<TRIPOS>BOND
     1    14    15   ar
     2    15    16   ar
     3    15    10    1
     4    10    11    1
     5    10    12    2
     6    12     8    1
     7     8     9    2
     8     8     1    1
     9     1     2   ar
    10     2     3   ar
    11     3    17    1
    12    17    18    1
    13    18    19   ar
    14    19    20   ar
    15    20    21   ar
    16    21    22    1
    17    21    23   ar
    18    23    24   ar
    19    24    25    1
    20     3     4   ar
    21     4     5   ar
    22     5    26    1
    23    26    27    1
    24    27    28   ar
    25    28    29   ar
    26    29    30   ar
    27    30    31   ar
    28    31    32   ar
    29    32    33    1
    30     5     6   ar
    31     6     7    2
    32     6     1   ar
    33    24    18   ar
    34    32    27   ar
    35    11    13    1
@<TRIPOS>MOLECULE
*****
 33 35 0 0 0
SMALL
GASTEIGER

@<TRIPOS>ATOM
      1 C          -7.1418  -18.4817   21.8801 C.ar    1  UNL1        0.0949
      2 C          -7.0691  -17.2508   22.7342 C.ar    1  UNL1        0.0055
      3 C          -5.7441  -16.7730   23.2501 C.ar    1  UNL1       -0.0002
      4 C          -4.4918  -17.5263   22.9120 C.ar    1  UNL1        0.0746
      5 N          -4.5645  -18.7572   22.0580 N.ar    1  UNL1       -0.2901
      6 C          -5.8895  -19.2349   21.5420 C.ar    1  UNL1        0.2642
      7 O          -5.9621  -20.4659   20.6879 O.2     1  UNL1       -0.2669
      8 C          -8.4668  -18.9594   21.3642 C.2     1  UNL1        0.2033
      9 O          -8.5210  -19.9315   20.2231 O.2     1  UNL1       -0.2863
     10 C         -10.6917  -17.6295   21.1886 C.2     1  UNL1        0.1507
     11 O         -10.3752  -17.2881   19.7627 O.2     1  UNL1       -0.5043
     12 C          -9.7375  -18.4651   21.9894 C.2     1  UNL1        0.0799
     13 H         -10.9712  -16.7661   19.2626 H       1  UNL1        0.2922
     14 O         -13.2735  -17.7641   21.4457 O.co2   1  UNL1       -0.5416
     15 C         -11.9625  -17.1352   21.8139 C.2     1  UNL1        0.1068
     16 O         -11.9221  -16.0120   22.8073 O.co2   1  UNL1       -0.5416
     17 C          -5.6715  -15.5420   24.1042 C.3     1  UNL1        0.0564
     18 C          -6.5960  -15.3860   25.2751 C.ar    1  UNL1        0.0099
     19 C          -6.0497  -15.4199   26.6718 C.ar    1  UNL1        0.0006
     20 C          -6.9742  -15.2638   27.8426 C.ar    1  UNL1        0.0295
     21 C          -8.4449  -15.0739   27.6169 C.ar    1  UNL1        0.1424
     22 F          -9.3694  -14.9178   28.7878 F       1  UNL1       -0.2041
     23 C          -8.9911  -15.0400   26.2203 C.ar    1  UNL1        0.0589
     24 C          -8.0666  -15.1960   25.0494 C.ar    1  UNL1        0.1387
     25 F          -8.6129  -15.1621   23.6528 F       1  UNL1       -0.2044
     26 C          -3.3121  -19.5105   21.7198 C.3     1  UNL1        0.1380
     27 C          -2.2949  -18.9005   20.8016 C.ar    1  UNL1        0.0280
     28 C          -0.9715  -18.4478   21.3433 C.ar    1  UNL1       -0.0002
     29 C           0.0458  -17.8379   20.4250 C.ar    1  UNL1       -0.0001
     30 C          -0.2604  -17.6807   18.9651 C.ar    1  UNL1        0.0023
     31 C          -1.5839  -18.1334   18.4233 C.ar    1  UNL1        0.0294
     32 C          -2.6012  -18.7434   19.3415 C.ar    1  UNL1        0.1380
     33 F          -3.9246  -19.1961   18.7999 F       1  UNL1       -0.2044
@<TRIPOS>UNITY_ATOM_ATTR
14 1
charge -1
@<TRIPOS>BOND
     1    14    15   ar
     2    15    16   ar
     3    15    10    1
     4    10    11    1
     5    10    12    2
     6    12     8    1
     7     8     9    2
     8     8     1    1
     9     1     2   ar
    10     2     3   ar
    11     3    17    1
    12    17    18    1
    13    18    19   ar
    14    19    20   ar
    15    20    21   ar
    16    21    22    1
    17    21    23   ar
    18    23    24   ar
    19    24    25    1
    20     3     4   ar
    21     4     5   ar
    22     5    26    1
    23    26    27    1
    24    27    28   ar
    25    28    29   ar
    26    29    30   ar
    27    30    31   ar
    28    31    32   ar
    29    32    33    1
    30     5     6   ar
    31     6     7    2
    32     6     1   ar
    33    24    18   ar
    34    32    27   ar
    35    11    13    1
@<TRIPOS>MOLECULE
*****
 33 35 0 0 0
SMALL
GASTEIGER

@<TRIPOS>ATOM
      1 C           4.4955   -3.0500   21.4601 C.ar    1  UNL1        0.0949
      2 C           3.7030   -2.0816   22.2871 C.ar    1  UNL1        0.0055
      3 C           4.1932   -1.6798   23.6466 C.ar    1  UNL1       -0.0002
      4 C           5.4760   -2.2463   24.1791 C.ar    1  UNL1        0.0746
      5 N           6.2685   -3.2147   23.3521 N.ar    1  UNL1       -0.2901
      6 C           5.7783   -3.6166   21.9926 C.ar    1  UNL1        0.2642
      7 O           6.5709   -4.5851   21.1656 O.2     1  UNL1       -0.2669
      8 C           4.0053   -3.4519   20.1006 C.2     1  UNL1        0.2033
      9 O           3.5228   -4.8518   19.8609 O.2     1  UNL1       -0.2863
     10 C           5.2754   -2.1090   18.2749 C.2     1  UNL1        0.1507
     11 O           6.5608   -2.7619   18.6888 O.2     1  UNL1       -0.5043
     12 C           3.9977   -2.4540   18.9809 C.2     1  UNL1        0.0799
     13 H           7.3590   -2.5464   18.2478 H       1  UNL1        0.2922
     14 O           4.0277   -0.9141   16.3344 O.co2   1  UNL1       -0.5416
     15 C           5.2677   -1.1109   17.1551 C.2     1  UNL1        0.1068
     16 O           6.5001   -0.3097   16.8561 O.co2   1  UNL1       -0.5416
     17 C           3.4006   -0.7113   24.4737 C.3     1  UNL1        0.0564
     18 C           2.7478    0.4720   23.8227 C.ar    1  UNL1        0.0099
     19 C           1.2565    0.6265   23.8708 C.ar    1  UNL1        0.0006
     20 C           0.6037    1.8097   23.2199 C.ar    1  UNL1        0.0295
     21 C           1.4422    2.8385   22.5208 C.ar    1  UNL1        0.1424
     22 F           0.7894    4.0217   21.8698 F       1  UNL1       -0.2041
     23 C           2.9334    2.6840   22.4727 C.ar    1  UNL1        0.0589
     24 C           3.5862    1.5007   23.1236 C.ar    1  UNL1        0.1387
     25 F           5.0775    1.3462   23.0755 F       1  UNL1       -0.2044
     26 C           7.5513   -3.7813   23.8845 C.3     1  UNL1        0.1380
     27 C           7.5506   -5.1044   24.5912 C.ar    1  UNL1        0.0280
     28 C           6.8879   -5.2392   25.9301 C.ar    1  UNL1       -0.0002
     29 C           6.8871   -6.5623   26.6368 C.ar    1  UNL1       -0.0001
     30 C           7.5491   -7.7506   26.0046 C.ar    1  UNL1        0.0023
     31 C           8.2118   -7.6159   24.6656 C.ar    1  UNL1        0.0294
     32 C           8.2126   -6.2928   23.9590 C.ar    1  UNL1        0.1380
     33 F           8.8753   -6.1580   22.6201 F       1  UNL1       -0.2044
@<TRIPOS>UNITY_ATOM_ATTR
14 1
charge -1
@<TRIPOS>BOND
     1    14    15   ar
     2    15    16   ar
     3    15    10    1
     4    10    11    1
     5    10    12    2
     6    12     8    1
     7     8     9    2
     8     8     1    1
     9     1     2   ar
    10     2     3   ar
    11     3    17    1
    12    17    18    1
    13    18    19   ar
    14    19    20   ar
    15    20    21   ar
    16    21    22    1
    17    21    23   ar
    18    23    24   ar
    19    24    25    1
    20     3     4   ar
    21     4     5   ar
    22     5    26    1
    23    26    27    1
    24    27    28   ar
    25    28    29   ar
    26    29    30   ar
    27    30    31   ar
    28    31    32   ar
    29    32    33    1
    30     5     6   ar
    31     6     7    2
    32     6     1   ar
    33    24    18   ar
    34    32    27   ar
    35    11    13    1
@<TRIPOS>MOLECULE
*****
 33 35 0 0 0
SMALL
GASTEIGER

@<TRIPOS>ATOM
      1 C           4.1022   -0.3514   33.7200 C.ar    1  UNL1        0.0949
      2 C           3.2862    0.2725   32.6269 C.ar    1  UNL1        0.0055
      3 C           2.5818    1.5749   32.8669 C.ar    1  UNL1       -0.0002
      4 C           2.6935    2.2534   34.2000 C.ar    1  UNL1        0.0746
      5 N           3.5095    1.6296   35.2930 N.ar    1  UNL1       -0.2901
      6 C           4.2139    0.3271   35.0530 C.ar    1  UNL1        0.2642
      7 O           5.0300   -0.2967   36.1461 O.2     1  UNL1       -0.2669
      8 C           4.8066   -1.6538   33.4800 C.2     1  UNL1        0.2033
      9 O           4.0560   -2.9465   33.6047 O.2     1  UNL1       -0.2863
     10 C           6.8527   -2.8545   32.4209 C.2     1  UNL1        0.1507
     11 O           5.9890   -4.0357   32.0913 O.2     1  UNL1       -0.5043
     12 C           6.2615   -1.6635   33.1152 C.2     1  UNL1        0.0799
     13 H           6.3583   -4.7797   31.6576 H       1  UNL1        0.2922
     14 O           8.9348   -4.1110   31.5065 O.co2   1  UNL1       -0.5416
     15 C           8.3077   -2.8642   32.0561 C.2     1  UNL1        0.1068
     16 O           9.1355   -1.6270   32.2411 O.co2   1  UNL1       -0.5416
     17 C           1.7658    2.1988   31.7738 C.3     1  UNL1        0.0564
     18 C           1.9208    1.7256   30.3588 C.ar    1  UNL1        0.0099
     19 C           0.8928    0.8147   29.7557 C.ar    1  UNL1        0.0006
     20 C           1.0478    0.3415   28.3408 C.ar    1  UNL1        0.0295
     21 C           2.2308    0.7792   27.5289 C.ar    1  UNL1        0.1424
     22 F           2.3859    0.3060   26.1140 F       1  UNL1       -0.2041
     23 C           3.2587    1.6900   28.1320 C.ar    1  UNL1        0.0589
     24 C           3.1037    2.1632   29.5470 C.ar    1  UNL1        0.1387
     25 F           4.1317    3.0741   30.1501 F       1  UNL1       -0.2044
     26 C           3.6212    2.3081   36.6261 C.3     1  UNL1        0.1380
     27 C           2.5974    2.0442   37.6901 C.ar    1  UNL1        0.0280
     28 C           2.6148    0.7466   38.4424 C.ar    1  UNL1       -0.0002
     29 C           1.5909    0.4827   39.5063 C.ar    1  UNL1       -0.0001
     30 C           0.5497    1.5164   39.8181 C.ar    1  UNL1        0.0023
     31 C           0.5322    2.8141   39.0659 C.ar    1  UNL1        0.0294
     32 C           1.5561    3.0780   38.0019 C.ar    1  UNL1        0.1380
     33 F           1.5387    4.3756   37.2496 F       1  UNL1       -0.2044
@<TRIPOS>UNITY_ATOM_ATTR
14 1
charge -1
@<TRIPOS>BOND
     1    14    15   ar
     2    15    16   ar
     3    15    10    1
     4    10    11    1
     5    10    12    2
     6    12     8    1
     7     8     9    2
     8     8     1    1
     9     1     2   ar
    10     2     3   ar
    11     3    17    1
    12    17    18    1
    13    18    19   ar
    14    19    20   ar
    15    20    21   ar
    16    21    22    1
    17    21    23   ar
    18    23    24   ar
    19    24    25    1
    20     3     4   ar
    21     4     5   ar
    22     5    26    1
    23    26    27    1
    24    27    28   ar
    25    28    29   ar
    26    29    30   ar
    27    30    31   ar
    28    31    32   ar
    29    32    33    1
    30     5     6   ar
    31     6     7    2
    32     6     1   ar
    33    24    18   ar
    34    32    27   ar
    35    11    13    1
@<TRIPOS>MOLECULE
*****
 33 35 0 0 0
SMALL
GASTEIGER

@<TRIPOS>ATOM
      1 C           4.4953   -1.0785   24.9276 C.ar    1  UNL1        0.0949
      2 C           3.8785   -1.6260   23.6747 C.ar    1  UNL1        0.0055
      3 C           4.5072   -2.7966   22.9787 C.ar    1  UNL1       -0.0002
      4 C           5.7528   -3.4197   23.5356 C.ar    1  UNL1        0.0746
      5 N           6.3696   -2.8722   24.7885 N.ar    1  UNL1       -0.2901
      6 C           5.7409   -1.7017   25.4845 C.ar    1  UNL1        0.2642
      7 O           6.3578   -1.1542   26.7374 O.2     1  UNL1       -0.2669
      8 C           3.8666    0.0921   25.6236 C.2     1  UNL1        0.2033
      9 O           4.3648    1.4810   25.3540 O.2     1  UNL1       -0.2863
     10 C           3.0080   -0.1383   28.0648 C.2     1  UNL1        0.1507
     11 O           4.4033    0.0680   28.5750 O.2     1  UNL1       -0.5043
     12 C           2.7396   -0.1262   26.5891 C.2     1  UNL1        0.0799
     13 H           4.5710    0.0604   29.4969 H       1  UNL1        0.2922
     14 O           2.1730   -0.7576   30.4459 O.co2   1  UNL1       -0.5416
     15 C           1.8809   -0.3566   29.0303 C.2     1  UNL1        0.1068
     16 O           0.4618   -0.1740   28.5802 O.co2   1  UNL1       -0.5416
     17 C           3.8903   -3.3440   21.7258 C.3     1  UNL1        0.0564
     18 C           4.0679   -2.6200   20.4241 C.ar    1  UNL1        0.0099
     19 C           5.1997   -2.9865   19.5104 C.ar    1  UNL1        0.0006
     20 C           5.3772   -2.2626   18.2087 C.ar    1  UNL1        0.0295
     21 C           4.4230   -1.1721   17.8208 C.ar    1  UNL1        0.1424
     22 F           4.6006   -0.4481   16.5192 F       1  UNL1       -0.2041
     23 C           3.2913   -0.8056   18.7345 C.ar    1  UNL1        0.0589
     24 C           3.1138   -1.5296   20.0362 C.ar    1  UNL1        0.1387
     25 F           1.9820   -1.1631   20.9499 F       1  UNL1       -0.2044
     26 C           7.6153   -3.4954   25.3454 C.3     1  UNL1        0.1380
     27 C           7.7747   -4.9869   25.3402 C.ar    1  UNL1        0.0280
     28 C           8.6519   -5.6438   24.3161 C.ar    1  UNL1       -0.0002
     29 C           8.8113   -7.1353   24.3108 C.ar    1  UNL1       -0.0001
     30 C           8.0934   -7.9699   25.3297 C.ar    1  UNL1        0.0023
     31 C           7.2162   -7.3130   26.3539 C.ar    1  UNL1        0.0294
     32 C           7.0568   -5.8215   26.3591 C.ar    1  UNL1        0.1380
     33 F           6.1796   -5.1645   27.3833 F       1  UNL1       -0.2044
@<TRIPOS>UNITY_ATOM_ATTR
14 1
charge -1
@<TRIPOS>BOND
     1    14    15   ar
     2    15    16   ar
     3    15    10    1
     4    10    11    1
     5    10    12    2
     6    12     8    1
     7     8     9    2
     8     8     1    1
     9     1     2   ar
    10     2     3   ar
    11     3    17    1
    12    17    18    1
    13    18    19   ar
    14    19    20   ar
    15    20    21   ar
    16    21    22    1
    17    21    23   ar
    18    23    24   ar
    19    24    25    1
    20     3     4   ar
    21     4     5   ar
    22     5    26    1
    23    26    27    1
    24    27    28   ar
    25    28    29   ar
    26    29    30   ar
    27    30    31   ar
    28    31    32   ar
    29    32    33    1
    30     5     6   ar
    31     6     7    2
    32     6     1   ar
    33    24    18   ar
    34    32    27   ar
    35    11    13    1
