@<TRIPOS>MOLECULE
*****
 36 39 0 0 0
SMALL
GASTEIGER

@<TRIPOS>ATOM
      1 C         -12.0322   -2.3516   18.9737 C.3     1  UNL1        0.0545
      2 C         -11.6676   -1.1645   18.1323 C.3     1  UNL1        0.0162
      3 C         -12.8916   -0.3109   17.9799 C.3     1  UNL1        0.0100
      4 C         -14.0127   -0.9705   18.7271 C.3     1  UNL1        0.0704
      5 C         -13.4815   -2.2317   19.3412 C.3     1  UNL1        0.0243
      6 C         -15.3010   -1.3845   19.3741 C.2     1  UNL1        0.2248
      7 O         -15.9239   -0.5172   20.4276 O.2     1  UNL1       -0.2749
      8 N         -15.9665   -2.6660   18.9678 N.am    1  UNL1       -0.2760
      9 C         -17.2548   -3.0801   19.6148 C.3     1  UNL1        0.1149
     10 C         -17.9202   -4.3615   19.2084 C.3     1  UNL1        0.1137
     11 N         -17.2973   -5.2289   18.1549 N.pl3   1  UNL1       -0.2897
     12 C         -16.0089   -4.8147   17.5079 C.3     1  UNL1        0.1137
     13 C         -15.3435   -3.5333   17.9144 C.3     1  UNL1        0.1149
     14 C         -17.9627   -6.5103   17.7485 C.ar    1  UNL1        0.1317
     15 C         -17.3864   -7.8253   18.1832 C.ar    1  UNL1        0.0382
     16 C         -18.0518   -9.1067   17.7767 C.ar    1  UNL1        0.0757
     17 C         -19.2934   -9.0732   16.9358 C.ar    1  UNL1        0.0246
     18 C         -19.8697   -7.7583   16.5011 C.ar    1  UNL1        0.1002
     19 N         -19.2043   -6.4768   16.9076 N.ar    1  UNL1       -0.2292
     20 C         -17.4756  -10.4216   18.2113 C.3     1  UNL1        0.4187
     21 F         -16.8994  -11.7366   18.6459 F       1  UNL1       -0.1659
     22 F         -16.1247   -9.7843   18.3485 F       1  UNL1       -0.1659
     23 F         -18.8265  -11.0589   18.0741 F       1  UNL1       -0.1659
     24 C         -14.8131    0.2041   18.2482 C.3     1  UNL1        0.0082
     25 C         -15.7614    0.0463   17.0968 C.3     1  UNL1        0.0005
     26 C         -14.8793    1.1457   18.5269 C.3     1  UNL1        0.0005
     27 N         -11.1094   -3.4634   19.3767 N.3     1  UNL1       -0.2975
     28 H         -10.1777   -3.2054   19.0514 H       1  UNL1        0.1232
     29 C         -10.3977   -5.5189   17.9559 C.3     1  UNL1        0.1591
     30 C         -10.6526   -6.9166   17.4749 C.3     1  UNL1        0.1729
     31 O         -11.8741   -7.6566   17.9336 O.3     1  UNL1       -0.3511
     32 C         -12.8407   -6.9989   18.8733 C.3     1  UNL1        0.1437
     33 C         -12.5858   -5.6012   19.3543 C.3     1  UNL1        0.0503
     34 C         -11.3643   -4.8612   18.8956 C.3     1  UNL1        0.0865
     35 C          -9.2594   -3.8492   16.3231 C.3     1  UNL1        0.1742
     36 O          -9.1762   -4.7789   17.4972 O.3     1  UNL1       -0.3496
@<TRIPOS>BOND
     1    35    36    1
     2    29    36    1
     3    29    30    1
     4    30    31    1
     5    31    32    1
     6    32    33    1
     7    33    34    1
     8    34    27    1
     9     1    27    1
    10     1     2    1
    11     2     3    1
    12     3     4    1
    13     4     6    1
    14     6     7    2
    15     6     8   am
    16     8     9    1
    17     9    10    1
    18    10    11    1
    19    11    14    1
    20    14    15   ar
    21    15    16   ar
    22    16    20    1
    23    20    21    1
    24    20    22    1
    25    20    23    1
    26    16    17   ar
    27    17    18   ar
    28    18    19   ar
    29    11    12    1
    30    12    13    1
    31     4    24    1
    32    24    25    1
    33    24    26    1
    34     4     5    1
    35    34    29    1
    36     5     1    1
    37    13     8    1
    38    19    14   ar
    39    27    28    1
@<TRIPOS>MOLECULE
*****
 36 39 0 0 0
SMALL
GASTEIGER

@<TRIPOS>ATOM
      1 C          -3.4535    3.1772   20.5929 C.3     1  UNL1        0.0545
      2 C          -3.6548    3.5752   19.1608 C.3     1  UNL1        0.0162
      3 C          -2.3383    4.0523   18.6229 C.3     1  UNL1        0.0100
      4 C          -1.3235    3.9493   19.7226 C.3     1  UNL1        0.0704
      5 C          -2.0127    3.4084   20.9402 C.3     1  UNL1        0.0243
      6 C          -0.1116    3.9597   20.6065 C.2     1  UNL1        0.2248
      7 O           0.3159    5.2310   21.2782 O.2     1  UNL1       -0.2749
      8 N           0.6728    2.6989   20.8186 N.am    1  UNL1       -0.2760
      9 C           1.8847    2.7092   21.7025 C.3     1  UNL1        0.1149
     10 C           2.6691    1.4484   21.9146 C.3     1  UNL1        0.1137
     11 N           2.2416    0.1772   21.2429 N.pl3   1  UNL1       -0.2897
     12 C           1.0297    0.1668   20.3590 C.3     1  UNL1        0.1137
     13 C           0.2453    1.4277   20.1469 C.3     1  UNL1        0.1149
     14 C           3.0260   -1.0837   21.4550 C.ar    1  UNL1        0.1317
     15 C           3.2742   -2.0149   20.3054 C.ar    1  UNL1        0.0382
     16 C           4.0586   -3.2757   20.5175 C.ar    1  UNL1        0.0757
     17 C           4.5947   -3.6054   21.8791 C.ar    1  UNL1        0.0246
     18 C           4.3465   -2.6743   23.0286 C.ar    1  UNL1        0.1002
     19 N           3.5621   -1.4134   22.8165 N.ar    1  UNL1       -0.2292
     20 C           4.3068   -4.2069   19.3681 C.3     1  UNL1        0.4187
     21 F           4.5550   -5.1381   18.2187 F       1  UNL1       -0.1659
     22 F           5.7740   -4.2007   19.6799 F       1  UNL1       -0.1659
     23 F           2.8396   -4.2131   19.0562 F       1  UNL1       -0.1659
     24 C          -0.3810    4.4923   18.6899 C.3     1  UNL1        0.0082
     25 C          -0.4377    5.9426   18.3112 C.3     1  UNL1        0.0005
     26 C           0.3365    4.0974   18.1440 C.3     1  UNL1        0.0005
     27 N          -4.5080    2.6420   21.5158 N.3     1  UNL1       -0.2975
     28 H          -5.1235    2.0563   20.9515 H       1  UNL1        0.1232
     29 C          -5.1989    3.7649   23.7546 C.3     1  UNL1        0.1591
     30 C          -6.0796    4.7108   24.5159 C.3     1  UNL1        0.1729
     31 O          -7.1500    5.4799   23.7998 O.3     1  UNL1       -0.3511
     32 C          -7.3397    5.3030   22.3224 C.3     1  UNL1        0.1437
     33 C          -6.4590    4.3571   21.5611 C.3     1  UNL1        0.0503
     34 C          -5.3886    3.5880   22.2772 C.3     1  UNL1        0.0865
     35 C          -2.7811    3.6159   24.6936 C.3     1  UNL1        0.1742
     36 O          -4.1285    2.9958   24.4707 O.3     1  UNL1       -0.3496
@<TRIPOS>BOND
     1    35    36    1
     2    29    36    1
     3    29    30    1
     4    30    31    1
     5    31    32    1
     6    32    33    1
     7    33    34    1
     8    34    27    1
     9     1    27    1
    10     1     2    1
    11     2     3    1
    12     3     4    1
    13     4     6    1
    14     6     7    2
    15     6     8   am
    16     8     9    1
    17     9    10    1
    18    10    11    1
    19    11    14    1
    20    14    15   ar
    21    15    16   ar
    22    16    20    1
    23    20    21    1
    24    20    22    1
    25    20    23    1
    26    16    17   ar
    27    17    18   ar
    28    18    19   ar
    29    11    12    1
    30    12    13    1
    31     4    24    1
    32    24    25    1
    33    24    26    1
    34     4     5    1
    35    34    29    1
    36     5     1    1
    37    13     8    1
    38    19    14   ar
    39    27    28    1
@<TRIPOS>MOLECULE
*****
 36 39 0 0 0
SMALL
GASTEIGER

@<TRIPOS>ATOM
      1 C          -3.3882    3.3783   20.2063 C.3     1  UNL1        0.0545
      2 C          -3.6475    4.1260   18.9321 C.3     1  UNL1        0.0162
      3 C          -2.3526    4.7322   18.4785 C.3     1  UNL1        0.0100
      4 C          -1.2929    4.3591   19.4724 C.3     1  UNL1        0.0704
      5 C          -1.9329    3.5223   20.5402 C.3     1  UNL1        0.0243
      6 C          -0.0449    4.1519   20.2783 C.2     1  UNL1        0.2248
      7 O           0.3193    5.1247   21.3605 O.2     1  UNL1       -0.2749
      8 N           0.8389    2.9718   20.0021 N.am    1  UNL1       -0.2760
      9 C           2.0869    2.7645   20.8079 C.3     1  UNL1        0.1149
     10 C           2.9707    1.5844   20.5317 C.3     1  UNL1        0.1137
     11 N           2.6065    0.6116   19.4495 N.pl3   1  UNL1       -0.2897
     12 C           1.3584    0.8189   18.6437 C.3     1  UNL1        0.1137
     13 C           0.4747    1.9990   18.9200 C.3     1  UNL1        0.1149
     14 C           3.4903   -0.5685   19.1732 C.ar    1  UNL1        0.1317
     15 C           3.0648   -1.9411   19.6035 C.ar    1  UNL1        0.0382
     16 C           3.9486   -3.1212   19.3272 C.ar    1  UNL1        0.0757
     17 C           5.2577   -2.9287   18.6207 C.ar    1  UNL1        0.0246
     18 C           5.6831   -1.5562   18.1905 C.ar    1  UNL1        0.1002
     19 N           4.7993   -0.3761   18.4668 N.ar    1  UNL1       -0.2292
     20 C           3.5232   -4.4937   19.7575 C.3     1  UNL1        0.4187
     21 F           3.0979   -5.8663   20.1877 F       1  UNL1       -0.1659
     22 F           4.4767   -4.4269   20.9135 F       1  UNL1       -0.1659
     23 F           2.5697   -4.5606   18.6014 F       1  UNL1       -0.1659
     24 C          -0.3921    5.1526   18.5731 C.3     1  UNL1        0.0082
     25 C          -0.1955    6.6201   18.8138 C.3     1  UNL1        0.0005
     26 C           0.1569    4.9307   17.7869 C.3     1  UNL1        0.0005
     27 N          -4.4054    2.6196   21.0061 N.3     1  UNL1       -0.2975
     28 H          -5.1923    2.4363   20.3836 H       1  UNL1        0.1232
     29 C          -6.2140    4.0607   22.1905 C.3     1  UNL1        0.1591
     30 C          -6.7826    4.6601   23.4423 C.3     1  UNL1        0.1729
     31 O          -6.1114    4.4181   24.7618 O.3     1  UNL1       -0.3511
     32 C          -4.8716    3.5766   24.8293 C.3     1  UNL1        0.1437
     33 C          -4.3029    2.9772   23.5775 C.3     1  UNL1        0.0503
     34 C          -4.9741    3.2192   22.2580 C.3     1  UNL1        0.0865
     35 C          -6.6799    5.6033   20.1526 C.3     1  UNL1        0.1742
     36 O          -6.8852    4.3027   20.8710 O.3     1  UNL1       -0.3496
@<TRIPOS>BOND
     1    35    36    1
     2    29    36    1
     3    29    30    1
     4    30    31    1
     5    31    32    1
     6    32    33    1
     7    33    34    1
     8    34    27    1
     9     1    27    1
    10     1     2    1
    11     2     3    1
    12     3     4    1
    13     4     6    1
    14     6     7    2
    15     6     8   am
    16     8     9    1
    17     9    10    1
    18    10    11    1
    19    11    14    1
    20    14    15   ar
    21    15    16   ar
    22    16    20    1
    23    20    21    1
    24    20    22    1
    25    20    23    1
    26    16    17   ar
    27    17    18   ar
    28    18    19   ar
    29    11    12    1
    30    12    13    1
    31     4    24    1
    32    24    25    1
    33    24    26    1
    34     4     5    1
    35    34    29    1
    36     5     1    1
    37    13     8    1
    38    19    14   ar
    39    27    28    1
@<TRIPOS>MOLECULE
*****
 36 39 0 0 0
SMALL
GASTEIGER

@<TRIPOS>ATOM
      1 C         -10.1152  -16.2535   23.6705 C.3     1  UNL1        0.0545
      2 C         -11.3545  -16.0842   22.8427 C.3     1  UNL1        0.0162
      3 C         -11.5977  -17.3672   22.1045 C.3     1  UNL1        0.0100
      4 C         -10.5087  -18.3294   22.4762 C.3     1  UNL1        0.0704
      5 C          -9.5925  -17.6411   23.4441 C.3     1  UNL1        0.0243
      6 C          -9.5702  -19.4860   22.6533 C.2     1  UNL1        0.2248
      7 O         -10.0662  -20.7699   23.2495 O.2     1  UNL1       -0.2749
      8 N          -8.1355  -19.3587   22.2342 N.am    1  UNL1       -0.2760
      9 C          -7.1969  -20.5152   22.4113 C.3     1  UNL1        0.1149
     10 C          -5.7623  -20.3878   21.9922 C.3     1  UNL1        0.1137
     11 N          -5.2663  -19.1039   21.3960 N.pl3   1  UNL1       -0.2897
     12 C          -6.2049  -17.9474   21.2189 C.3     1  UNL1        0.1137
     13 C          -7.6395  -18.0747   21.6380 C.3     1  UNL1        0.1149
     14 C          -3.8316  -18.9765   20.9769 C.ar    1  UNL1        0.1317
     15 C          -3.4915  -18.4181   19.6268 C.ar    1  UNL1        0.0382
     16 C          -2.0569  -18.2907   19.2077 C.ar    1  UNL1        0.0757
     17 C          -0.9625  -18.7217   20.1386 C.ar    1  UNL1        0.0246
     18 C          -1.3026  -19.2801   21.4886 C.ar    1  UNL1        0.1002
     19 N          -2.7372  -19.4074   21.9077 N.ar    1  UNL1       -0.2292
     20 C          -1.7167  -17.7324   17.8577 C.3     1  UNL1        0.4187
     21 F          -1.3765  -17.1740   16.5078 F       1  UNL1       -0.1659
     22 F          -3.1420  -17.3015   17.6767 F       1  UNL1       -0.1659
     23 F          -0.2913  -18.1632   18.0388 F       1  UNL1       -0.1659
     24 C         -11.2287  -19.2594   21.5454 C.3     1  UNL1        0.0082
     25 C         -10.7393  -19.4406   20.1391 C.3     1  UNL1        0.0005
     26 C         -12.0199  -19.8382   21.6339 C.3     1  UNL1        0.0005
     27 N          -9.5057  -15.2171   24.5674 N.3     1  UNL1       -0.2975
     28 H          -9.7867  -14.3079   24.2003 H       1  UNL1        0.1232
     29 C          -7.4311  -15.2629   26.1308 C.3     1  UNL1        0.1591
     30 C          -5.9436  -15.2136   26.3171 C.3     1  UNL1        0.1729
     31 O          -5.0430  -15.0691   25.1263 O.3     1  UNL1       -0.3511
     32 C          -5.6299  -14.9740   23.7492 C.3     1  UNL1        0.1437
     33 C          -7.1174  -15.0233   23.5629 C.3     1  UNL1        0.0503
     34 C          -8.0180  -15.1678   24.7537 C.3     1  UNL1        0.0865
     35 C          -8.7491  -16.7715   27.7852 C.3     1  UNL1        0.1742
     36 O          -8.3317  -15.4074   27.3216 O.3     1  UNL1       -0.3496
@<TRIPOS>BOND
     1    35    36    1
     2    29    36    1
     3    29    30    1
     4    30    31    1
     5    31    32    1
     6    32    33    1
     7    33    34    1
     8    34    27    1
     9     1    27    1
    10     1     2    1
    11     2     3    1
    12     3     4    1
    13     4     6    1
    14     6     7    2
    15     6     8   am
    16     8     9    1
    17     9    10    1
    18    10    11    1
    19    11    14    1
    20    14    15   ar
    21    15    16   ar
    22    16    20    1
    23    20    21    1
    24    20    22    1
    25    20    23    1
    26    16    17   ar
    27    17    18   ar
    28    18    19   ar
    29    11    12    1
    30    12    13    1
    31     4    24    1
    32    24    25    1
    33    24    26    1
    34     4     5    1
    35    34    29    1
    36     5     1    1
    37    13     8    1
    38    19    14   ar
    39    27    28    1
@<TRIPOS>MOLECULE
*****
 36 39 0 0 0
SMALL
GASTEIGER

@<TRIPOS>ATOM
      1 C           4.3856   -0.5712   17.7078 C.3     1  UNL1        0.0545
      2 C           5.2707    0.5579   17.2702 C.3     1  UNL1        0.0162
      3 C           4.6153    1.8447   17.6760 C.3     1  UNL1        0.0100
      4 C           3.3251    1.5109   18.3644 C.3     1  UNL1        0.0704
      5 C           3.1831    0.0177   18.3840 C.3     1  UNL1        0.0243
      6 C           2.0070    1.4881   19.0799 C.2     1  UNL1        0.2248
      7 O           0.7279    1.5076   18.2966 O.2     1  UNL1       -0.2749
      8 N           1.9679    1.4457   20.5788 N.am    1  UNL1       -0.2760
      9 C           0.6498    1.4229   21.2944 C.3     1  UNL1        0.1149
     10 C           0.6108    1.3806   22.7933 C.3     1  UNL1        0.1137
     11 N           1.8899    1.3610   23.5766 N.pl3   1  UNL1       -0.2897
     12 C           3.2080    1.3838   22.8610 C.3     1  UNL1        0.1137
     13 C           3.2470    1.4262   21.3621 C.3     1  UNL1        0.1149
     14 C           1.8509    1.3187   25.0755 C.ar    1  UNL1        0.1317
     15 C           0.5506    1.0836   25.7855 C.ar    1  UNL1        0.0382
     16 C           0.5116    1.0413   27.2844 C.ar    1  UNL1        0.0757
     17 C           1.7728    1.2339   28.0732 C.ar    1  UNL1        0.0246
     18 C           3.0730    1.4690   27.3633 C.ar    1  UNL1        0.1002
     19 N           3.1120    1.5113   25.8644 N.ar    1  UNL1       -0.2292
     20 C          -0.7886    0.8063   27.9945 C.3     1  UNL1        0.4187
     21 F          -2.0888    0.5712   28.7046 F       1  UNL1       -0.1659
     22 F          -1.3747    2.0110   27.3200 F       1  UNL1       -0.1659
     23 F          -0.2025   -0.3985   28.6690 F       1  UNL1       -0.1659
     24 C           3.1915    2.9992   18.4942 C.3     1  UNL1        0.0082
     25 C           4.3009    3.8012   19.1075 C.3     1  UNL1        0.0005
     26 C           2.4896    3.6462   18.2546 C.3     1  UNL1        0.0005
     27 N           4.6555   -2.0327   17.5049 N.3     1  UNL1       -0.2975
     28 H           3.9690   -2.3679   16.8290 H       1  UNL1        0.1232
     29 C           5.6022   -2.8347   19.7876 C.3     1  UNL1        0.1591
     30 C           5.5553   -3.7752   20.9551 C.3     1  UNL1        0.1729
     31 O           4.5148   -4.8544   21.0075 O.3     1  UNL1       -0.3511
     32 C           3.5212   -4.9930   19.8924 C.3     1  UNL1        0.1437
     33 C           3.5681   -4.0524   18.7249 C.3     1  UNL1        0.0503
     34 C           4.6086   -2.9733   18.6725 C.3     1  UNL1        0.0865
     35 C           7.9531   -2.0097   19.0508 C.3     1  UNL1        0.1742
     36 O           6.6428   -1.7555   19.7351 O.3     1  UNL1       -0.3496
@<TRIPOS>BOND
     1    35    36    1
     2    29    36    1
     3    29    30    1
     4    30    31    1
     5    31    32    1
     6    32    33    1
     7    33    34    1
     8    34    27    1
     9     1    27    1
    10     1     2    1
    11     2     3    1
    12     3     4    1
    13     4     6    1
    14     6     7    2
    15     6     8   am
    16     8     9    1
    17     9    10    1
    18    10    11    1
    19    11    14    1
    20    14    15   ar
    21    15    16   ar
    22    16    20    1
    23    20    21    1
    24    20    22    1
    25    20    23    1
    26    16    17   ar
    27    17    18   ar
    28    18    19   ar
    29    11    12    1
    30    12    13    1
    31     4    24    1
    32    24    25    1
    33    24    26    1
    34     4     5    1
    35    34    29    1
    36     5     1    1
    37    13     8    1
    38    19    14   ar
    39    27    28    1
@<TRIPOS>MOLECULE
*****
 36 39 0 0 0
SMALL
GASTEIGER

@<TRIPOS>ATOM
      1 C           2.1303    0.1117   19.4070 C.3     1  UNL1        0.0545
      2 C           0.6880    0.2071   19.8080 C.3     1  UNL1        0.0162
      3 C           0.6334    0.6467   21.2411 C.3     1  UNL1        0.0100
      4 C           2.0419    0.8230   21.7259 C.3     1  UNL1        0.0704
      5 C           2.9670    0.4923   20.5923 C.3     1  UNL1        0.0243
      6 C           3.3126    1.0796   22.4805 C.2     1  UNL1        0.2248
      7 O           3.7987    2.4852   22.6749 O.2     1  UNL1       -0.2749
      8 N           4.0973   -0.0695   23.0408 N.am    1  UNL1       -0.2760
      9 C           5.3680    0.1869   23.7954 C.3     1  UNL1        0.1149
     10 C           6.1525   -0.9622   24.3557 C.3     1  UNL1        0.1137
     11 N           5.6664   -2.3679   24.1613 N.pl3   1  UNL1       -0.2897
     12 C           4.3957   -2.6244   23.4066 C.3     1  UNL1        0.1137
     13 C           3.6111   -1.4752   22.8464 C.3     1  UNL1        0.1149
     14 C           6.4510   -3.5170   24.7215 C.ar    1  UNL1        0.1317
     15 C           7.0334   -4.5475   23.8001 C.ar    1  UNL1        0.0382
     16 C           7.8180   -5.6967   24.3604 C.ar    1  UNL1        0.0757
     17 C           8.0201   -5.8154   25.8419 C.ar    1  UNL1        0.0246
     18 C           7.4378   -4.7849   26.7633 C.ar    1  UNL1        0.1002
     19 N           6.6532   -3.6358   26.2030 N.ar    1  UNL1       -0.2292
     20 C           8.4004   -6.7272   23.4390 C.3     1  UNL1        0.4187
     21 F           8.9828   -7.7577   22.5177 F       1  UNL1       -0.1659
     22 F           8.7048   -5.6564   22.4337 F       1  UNL1       -0.1659
     23 F           8.0960   -7.7980   24.4444 F       1  UNL1       -0.1659
     24 C           1.3825    1.2073   23.0171 C.3     1  UNL1        0.0082
     25 C           0.4846    2.4076   23.0726 C.3     1  UNL1        0.0005
     26 C           1.3916    0.8330   23.9273 C.3     1  UNL1        0.0005
     27 N           2.6453   -0.2932   18.0577 N.3     1  UNL1       -0.2975
     28 H           2.0631   -1.0685   17.7408 H       1  UNL1        0.1232
     29 C           4.4777   -2.1207   18.2874 C.3     1  UNL1        0.1591
     30 C           5.9039   -2.5573   18.1291 C.3     1  UNL1        0.1729
     31 O           6.9242   -1.6030   17.5828 O.3     1  UNL1       -0.3511
     32 C           6.5182   -0.2122   17.1948 C.3     1  UNL1        0.1437
     33 C           5.0919    0.2244   17.3531 C.3     1  UNL1        0.0503
     34 C           4.0716   -0.7299   17.8994 C.3     1  UNL1        0.0865
     35 C           3.8326   -4.5027   19.0997 C.3     1  UNL1        0.1742
     36 O           3.4574   -3.0750   18.8337 O.3     1  UNL1       -0.3496
@<TRIPOS>BOND
     1    35    36    1
     2    29    36    1
     3    29    30    1
     4    30    31    1
     5    31    32    1
     6    32    33    1
     7    33    34    1
     8    34    27    1
     9     1    27    1
    10     1     2    1
    11     2     3    1
    12     3     4    1
    13     4     6    1
    14     6     7    2
    15     6     8   am
    16     8     9    1
    17     9    10    1
    18    10    11    1
    19    11    14    1
    20    14    15   ar
    21    15    16   ar
    22    16    20    1
    23    20    21    1
    24    20    22    1
    25    20    23    1
    26    16    17   ar
    27    17    18   ar
    28    18    19   ar
    29    11    12    1
    30    12    13    1
    31     4    24    1
    32    24    25    1
    33    24    26    1
    34     4     5    1
    35    34    29    1
    36     5     1    1
    37    13     8    1
    38    19    14   ar
    39    27    28    1
@<TRIPOS>MOLECULE
*****
 36 39 0 0 0
SMALL
GASTEIGER

@<TRIPOS>ATOM
      1 C           5.4090   -2.3457   22.5239 C.3     1  UNL1        0.0545
      2 C           5.0835   -3.8047   22.6478 C.3     1  UNL1        0.0162
      3 C           4.5133   -4.2653   21.3391 C.3     1  UNL1        0.0100
      4 C           4.4864   -3.0910   20.4063 C.3     1  UNL1        0.0704
      5 C           5.0400   -1.9046   21.1385 C.3     1  UNL1        0.0243
      6 C           4.3373   -2.1223   19.2708 C.2     1  UNL1        0.2248
      7 O           5.2655   -2.1963   18.0949 O.2     1  UNL1       -0.2749
      8 N           3.2598   -1.0794   19.3113 N.am    1  UNL1       -0.2760
      9 C           3.1106   -0.1106   18.1758 C.3     1  UNL1        0.1149
     10 C           2.0332    0.9322   18.2163 C.3     1  UNL1        0.1137
     11 N           1.1049    1.0063   19.3923 N.pl3   1  UNL1       -0.2897
     12 C           1.2541    0.0375   20.5277 C.3     1  UNL1        0.1137
     13 C           2.3316   -1.0053   20.4872 C.3     1  UNL1        0.1149
     14 C           0.0275    2.0491   19.4328 C.ar    1  UNL1        0.1317
     15 C          -0.1261    3.0133   18.2940 C.ar    1  UNL1        0.0382
     16 C          -1.2036    4.0561   18.3345 C.ar    1  UNL1        0.0757
     17 C          -2.1273    4.1348   19.5137 C.ar    1  UNL1        0.0246
     18 C          -1.9737    3.1706   20.6524 C.ar    1  UNL1        0.1002
     19 N          -0.8962    2.1278   20.6119 N.ar    1  UNL1       -0.2292
     20 C          -1.3573    5.0204   17.1958 C.3     1  UNL1        0.4187
     21 F          -1.5110    5.9846   16.0571 F       1  UNL1       -0.1659
     22 F          -1.6548    6.1223   18.1690 F       1  UNL1       -0.1659
     23 F          -1.0598    3.9184   16.2225 F       1  UNL1       -0.1659
     24 C           3.9017   -4.0748   19.4368 C.3     1  UNL1        0.0082
     25 C           4.7738   -5.1264   18.8174 C.3     1  UNL1        0.0005
     26 C           3.0005   -4.2182   19.0681 C.3     1  UNL1        0.0005
     27 N           5.9998   -1.4799   23.5969 N.3     1  UNL1       -0.2975
     28 H           7.0058   -1.6486   23.5907 H       1  UNL1        0.1232
     29 C           4.1547   -1.2214   25.4076 C.3     1  UNL1        0.1591
     30 C           3.6991   -1.3723   26.8287 C.3     1  UNL1        0.1729
     31 O           4.6328   -1.9326   27.8602 O.3     1  UNL1       -0.3511
     32 C           6.0223   -2.3421   27.4707 C.3     1  UNL1        0.1437
     33 C           6.4779   -2.1912   26.0496 C.3     1  UNL1        0.0503
     34 C           5.5441   -1.6308   25.0180 C.3     1  UNL1        0.0865
     35 C           3.1736    0.8182   24.1318 C.3     1  UNL1        0.1742
     36 O           3.2209   -0.6610   24.3761 O.3     1  UNL1       -0.3496
@<TRIPOS>BOND
     1    35    36    1
     2    29    36    1
     3    29    30    1
     4    30    31    1
     5    31    32    1
     6    32    33    1
     7    33    34    1
     8    34    27    1
     9     1    27    1
    10     1     2    1
    11     2     3    1
    12     3     4    1
    13     4     6    1
    14     6     7    2
    15     6     8   am
    16     8     9    1
    17     9    10    1
    18    10    11    1
    19    11    14    1
    20    14    15   ar
    21    15    16   ar
    22    16    20    1
    23    20    21    1
    24    20    22    1
    25    20    23    1
    26    16    17   ar
    27    17    18   ar
    28    18    19   ar
    29    11    12    1
    30    12    13    1
    31     4    24    1
    32    24    25    1
    33    24    26    1
    34     4     5    1
    35    34    29    1
    36     5     1    1
    37    13     8    1
    38    19    14   ar
    39    27    28    1
@<TRIPOS>MOLECULE
*****
 36 39 0 0 0
SMALL
GASTEIGER

@<TRIPOS>ATOM
      1 C          -3.8191  -16.2313   22.9620 C.3     1  UNL1        0.0545
      2 C          -2.6578  -16.2021   22.0130 C.3     1  UNL1        0.0162
      3 C          -2.5359  -17.5601   21.3877 C.3     1  UNL1        0.0100
      4 C          -3.6219  -18.4286   21.9502 C.3     1  UNL1        0.0704
      5 C          -4.4149  -17.6073   22.9231 C.3     1  UNL1        0.0243
      6 C          -4.5842  -19.5162   22.3257 C.2     1  UNL1        0.2248
      7 O          -4.0705  -20.8705   22.7155 O.2     1  UNL1       -0.2749
      8 N          -6.0603  -19.2495   22.3114 N.am    1  UNL1       -0.2760
      9 C          -7.0226  -20.3371   22.6870 C.3     1  UNL1        0.1149
     10 C          -8.4987  -20.0704   22.6727 C.3     1  UNL1        0.1137
     11 N          -9.0123  -18.7161   22.2828 N.pl3   1  UNL1       -0.2897
     12 C          -8.0500  -17.6285   21.9073 C.3     1  UNL1        0.1137
     13 C          -6.5739  -17.8952   21.9216 C.3     1  UNL1        0.1149
     14 C         -10.4884  -18.4493   22.2685 C.ar    1  UNL1        0.1317
     15 C         -11.2946  -18.6262   23.5211 C.ar    1  UNL1        0.0382
     16 C         -12.7706  -18.3594   23.5068 C.ar    1  UNL1        0.0757
     17 C         -13.4404  -17.9159   22.2401 C.ar    1  UNL1        0.0246
     18 C         -12.6342  -17.7390   20.9876 C.ar    1  UNL1        0.1002
     19 N         -11.1582  -18.0058   21.0019 N.ar    1  UNL1       -0.2292
     20 C         -13.5769  -18.5363   24.7593 C.3     1  UNL1        0.4187
     21 F         -14.3831  -18.7131   26.0117 F       1  UNL1       -0.1659
     22 F         -14.8239  -18.1769   24.0072 F       1  UNL1       -0.1659
     23 F         -12.3298  -18.8957   25.5113 F       1  UNL1       -0.1659
     24 C          -3.0301  -19.4772   21.0558 C.3     1  UNL1        0.0082
     25 C          -3.7407  -19.8775   19.7969 C.3     1  UNL1        0.0005
     26 C          -2.2117  -20.0228   21.0904 C.3     1  UNL1        0.0005
     27 N          -4.3001  -15.0856   23.8022 N.3     1  UNL1       -0.2975
     28 H          -3.5405  -14.8494   24.4407 H       1  UNL1        0.1232
     29 C          -6.8890  -15.0451   24.0164 C.3     1  UNL1        0.1591
     30 C          -8.1259  -15.1951   24.8516 C.3     1  UNL1        0.1729
     31 O          -8.0107  -15.5353   26.3079 O.3     1  UNL1       -0.3511
     32 C          -6.6587  -15.7257   26.9290 C.3     1  UNL1        0.1437
     33 C          -5.4219  -15.5758   26.0938 C.3     1  UNL1        0.0503
     34 C          -5.5370  -15.2355   24.6375 C.3     1  UNL1        0.0865
     35 C          -8.3515  -14.6722   21.9017 C.3     1  UNL1        0.1742
     36 O          -7.0042  -14.7048   22.5600 O.3     1  UNL1       -0.3496
@<TRIPOS>BOND
     1    35    36    1
     2    29    36    1
     3    29    30    1
     4    30    31    1
     5    31    32    1
     6    32    33    1
     7    33    34    1
     8    34    27    1
     9     1    27    1
    10     1     2    1
    11     2     3    1
    12     3     4    1
    13     4     6    1
    14     6     7    2
    15     6     8   am
    16     8     9    1
    17     9    10    1
    18    10    11    1
    19    11    14    1
    20    14    15   ar
    21    15    16   ar
    22    16    20    1
    23    20    21    1
    24    20    22    1
    25    20    23    1
    26    16    17   ar
    27    17    18   ar
    28    18    19   ar
    29    11    12    1
    30    12    13    1
    31     4    24    1
    32    24    25    1
    33    24    26    1
    34     4     5    1
    35    34    29    1
    36     5     1    1
    37    13     8    1
    38    19    14   ar
    39    27    28    1
@<TRIPOS>MOLECULE
*****
 36 39 0 0 0
SMALL
GASTEIGER

@<TRIPOS>ATOM
      1 C           5.2887   -2.3222   22.5488 C.3     1  UNL1        0.0545
      2 C           4.9576   -3.7807   22.6625 C.3     1  UNL1        0.0162
      3 C           4.4272   -4.2404   21.3368 C.3     1  UNL1        0.0100
      4 C           4.4305   -3.0659   20.4038 C.3     1  UNL1        0.0704
      5 C           4.9629   -1.8804   21.1529 C.3     1  UNL1        0.0243
      6 C           4.3175   -2.0968   19.2644 C.2     1  UNL1        0.2248
      7 O           5.2616   -2.1917   18.1027 O.2     1  UNL1       -0.2749
      8 N           3.2604   -1.0328   19.2868 N.am    1  UNL1       -0.2760
      9 C           3.1474   -0.0637   18.1475 C.3     1  UNL1        0.1149
     10 C           2.0903    1.0002   18.1699 C.3     1  UNL1        0.1137
     11 N           1.1461    1.0951   19.3316 N.pl3   1  UNL1       -0.2897
     12 C           1.2592    0.1260   20.4709 C.3     1  UNL1        0.1137
     13 C           2.3163   -0.9380   20.4485 C.3     1  UNL1        0.1149
     14 C           0.0890    2.1590   19.3540 C.ar    1  UNL1        0.1317
     15 C          -0.7697    2.3374   20.5710 C.ar    1  UNL1        0.0382
     16 C          -1.8268    3.4014   20.5934 C.ar    1  UNL1        0.0757
     17 C          -2.0252    4.2868   19.3990 C.ar    1  UNL1        0.0246
     18 C          -1.1665    4.1084   18.1821 C.ar    1  UNL1        0.1002
     19 N          -0.1094    3.0445   18.1597 N.ar    1  UNL1       -0.2292
     20 C          -2.6856    3.5799   21.8102 C.3     1  UNL1        0.4187
     21 F          -3.5443    3.7584   23.0270 F       1  UNL1       -0.1659
     22 F          -1.5511    4.2678   22.5099 F       1  UNL1       -0.1659
     23 F          -3.8201    2.8920   21.1104 F       1  UNL1       -0.1659
     24 C           3.8745   -4.0488   19.4166 C.3     1  UNL1        0.0082
     25 C           4.7634   -5.1024   18.8253 C.3     1  UNL1        0.0005
     26 C           2.9850   -4.1905   19.0198 C.3     1  UNL1        0.0005
     27 N           5.8474   -1.4572   23.6396 N.3     1  UNL1       -0.2975
     28 H           6.8565   -1.6057   23.6453 H       1  UNL1        0.1232
     29 C           4.0043   -1.1730   25.4485 C.3     1  UNL1        0.1591
     30 C           3.5327   -1.3495   26.8614 C.3     1  UNL1        0.1729
     31 O           4.4325   -1.9868   27.8784 O.3     1  UNL1       -0.3511
     32 C           5.8040   -2.4476   27.4824 C.3     1  UNL1        0.1437
     33 C           6.2756   -2.2710   26.0695 C.3     1  UNL1        0.0503
     34 C           5.3757   -1.6337   25.0525 C.3     1  UNL1        0.0865
     35 C           3.1481    0.9482   24.2167 C.3     1  UNL1        0.1742
     36 O           3.1045   -0.5357   24.4316 O.3     1  UNL1       -0.3496
@<TRIPOS>BOND
     1    35    36    1
     2    29    36    1
     3    29    30    1
     4    30    31    1
     5    31    32    1
     6    32    33    1
     7    33    34    1
     8    34    27    1
     9     1    27    1
    10     1     2    1
    11     2     3    1
    12     3     4    1
    13     4     6    1
    14     6     7    2
    15     6     8   am
    16     8     9    1
    17     9    10    1
    18    10    11    1
    19    11    14    1
    20    14    15   ar
    21    15    16   ar
    22    16    20    1
    23    20    21    1
    24    20    22    1
    25    20    23    1
    26    16    17   ar
    27    17    18   ar
    28    18    19   ar
    29    11    12    1
    30    12    13    1
    31     4    24    1
    32    24    25    1
    33    24    26    1
    34     4     5    1
    35    34    29    1
    36     5     1    1
    37    13     8    1
    38    19    14   ar
    39    27    28    1
