@<TRIPOS>MOLECULE
*****
 38 43 0 0 0
SMALL
GASTEIGER

@<TRIPOS>ATOM
      1 C           7.7944   -6.6531   26.2799 C.ar    1  UNL1        0.0155
      2 C           7.5059   -5.9597   27.5784 C.ar    1  UNL1        0.0012
      3 C           6.9520   -4.5658   27.5774 C.ar    1  UNL1        0.0015
      4 C           6.6867   -3.8651   26.2779 C.ar    1  UNL1        0.0192
      5 C           6.9752   -4.5584   24.9794 C.ar    1  UNL1        0.0845
      6 C           7.5291   -5.9525   24.9804 C.ar    1  UNL1        0.0203
      7 C           6.6636   -3.8725   28.8758 C.ar    1  UNL1        0.0000
      8 C           6.8973   -4.5853   30.1748 C.ar    1  UNL1       -0.0003
      9 C           6.6088   -3.8920   31.4733 C.ar    1  UNL1       -0.0043
     10 C           6.0866   -2.4859   31.4729 C.ar    1  UNL1       -0.0227
     11 C           5.8528   -1.7730   30.1740 C.ar    1  UNL1       -0.0043
     12 C           6.1413   -2.4663   28.8754 C.ar    1  UNL1       -0.0003
     13 C           5.7981   -1.7926   32.7714 C.3     1  UNL1        0.0229
     14 C           6.8322   -0.9001   33.3911 C.3     1  UNL1        0.0215
     15 C           6.5437   -0.2069   34.6895 C.3     1  UNL1        0.0724
     16 N           5.2210   -0.4061   35.3684 N.3     1  UNL1       -0.2726
     17 C           4.1869   -1.2985   34.7487 C.3     1  UNL1        0.0724
     18 C           4.4754   -1.9918   33.4503 C.3     1  UNL1        0.0215
     19 C           5.3333   -0.8071   34.6581 C.3     1  UNL1        0.0724
     20 C           5.5942   -1.4339   33.4840 C.3     1  UNL1        0.0215
     21 N           6.7098   -3.8578   23.6799 N.ar    1  UNL1       -0.2089
     22 C           5.4322   -3.1745   23.2915 C.ar    1  UNL1        0.1229
     23 C           5.6082   -2.6118   21.9122 C.ar    1  UNL1        0.1236
     24 N           6.9946   -2.9473   21.4482 N.ar    1  UNL1       -0.1284
     25 N           7.6755   -3.7174   22.5407 N.ar    1  UNL1       -0.0595
     26 C           4.5787   -1.8478   21.1337 C.ar    1  UNL1        0.0210
     27 C           4.8167   -1.5283   19.6875 C.ar    1  UNL1        0.0015
     28 C           3.7871   -0.7642   18.9090 C.ar    1  UNL1        0.0039
     29 C           2.5195   -0.3196   19.5766 C.ar    1  UNL1        0.0714
     30 C           2.2816   -0.6391   21.0227 C.ar    1  UNL1        0.0039
     31 C           3.3112   -1.4032   21.8013 C.ar    1  UNL1        0.0015
     32 C           1.4899    0.4445   18.7980 C.3     1  UNL1        0.4186
     33 F           0.4604    1.2085   18.0194 F       1  UNL1       -0.1659
     34 F           0.4202   -0.0531   19.7243 F       1  UNL1       -0.1659
     35 F           2.5597    0.9420   17.8717 F       1  UNL1       -0.1659
     36 O           7.7149   -9.1051   27.1349 O.co2   1  UNL1       -0.5446
     37 C           8.3483   -8.0471   26.2809 C.2     1  UNL1        0.0729
     38 O           9.5356   -8.3830   25.4279 O.co2   1  UNL1       -0.5446
@<TRIPOS>UNITY_ATOM_ATTR
36 1
charge -1
@<TRIPOS>BOND
     1    36    37   ar
     2    37    38   ar
     3    37     1    1
     4     1     2   ar
     5     2     3   ar
     6     3     7    1
     7     7     8   ar
     8     8     9   ar
     9     9    10   ar
    10    10    13    1
    11    13    14    1
    12    14    15    1
    13    15    16    1
    14    16    17    1
    15    17    18    1
    16    16    19    1
    17    19    20    1
    18    10    11   ar
    19    11    12   ar
    20     3     4   ar
    21     4     5   ar
    22     5    21    1
    23    21    22   ar
    24    22    23   ar
    25    23    26    1
    26    26    27   ar
    27    27    28   ar
    28    28    29   ar
    29    29    32    1
    30    32    33    1
    31    32    34    1
    32    32    35    1
    33    29    30   ar
    34    30    31   ar
    35    23    24   ar
    36    24    25   ar
    37     5     6   ar
    38     6     1   ar
    39    12     7   ar
    40    25    21   ar
    41    18    13    1
    42    31    26   ar
    43    20    13    1
@<TRIPOS>MOLECULE
*****
 38 43 0 0 0
SMALL
GASTEIGER

@<TRIPOS>ATOM
      1 C          -1.1907    3.1198   24.6801 C.ar    1  UNL1        0.0155
      2 C          -0.3912    2.3784   23.6499 C.ar    1  UNL1        0.0012
      3 C           0.6439    1.3811   24.0788 C.ar    1  UNL1        0.0015
      4 C           0.8796    1.1252   25.5379 C.ar    1  UNL1        0.0192
      5 C           0.0802    1.8665   26.5681 C.ar    1  UNL1        0.0845
      6 C          -0.9550    2.8639   26.1392 C.ar    1  UNL1        0.0203
      7 C           1.4432    0.6398   23.0486 C.ar    1  UNL1        0.0000
      8 C           1.0220    0.6682   21.6092 C.ar    1  UNL1       -0.0003
      9 C           1.8214   -0.0731   20.5790 C.ar    1  UNL1       -0.0043
     10 C           3.0420   -0.8429   20.9881 C.ar    1  UNL1       -0.0227
     11 C           3.4633   -0.8714   22.4274 C.ar    1  UNL1       -0.0043
     12 C           2.6639   -0.1300   23.4577 C.ar    1  UNL1       -0.0003
     13 C           3.8414   -1.5843   19.9578 C.3     1  UNL1        0.0229
     14 C           4.9071   -0.8712   19.1796 C.3     1  UNL1        0.0215
     15 C           5.7064   -1.6125   18.1494 C.3     1  UNL1        0.0724
     16 N           5.4401   -3.0670   17.8974 N.3     1  UNL1       -0.2726
     17 C           4.3744   -3.7802   18.6756 C.3     1  UNL1        0.0724
     18 C           3.5751   -3.0388   19.7059 C.3     1  UNL1        0.0215
     19 C           4.9763   -2.7030   18.4720 C.3     1  UNL1        0.0724
     20 C           4.2535   -2.0326   19.4036 C.3     1  UNL1        0.0215
     21 N           0.3159    1.6106   28.0272 N.ar    1  UNL1       -0.2089
     22 C           0.5112    2.6556   29.0853 C.ar    1  UNL1        0.1229
     23 C           0.7137    1.9556   30.3964 C.ar    1  UNL1        0.1236
     24 N           0.6435    0.4779   30.1486 N.ar    1  UNL1       -0.1284
     25 N           0.3976    0.2646   28.6843 N.ar    1  UNL1       -0.0595
     26 C           0.9457    2.6171   31.7225 C.ar    1  UNL1        0.0210
     27 C           1.8304    1.9633   32.7422 C.ar    1  UNL1        0.0015
     28 C           2.0624    2.6249   34.0683 C.ar    1  UNL1        0.0039
     29 C           1.4095    3.9402   34.3747 C.ar    1  UNL1        0.0714
     30 C           0.5248    4.5939   33.3550 C.ar    1  UNL1        0.0039
     31 C           0.2928    3.9324   32.0289 C.ar    1  UNL1        0.0015
     32 C           1.6415    4.6017   35.7009 C.3     1  UNL1        0.4186
     33 F           1.8735    5.2632   37.0270 F       1  UNL1       -0.1659
     34 F           2.0661    3.2861   36.2829 F       1  UNL1       -0.1659
     35 F           1.2169    5.9173   35.1189 F       1  UNL1       -0.1659
     36 O          -3.5463    3.6454   23.7187 O.co2   1  UNL1       -0.5446
     37 C          -2.2258    4.1171   24.2512 C.2     1  UNL1        0.0729
     38 O          -1.9403    5.5860   24.3549 O.co2   1  UNL1       -0.5446
@<TRIPOS>UNITY_ATOM_ATTR
36 1
charge -1
@<TRIPOS>BOND
     1    36    37   ar
     2    37    38   ar
     3    37     1    1
     4     1     2   ar
     5     2     3   ar
     6     3     7    1
     7     7     8   ar
     8     8     9   ar
     9     9    10   ar
    10    10    13    1
    11    13    14    1
    12    14    15    1
    13    15    16    1
    14    16    17    1
    15    17    18    1
    16    16    19    1
    17    19    20    1
    18    10    11   ar
    19    11    12   ar
    20     3     4   ar
    21     4     5   ar
    22     5    21    1
    23    21    22   ar
    24    22    23   ar
    25    23    26    1
    26    26    27   ar
    27    27    28   ar
    28    28    29   ar
    29    29    32    1
    30    32    33    1
    31    32    34    1
    32    32    35    1
    33    29    30   ar
    34    30    31   ar
    35    23    24   ar
    36    24    25   ar
    37     5     6   ar
    38     6     1   ar
    39    12     7   ar
    40    25    21   ar
    41    18    13    1
    42    31    26   ar
    43    20    13    1
@<TRIPOS>MOLECULE
*****
 38 43 0 0 0
SMALL
GASTEIGER

@<TRIPOS>ATOM
      1 C          -1.3221    3.3810   24.2347 C.ar    1  UNL1        0.0155
      2 C          -0.4851    2.6083   23.2588 C.ar    1  UNL1        0.0012
      3 C           0.4113    1.5086   23.7455 C.ar    1  UNL1        0.0015
      4 C           0.4708    1.1816   25.2082 C.ar    1  UNL1        0.0192
      5 C          -0.3661    1.9542   26.1842 C.ar    1  UNL1        0.0845
      6 C          -1.2626    3.0540   25.6974 C.ar    1  UNL1        0.0203
      7 C           1.2483    0.7360   22.7696 C.ar    1  UNL1        0.0000
      8 C           0.8126    0.6145   21.3394 C.ar    1  UNL1       -0.0003
      9 C           1.6496   -0.1581   20.3634 C.ar    1  UNL1       -0.0043
     10 C           2.9222   -0.8093   20.8177 C.ar    1  UNL1       -0.0227
     11 C           3.3579   -0.6879   22.2478 C.ar    1  UNL1       -0.0043
     12 C           2.5209    0.0848   23.2238 C.ar    1  UNL1       -0.0003
     13 C           3.7592   -1.5820   19.8416 C.3     1  UNL1        0.0229
     14 C           4.7722   -0.8706   18.9945 C.3     1  UNL1        0.0215
     15 C           5.6091   -1.6433   18.0186 C.3     1  UNL1        0.0724
     16 N           5.4330   -3.1273   17.8897 N.3     1  UNL1       -0.2726
     17 C           4.4199   -3.8387   18.7368 C.3     1  UNL1        0.0724
     18 C           3.5830   -3.0660   19.7128 C.3     1  UNL1        0.0215
     19 C           4.9514   -2.7466   18.4384 C.3     1  UNL1        0.0724
     20 C           4.1946   -2.0479   19.3208 C.3     1  UNL1        0.0215
     21 N          -0.3066    1.6271   27.6469 N.ar    1  UNL1       -0.2089
     22 C           0.6905    2.1640   28.6305 C.ar    1  UNL1        0.1229
     23 C           0.3796    1.5744   29.9744 C.ar    1  UNL1        0.1236
     24 N          -0.8097    0.6732   29.8212 N.ar    1  UNL1       -0.1284
     25 N          -1.2339    0.7057   28.3827 N.ar    1  UNL1       -0.0595
     26 C           1.1267    1.8395   31.2477 C.ar    1  UNL1        0.0210
     27 C           0.7089    2.9697   32.1410 C.ar    1  UNL1        0.0015
     28 C           1.4561    3.2348   33.4144 C.ar    1  UNL1        0.0039
     29 C           2.6210    2.3695   33.7944 C.ar    1  UNL1        0.0714
     30 C           3.0387    1.2393   32.9011 C.ar    1  UNL1        0.0039
     31 C           2.2916    0.9743   31.6277 C.ar    1  UNL1        0.0015
     32 C           3.3682    2.6346   35.0679 C.3     1  UNL1        0.4186
     33 F           4.1153    2.8997   36.3413 F       1  UNL1       -0.1659
     34 F           4.6154    2.0722   34.4531 F       1  UNL1       -0.1659
     35 F           2.1209    3.1970   35.6826 F       1  UNL1       -0.1659
     36 O          -2.9540    4.3294   22.4494 O.co2   1  UNL1       -0.5446
     37 C          -2.2186    4.4808   23.7480 C.2     1  UNL1        0.0729
     38 O          -2.3796    5.7318   24.5597 O.co2   1  UNL1       -0.5446
@<TRIPOS>UNITY_ATOM_ATTR
36 1
charge -1
@<TRIPOS>BOND
     1    36    37   ar
     2    37    38   ar
     3    37     1    1
     4     1     2   ar
     5     2     3   ar
     6     3     7    1
     7     7     8   ar
     8     8     9   ar
     9     9    10   ar
    10    10    13    1
    11    13    14    1
    12    14    15    1
    13    15    16    1
    14    16    17    1
    15    17    18    1
    16    16    19    1
    17    19    20    1
    18    10    11   ar
    19    11    12   ar
    20     3     4   ar
    21     4     5   ar
    22     5    21    1
    23    21    22   ar
    24    22    23   ar
    25    23    26    1
    26    26    27   ar
    27    27    28   ar
    28    28    29   ar
    29    29    32    1
    30    32    33    1
    31    32    34    1
    32    32    35    1
    33    29    30   ar
    34    30    31   ar
    35    23    24   ar
    36    24    25   ar
    37     5     6   ar
    38     6     1   ar
    39    12     7   ar
    40    25    21   ar
    41    18    13    1
    42    31    26   ar
    43    20    13    1
@<TRIPOS>MOLECULE
*****
 38 43 0 0 0
SMALL
GASTEIGER

@<TRIPOS>ATOM
      1 C           0.9876    2.3431   28.7807 C.ar    1  UNL1        0.0155
      2 C          -0.2538    2.8724   28.1259 C.ar    1  UNL1        0.0012
      3 C          -0.4848    2.6443   26.6615 C.ar    1  UNL1        0.0015
      4 C           0.5255    1.8870   25.8518 C.ar    1  UNL1        0.0192
      5 C           1.7669    1.3577   26.5066 C.ar    1  UNL1        0.0845
      6 C           1.9980    1.5858   27.9711 C.ar    1  UNL1        0.0203
      7 C          -1.7262    3.1736   26.0067 C.ar    1  UNL1        0.0000
      8 C          -2.9627    3.4086   26.8228 C.ar    1  UNL1       -0.0003
      9 C          -4.2041    3.9379   26.1680 C.ar    1  UNL1       -0.0043
     10 C          -4.2091    4.2322   24.6972 C.ar    1  UNL1       -0.0227
     11 C          -2.9727    3.9972   23.8811 C.ar    1  UNL1       -0.0043
     12 C          -1.7312    3.4679   24.5359 C.ar    1  UNL1       -0.0003
     13 C          -5.4506    4.7615   24.0424 C.3     1  UNL1        0.0229
     14 C          -5.9274    6.1499   24.3507 C.3     1  UNL1        0.0215
     15 C          -7.1689    6.6791   23.6959 C.3     1  UNL1        0.0724
     16 N          -7.9334    5.8200   22.7329 N.3     1  UNL1       -0.2726
     17 C          -7.4566    4.4316   22.4247 C.3     1  UNL1        0.0724
     18 C          -6.2152    3.9024   23.0794 C.3     1  UNL1        0.0215
     19 C          -7.2589    5.4864   23.0670 C.3     1  UNL1        0.0724
     20 C          -6.1363    5.0079   23.6590 C.3     1  UNL1        0.0215
     21 N           2.7773    0.6003   25.6969 N.ar    1  UNL1       -0.2089
     22 C           2.4859   -0.2541   24.4990 C.ar    1  UNL1        0.1229
     23 C           3.7850   -0.8181   24.0048 C.ar    1  UNL1        0.1236
     24 N           4.8793   -0.3122   24.8972 N.ar    1  UNL1       -0.1284
     25 N           4.2566    0.5645   25.9430 N.ar    1  UNL1       -0.0595
     26 C           3.9592   -1.7281   22.8252 C.ar    1  UNL1        0.0210
     27 C           3.4846   -1.2974   21.4691 C.ar    1  UNL1        0.0015
     28 C           3.6588   -2.2076   20.2896 C.ar    1  UNL1        0.0039
     29 C           4.3077   -3.5484   20.4662 C.ar    1  UNL1        0.0714
     30 C           4.7823   -3.9791   21.8224 C.ar    1  UNL1        0.0039
     31 C           4.6080   -3.0690   23.0019 C.ar    1  UNL1        0.0015
     32 C           4.4819   -4.4586   19.2866 C.3     1  UNL1        0.4186
     33 F           4.6562   -5.3686   18.1070 F       1  UNL1       -0.1659
     34 F           3.4034   -5.3548   19.8189 F       1  UNL1       -0.1659
     35 F           5.5604   -3.5622   18.7544 F       1  UNL1       -0.1659
     36 O           2.0820    3.7105   30.6997 O.co2   1  UNL1       -0.5446
     37 C           1.2186    2.5712   30.2451 C.2     1  UNL1        0.0729
     38 O           0.5863    1.6600   31.2550 O.co2   1  UNL1       -0.5446
@<TRIPOS>UNITY_ATOM_ATTR
36 1
charge -1
@<TRIPOS>BOND
     1    36    37   ar
     2    37    38   ar
     3    37     1    1
     4     1     2   ar
     5     2     3   ar
     6     3     7    1
     7     7     8   ar
     8     8     9   ar
     9     9    10   ar
    10    10    13    1
    11    13    14    1
    12    14    15    1
    13    15    16    1
    14    16    17    1
    15    17    18    1
    16    16    19    1
    17    19    20    1
    18    10    11   ar
    19    11    12   ar
    20     3     4   ar
    21     4     5   ar
    22     5    21    1
    23    21    22   ar
    24    22    23   ar
    25    23    26    1
    26    26    27   ar
    27    27    28   ar
    28    28    29   ar
    29    29    32    1
    30    32    33    1
    31    32    34    1
    32    32    35    1
    33    29    30   ar
    34    30    31   ar
    35    23    24   ar
    36    24    25   ar
    37     5     6   ar
    38     6     1   ar
    39    12     7   ar
    40    25    21   ar
    41    18    13    1
    42    31    26   ar
    43    20    13    1
@<TRIPOS>MOLECULE
*****
 38 43 0 0 0
SMALL
GASTEIGER

@<TRIPOS>ATOM
      1 C           7.6264   -5.7743   25.1622 C.ar    1  UNL1        0.0155
      2 C           6.7563   -5.0500   24.1780 C.ar    1  UNL1        0.0012
      3 C           6.1808   -3.7102   24.5297 C.ar    1  UNL1        0.0015
      4 C           6.4753   -3.0947   25.8655 C.ar    1  UNL1        0.0192
      5 C           7.3454   -3.8188   26.8496 C.ar    1  UNL1        0.0845
      6 C           7.9209   -5.1587   26.4979 C.ar    1  UNL1        0.0203
      7 C           5.3107   -2.9861   23.5456 C.ar    1  UNL1        0.0000
      8 C           4.9238   -1.5584   23.7951 C.ar    1  UNL1       -0.0003
      9 C           4.0537   -0.8342   22.8110 C.ar    1  UNL1       -0.0043
     10 C           3.5705   -1.5376   21.5774 C.ar    1  UNL1       -0.0227
     11 C           3.9574   -2.9652   21.3279 C.ar    1  UNL1       -0.0043
     12 C           4.8275   -3.6895   22.3120 C.ar    1  UNL1       -0.0003
     13 C           2.7004   -0.8133   20.5933 C.3     1  UNL1        0.0229
     14 C           3.2482   -0.4241   19.2522 C.3     1  UNL1        0.0215
     15 C           2.3781    0.3001   18.2682 C.3     1  UNL1        0.0724
     16 N           0.9602    0.6351   18.6252 N.3     1  UNL1       -0.2726
     17 C           0.4125    0.2459   19.9662 C.3     1  UNL1        0.0724
     18 C           1.2826   -0.4784   20.9502 C.3     1  UNL1        0.0215
     19 C           1.3988    0.2373   19.1973 C.3     1  UNL1        0.0724
     20 C           2.1856   -0.4176   20.0871 C.3     1  UNL1        0.0215
     21 N           7.6399   -3.2032   28.1854 N.ar    1  UNL1       -0.2089
     22 C           6.6303   -2.8626   29.2411 C.ar    1  UNL1        0.1229
     23 C           7.3622   -2.2690   30.4082 C.ar    1  UNL1        0.1236
     24 N           8.8242   -2.2428   30.0737 N.ar    1  UNL1       -0.1284
     25 N           8.9959   -2.8202   28.6999 N.ar    1  UNL1       -0.0595
     26 C           6.7412   -1.7864   31.6854 C.ar    1  UNL1        0.0210
     27 C           7.3650   -0.6501   32.4401 C.ar    1  UNL1        0.0015
     28 C           6.7439   -0.1675   33.7173 C.ar    1  UNL1        0.0039
     29 C           5.4990   -0.8212   34.2399 C.ar    1  UNL1        0.0714
     30 C           4.8753   -1.9576   33.4852 C.ar    1  UNL1        0.0039
     31 C           5.4963   -2.4401   32.2079 C.ar    1  UNL1        0.0015
     32 C           4.8780   -0.3386   35.5172 C.3     1  UNL1        0.4186
     33 F           4.2570    0.1440   36.7945 F       1  UNL1       -0.1659
     34 F           3.6977    0.1770   34.7485 F       1  UNL1       -0.1659
     35 F           6.0584   -0.8542   36.2859 F       1  UNL1       -0.1659
     36 O           8.3764   -7.5011   23.3719 O.co2   1  UNL1       -0.5446
     37 C           8.2019   -7.1141   24.8105 C.2     1  UNL1        0.0729
     38 O           8.6030   -8.0668   25.8975 O.co2   1  UNL1       -0.5446
@<TRIPOS>UNITY_ATOM_ATTR
36 1
charge -1
@<TRIPOS>BOND
     1    36    37   ar
     2    37    38   ar
     3    37     1    1
     4     1     2   ar
     5     2     3   ar
     6     3     7    1
     7     7     8   ar
     8     8     9   ar
     9     9    10   ar
    10    10    13    1
    11    13    14    1
    12    14    15    1
    13    15    16    1
    14    16    17    1
    15    17    18    1
    16    16    19    1
    17    19    20    1
    18    10    11   ar
    19    11    12   ar
    20     3     4   ar
    21     4     5   ar
    22     5    21    1
    23    21    22   ar
    24    22    23   ar
    25    23    26    1
    26    26    27   ar
    27    27    28   ar
    28    28    29   ar
    29    29    32    1
    30    32    33    1
    31    32    34    1
    32    32    35    1
    33    29    30   ar
    34    30    31   ar
    35    23    24   ar
    36    24    25   ar
    37     5     6   ar
    38     6     1   ar
    39    12     7   ar
    40    25    21   ar
    41    18    13    1
    42    31    26   ar
    43    20    13    1
@<TRIPOS>MOLECULE
*****
 38 43 0 0 0
SMALL
GASTEIGER

@<TRIPOS>ATOM
      1 C           2.3116    0.0968   20.3939 C.ar    1  UNL1        0.0155
      2 C           1.3243    0.8726   21.2146 C.ar    1  UNL1        0.0012
      3 C           1.5078    0.9858   22.6990 C.ar    1  UNL1        0.0015
      4 C           2.6784    0.3233   23.3628 C.ar    1  UNL1        0.0192
      5 C           3.6656   -0.4525   22.5421 C.ar    1  UNL1        0.0845
      6 C           3.4822   -0.5658   21.0576 C.ar    1  UNL1        0.0203
      7 C           0.5206    1.7616   23.5197 C.ar    1  UNL1        0.0000
      8 C          -0.2071    2.9256   22.9149 C.ar    1  UNL1       -0.0003
      9 C          -1.1943    3.7014   23.7355 C.ar    1  UNL1       -0.0043
     10 C          -1.4539    3.3133   25.1610 C.ar    1  UNL1       -0.0227
     11 C          -0.7263    2.1494   25.7658 C.ar    1  UNL1       -0.0043
     12 C           0.2610    1.3735   24.9452 C.ar    1  UNL1       -0.0003
     13 C          -2.4412    4.0891   25.9816 C.3     1  UNL1        0.0229
     14 C          -1.9755    5.2369   26.8276 C.3     1  UNL1        0.0215
     15 C          -2.9628    6.0127   27.6482 C.3     1  UNL1        0.0724
     16 N          -4.4157    5.6407   27.6228 N.3     1  UNL1       -0.2726
     17 C          -4.8814    4.4930   26.7768 C.3     1  UNL1        0.0724
     18 C          -3.8941    3.7172   25.9563 C.3     1  UNL1        0.0215
     19 C          -3.9121    5.1862   27.1563 C.3     1  UNL1        0.0724
     20 C          -3.0194    4.4847   26.4143 C.3     1  UNL1        0.0215
     21 N           4.8363   -1.1151   23.2059 N.ar    1  UNL1       -0.2089
     22 C           4.9285   -2.5617   23.5917 C.ar    1  UNL1        0.1229
     23 C           6.2695   -2.7881   24.2246 C.ar    1  UNL1        0.1236
     24 N           7.0061   -1.4814   24.2299 N.ar    1  UNL1       -0.1284
     25 N           6.1203   -0.4474   23.6003 N.ar    1  UNL1       -0.0595
     26 C           6.7837   -4.0921   24.7584 C.ar    1  UNL1        0.0210
     27 C           6.5810   -4.4435   26.2025 C.ar    1  UNL1        0.0015
     28 C           7.0952   -5.7476   26.7363 C.ar    1  UNL1        0.0039
     29 C           7.8121   -6.7002   25.8260 C.ar    1  UNL1        0.0714
     30 C           8.0148   -6.3488   24.3819 C.ar    1  UNL1        0.0039
     31 C           7.5006   -5.0447   23.8482 C.ar    1  UNL1        0.0015
     32 C           8.3263   -8.0044   26.3599 C.3     1  UNL1        0.4186
     33 F           8.8406   -9.3085   26.8937 F       1  UNL1       -0.1659
     34 F           7.7007   -7.7065   27.6901 F       1  UNL1       -0.1659
     35 F           8.9520   -8.3022   25.0295 F       1  UNL1       -0.1659
     36 O           0.9010    0.5512   18.2600 O.co2   1  UNL1       -0.5446
     37 C           2.1281   -0.0164   18.9095 C.2     1  UNL1        0.0729
     38 O           3.1718   -0.6973   18.0746 O.co2   1  UNL1       -0.5446
@<TRIPOS>UNITY_ATOM_ATTR
36 1
charge -1
@<TRIPOS>BOND
     1    36    37   ar
     2    37    38   ar
     3    37     1    1
     4     1     2   ar
     5     2     3   ar
     6     3     7    1
     7     7     8   ar
     8     8     9   ar
     9     9    10   ar
    10    10    13    1
    11    13    14    1
    12    14    15    1
    13    15    16    1
    14    16    17    1
    15    17    18    1
    16    16    19    1
    17    19    20    1
    18    10    11   ar
    19    11    12   ar
    20     3     4   ar
    21     4     5   ar
    22     5    21    1
    23    21    22   ar
    24    22    23   ar
    25    23    26    1
    26    26    27   ar
    27    27    28   ar
    28    28    29   ar
    29    29    32    1
    30    32    33    1
    31    32    34    1
    32    32    35    1
    33    29    30   ar
    34    30    31   ar
    35    23    24   ar
    36    24    25   ar
    37     5     6   ar
    38     6     1   ar
    39    12     7   ar
    40    25    21   ar
    41    18    13    1
    42    31    26   ar
    43    20    13    1
@<TRIPOS>MOLECULE
*****
 38 43 0 0 0
SMALL
GASTEIGER

@<TRIPOS>ATOM
      1 C           6.4170   -2.8952   31.0694 C.ar    1  UNL1        0.0155
      2 C           6.0328   -2.1847   32.3334 C.ar    1  UNL1        0.0012
      3 C           5.0811   -1.0264   32.2831 C.ar    1  UNL1        0.0015
      4 C           4.5135   -0.5786   30.9688 C.ar    1  UNL1        0.0192
      5 C           4.8977   -1.2890   29.7049 C.ar    1  UNL1        0.0845
      6 C           5.8494   -2.4474   29.7552 C.ar    1  UNL1        0.0203
      7 C           4.6970   -0.3159   33.5471 C.ar    1  UNL1        0.0000
      8 C           3.9655    0.9920   33.4797 C.ar    1  UNL1       -0.0003
      9 C           3.5814    1.7024   34.7437 C.ar    1  UNL1       -0.0043
     10 C           3.9286    1.1051   36.0750 C.ar    1  UNL1       -0.0227
     11 C           4.6601   -0.2027   36.1425 C.ar    1  UNL1       -0.0043
     12 C           5.0442   -0.9133   34.8784 C.ar    1  UNL1       -0.0003
     13 C           3.5445    1.8156   37.3390 C.3     1  UNL1        0.0229
     14 C           2.2240    1.5275   37.9897 C.3     1  UNL1        0.0215
     15 C           1.8399    2.2380   39.2537 C.3     1  UNL1        0.0724
     16 N           2.7762    3.2366   39.8669 N.3     1  UNL1       -0.2726
     17 C           4.0966    3.5248   39.2162 C.3     1  UNL1        0.0724
     18 C           4.4808    2.8142   37.9523 C.3     1  UNL1        0.0215
     19 C           3.0305    2.8724   39.1737 C.3     1  UNL1        0.0724
     20 C           3.3778    2.2299   38.0308 C.3     1  UNL1        0.0215
     21 N           4.3301   -0.8412   28.3906 N.ar    1  UNL1       -0.2089
     22 C           4.5254   -1.5216   27.0681 C.ar    1  UNL1        0.1229
     23 C           3.7836   -0.7353   26.0282 C.ar    1  UNL1        0.1236
     24 N           3.1298    0.4311   26.7080 N.ar    1  UNL1       -0.1284
     25 N           3.4675    0.3657   28.1681 N.ar    1  UNL1       -0.0595
     26 C           3.7087   -1.0585   24.5655 C.ar    1  UNL1        0.0210
     27 C           2.8610   -0.2207   23.6546 C.ar    1  UNL1        0.0015
     28 C           2.7862   -0.5440   22.1918 C.ar    1  UNL1        0.0039
     29 C           3.5589   -1.7051   21.6398 C.ar    1  UNL1        0.0714
     30 C           4.4066   -2.5429   22.5506 C.ar    1  UNL1        0.0039
     31 C           4.4814   -2.2196   24.0134 C.ar    1  UNL1        0.0015
     32 C           3.4841   -2.0284   20.1769 C.3     1  UNL1        0.4186
     33 F           3.4092   -2.3517   18.7141 F       1  UNL1       -0.1659
     34 F           3.0207   -0.6306   19.8918 F       1  UNL1       -0.1659
     35 F           3.9474   -3.4262   20.4621 F       1  UNL1       -0.1659
     36 O           8.7273   -3.8817   31.7318 O.co2   1  UNL1       -0.5446
     37 C           7.3687   -4.0535   31.1197 C.2     1  UNL1        0.0729
     38 O           6.9618   -5.3835   30.5581 O.co2   1  UNL1       -0.5446
@<TRIPOS>UNITY_ATOM_ATTR
36 1
charge -1
@<TRIPOS>BOND
     1    36    37   ar
     2    37    38   ar
     3    37     1    1
     4     1     2   ar
     5     2     3   ar
     6     3     7    1
     7     7     8   ar
     8     8     9   ar
     9     9    10   ar
    10    10    13    1
    11    13    14    1
    12    14    15    1
    13    15    16    1
    14    16    17    1
    15    17    18    1
    16    16    19    1
    17    19    20    1
    18    10    11   ar
    19    11    12   ar
    20     3     4   ar
    21     4     5   ar
    22     5    21    1
    23    21    22   ar
    24    22    23   ar
    25    23    26    1
    26    26    27   ar
    27    27    28   ar
    28    28    29   ar
    29    29    32    1
    30    32    33    1
    31    32    34    1
    32    32    35    1
    33    29    30   ar
    34    30    31   ar
    35    23    24   ar
    36    24    25   ar
    37     5     6   ar
    38     6     1   ar
    39    12     7   ar
    40    25    21   ar
    41    18    13    1
    42    31    26   ar
    43    20    13    1
@<TRIPOS>MOLECULE
*****
 38 43 0 0 0
SMALL
GASTEIGER

@<TRIPOS>ATOM
      1 C          -3.1686    4.0134   25.0814 C.ar    1  UNL1        0.0155
      2 C          -2.4538    3.7229   26.3678 C.ar    1  UNL1        0.0012
      3 C          -1.1240    3.0294   26.3468 C.ar    1  UNL1        0.0015
      4 C          -0.5088    2.6264   25.0395 C.ar    1  UNL1        0.0192
      5 C          -1.2235    2.9168   23.7531 C.ar    1  UNL1        0.0845
      6 C          -2.5535    3.6104   23.7740 C.ar    1  UNL1        0.0203
      7 C          -0.4092    2.7389   27.6332 C.ar    1  UNL1        0.0000
      8 C          -0.6380    1.4361   28.3407 C.ar    1  UNL1       -0.0003
      9 C           0.0767    1.1457   29.6270 C.ar    1  UNL1       -0.0043
     10 C           1.0202    2.1580   30.2060 C.ar    1  UNL1       -0.0227
     11 C           1.2490    3.4607   29.4985 C.ar    1  UNL1       -0.0043
     12 C           0.5342    3.7512   28.2121 C.ar    1  UNL1       -0.0003
     13 C           1.7349    1.8674   31.4924 C.3     1  UNL1        0.0229
     14 C           1.4141    2.6607   32.7243 C.3     1  UNL1        0.0215
     15 C           2.1288    2.3702   34.0107 C.3     1  UNL1        0.0724
     16 N           3.1643    1.2864   34.0651 N.3     1  UNL1       -0.2726
     17 C           3.4852    0.4931   32.8331 C.3     1  UNL1        0.0724
     18 C           2.7705    0.7836   31.5468 C.3     1  UNL1        0.0215
     19 C           2.7991    1.4091   33.3375 C.3     1  UNL1        0.0724
     20 C           2.1528    1.6718   32.1743 C.3     1  UNL1        0.0215
     21 N          -0.6083    2.5138   22.4457 N.ar    1  UNL1       -0.2089
     22 C           0.4309    1.4499   22.2511 C.ar    1  UNL1        0.1229
     23 C           0.7571    1.3825   20.7886 C.ar    1  UNL1        0.1236
     24 N          -0.0805    2.4048   20.0793 N.ar    1  UNL1       -0.1284
     25 N          -0.9245    3.1041   21.1034 N.ar    1  UNL1       -0.0595
     26 C           1.7471    0.4556   20.1478 C.ar    1  UNL1        0.0210
     27 C           2.2964    0.7688   18.7876 C.ar    1  UNL1        0.0015
     28 C           3.2864   -0.1582   18.1469 C.ar    1  UNL1        0.0039
     29 C           3.7272   -1.3984   18.8664 C.ar    1  UNL1        0.0714
     30 C           3.1779   -1.7116   20.2266 C.ar    1  UNL1        0.0039
     31 C           2.1879   -0.7846   20.8673 C.ar    1  UNL1        0.0015
     32 C           4.7173   -2.3254   18.2256 C.3     1  UNL1        0.4186
     33 F           5.7073   -3.2524   17.5848 F       1  UNL1       -0.1659
     34 F           5.5663   -1.1510   17.8386 F       1  UNL1       -0.1659
     35 F           3.8681   -3.4998   18.6126 F       1  UNL1       -0.1659
     36 O          -5.7512    3.9193   25.3482 O.co2   1  UNL1       -0.5446
     37 C          -4.4985    4.7068   25.1024 C.2     1  UNL1        0.0729
     38 O          -4.5757    6.1879   24.8776 O.co2   1  UNL1       -0.5446
@<TRIPOS>UNITY_ATOM_ATTR
36 1
charge -1
@<TRIPOS>BOND
     1    36    37   ar
     2    37    38   ar
     3    37     1    1
     4     1     2   ar
     5     2     3   ar
     6     3     7    1
     7     7     8   ar
     8     8     9   ar
     9     9    10   ar
    10    10    13    1
    11    13    14    1
    12    14    15    1
    13    15    16    1
    14    16    17    1
    15    17    18    1
    16    16    19    1
    17    19    20    1
    18    10    11   ar
    19    11    12   ar
    20     3     4   ar
    21     4     5   ar
    22     5    21    1
    23    21    22   ar
    24    22    23   ar
    25    23    26    1
    26    26    27   ar
    27    27    28   ar
    28    28    29   ar
    29    29    32    1
    30    32    33    1
    31    32    34    1
    32    32    35    1
    33    29    30   ar
    34    30    31   ar
    35    23    24   ar
    36    24    25   ar
    37     5     6   ar
    38     6     1   ar
    39    12     7   ar
    40    25    21   ar
    41    18    13    1
    42    31    26   ar
    43    20    13    1
@<TRIPOS>MOLECULE
*****
 38 43 0 0 0
SMALL
GASTEIGER

@<TRIPOS>ATOM
      1 C          -0.4638    2.6883   26.2277 C.ar    1  UNL1        0.0155
      2 C           0.1645    2.0864   25.0058 C.ar    1  UNL1        0.0012
      3 C           1.2622    1.0741   25.1481 C.ar    1  UNL1        0.0015
      4 C           1.7317    0.6636   26.5123 C.ar    1  UNL1        0.0192
      5 C           1.1034    1.2654   27.7342 C.ar    1  UNL1        0.0845
      6 C           0.0057    2.2778   27.5920 C.ar    1  UNL1        0.0203
      7 C           1.8904    0.4723   23.9262 C.ar    1  UNL1        0.0000
      8 C           3.0245   -0.4994   24.0671 C.ar    1  UNL1       -0.0003
      9 C           3.6527   -1.1012   22.8452 C.ar    1  UNL1       -0.0043
     10 C           3.1470   -0.7313   21.4823 C.ar    1  UNL1       -0.0227
     11 C           2.0130    0.2404   21.3413 C.ar    1  UNL1       -0.0043
     12 C           1.3847    0.8422   22.5633 C.ar    1  UNL1       -0.0003
     13 C           3.7753   -1.3331   20.2603 C.3     1  UNL1        0.0229
     14 C           4.6357   -0.4899   19.3667 C.3     1  UNL1        0.0215
     15 C           5.2639   -1.0918   18.1448 C.3     1  UNL1        0.0724
     16 N           5.0317   -2.5369   17.8166 N.3     1  UNL1       -0.2726
     17 C           4.1713   -3.3801   18.7102 C.3     1  UNL1        0.0724
     18 C           3.5431   -2.7783   19.9321 C.3     1  UNL1        0.0215
     19 C           4.6663   -2.2516   18.4970 C.3     1  UNL1        0.0724
     20 C           4.0983   -1.7073   19.6018 C.3     1  UNL1        0.0215
     21 N           1.5729    0.8549   29.0984 N.ar    1  UNL1       -0.2089
     22 C           1.7549    1.7628   30.2785 C.ar    1  UNL1        0.1229
     23 C           2.2372    0.9334   31.4315 C.ar    1  UNL1        0.1236
     24 N           2.3534   -0.4871   30.9641 N.ar    1  UNL1       -0.1284
     25 N           1.9428   -0.5358   29.5221 N.ar    1  UNL1       -0.0595
     26 C           2.5487    1.4362   32.8099 C.ar    1  UNL1        0.0210
     27 C           3.5867    0.7452   33.6436 C.ar    1  UNL1        0.0015
     28 C           3.8982    1.2481   35.0220 C.ar    1  UNL1        0.0039
     29 C           3.1717    2.4420   35.5668 C.ar    1  UNL1        0.0714
     30 C           2.1337    3.1331   34.7331 C.ar    1  UNL1        0.0039
     31 C           1.8222    2.6302   33.3547 C.ar    1  UNL1        0.0015
     32 C           3.4832    2.9449   36.9453 C.3     1  UNL1        0.4186
     33 F           3.7948    3.4477   38.3237 F       1  UNL1       -0.1659
     34 F           2.2396    3.7831   36.9205 F       1  UNL1       -0.1659
     35 F           4.7269    2.1066   36.9699 F       1  UNL1       -0.1659
     36 O          -1.2758    5.0336   25.4597 O.co2   1  UNL1       -0.5446
     37 C          -1.5614    3.7006   26.0854 C.2     1  UNL1        0.0729
     38 O          -2.9447    3.3799   26.5688 O.co2   1  UNL1       -0.5446
@<TRIPOS>UNITY_ATOM_ATTR
36 1
charge -1
@<TRIPOS>BOND
     1    36    37   ar
     2    37    38   ar
     3    37     1    1
     4     1     2   ar
     5     2     3   ar
     6     3     7    1
     7     7     8   ar
     8     8     9   ar
     9     9    10   ar
    10    10    13    1
    11    13    14    1
    12    14    15    1
    13    15    16    1
    14    16    17    1
    15    17    18    1
    16    16    19    1
    17    19    20    1
    18    10    11   ar
    19    11    12   ar
    20     3     4   ar
    21     4     5   ar
    22     5    21    1
    23    21    22   ar
    24    22    23   ar
    25    23    26    1
    26    26    27   ar
    27    27    28   ar
    28    28    29   ar
    29    29    32    1
    30    32    33    1
    31    32    34    1
    32    32    35    1
    33    29    30   ar
    34    30    31   ar
    35    23    24   ar
    36    24    25   ar
    37     5     6   ar
    38     6     1   ar
    39    12     7   ar
    40    25    21   ar
    41    18    13    1
    42    31    26   ar
    43    20    13    1
