@<TRIPOS>MOLECULE
*****
 31 36 0 0 0
SMALL
GASTEIGER

@<TRIPOS>ATOM
      1 N          -0.7848    2.7437   20.7807 N.pl3   1  UNL1       -0.3075
      2 C          -0.5728    2.8878   19.3028 C.3     1  UNL1        0.0908
      3 C           0.7128    2.4286   18.6812 C.3     1  UNL1        0.0237
      4 C           1.7864    1.8254   19.5375 C.3     1  UNL1        0.0285
      5 C           1.5745    1.6812   21.0155 C.3     1  UNL1        0.0237
      6 C           0.2889    2.1404   21.6371 C.3     1  UNL1        0.0908
      7 C           3.0720    1.3662   18.9159 C.3     1  UNL1        0.1117
      8 C           3.5579   -0.0510   18.8400 C.ar    1  UNL1        0.0272
      9 C           2.9644   -1.3425   19.3192 C.ar    1  UNL1        0.1379
     10 F           1.6387   -1.3440   20.0208 F       1  UNL1       -0.2044
     11 C           3.6967   -2.6326   19.0966 C.ar    1  UNL1        0.0294
     12 C           5.0224   -2.6310   18.3949 C.ar    1  UNL1        0.0023
     13 C           5.6159   -1.3395   17.9157 C.ar    1  UNL1        0.0014
     14 C           4.8837   -0.0494   18.1382 C.ar    1  UNL1        0.0173
     15 C           5.2172    1.3686   17.7805 C.ar    1  UNL1        0.0804
     16 C           6.2426    2.2459   17.1257 C.ar    1  UNL1        0.1178
     17 N           5.7567    3.6630   17.2016 N.ar    1  UNL1       -0.2223
     18 C           4.4310    3.6615   17.9034 C.ar    1  UNL1        0.1788
     19 N           4.0975    2.2435   18.2611 N.ar    1  UNL1       -0.3069
     20 C          -4.6416    4.1212   22.6454 C.ar    1  UNL1        0.0031
     21 C          -4.6155    3.6880   21.2096 C.ar    1  UNL1        0.0014
     22 C          -3.3299    3.2289   20.5880 C.ar    1  UNL1        0.0145
     23 C          -2.0704    3.2029   21.4023 C.ar    1  UNL1        0.0478
     24 C          -2.0965    3.6360   22.8382 C.ar    1  UNL1        0.0145
     25 C          -3.3821    4.0952   23.4598 C.ar    1  UNL1        0.0014
     26 C          -8.1066    6.4078   25.9083 C.3     1  UNL1        0.1538
     27 N          -7.5199    5.6314   24.7668 N.ar    1  UNL1       -0.2473
     28 C          -6.0588    5.4075   24.5113 C.ar    1  UNL1        0.0967
     29 C          -5.9272    4.5804   23.2670 C.ar    1  UNL1        0.0396
     30 C          -7.3069    4.2929   22.7533 C.ar    1  UNL1        0.1216
     31 N          -8.2912    4.9425   23.6803 N.ar    1  UNL1       -0.1676
@<TRIPOS>BOND
     1    26    27    1
     2    27    28   ar
     3    28    29   ar
     4    29    20    1
     5    20    21   ar
     6    21    22   ar
     7    22    23   ar
     8    23     1    1
     9     1     2    1
    10     2     3    1
    11     3     4    1
    12     4     7    1
    13     7     8    1
    14     8     9   ar
    15     9    10    1
    16     9    11   ar
    17    11    12   ar
    18    12    13   ar
    19    13    14   ar
    20    14    15    1
    21    15    16   ar
    22    16    17   ar
    23    17    18   ar
    24    18    19   ar
    25     4     5    1
    26     5     6    1
    27    23    24   ar
    28    24    25   ar
    29    29    30   ar
    30    30    31   ar
    31    31    27   ar
    32    25    20   ar
    33     6     1    1
    34    19     7    1
    35    14     8   ar
    36    19    15   ar
@<TRIPOS>MOLECULE
*****
 31 36 0 0 0
SMALL
GASTEIGER

@<TRIPOS>ATOM
      1 N           0.5490    2.0085   28.3902 N.pl3   1  UNL1       -0.3075
      2 C           0.1460    3.4392   28.1891 C.3     1  UNL1        0.0908
      3 C          -0.5961    3.8423   26.9493 C.3     1  UNL1        0.0237
      4 C          -0.9351    2.8146   25.9107 C.3     1  UNL1        0.0285
      5 C          -0.5321    1.3837   26.1118 C.3     1  UNL1        0.0237
      6 C           0.2099    0.9807   27.3515 C.3     1  UNL1        0.0908
      7 C          -1.6772    3.2176   24.6710 C.3     1  UNL1        0.1117
      8 C          -3.1145    3.6413   24.6023 C.ar    1  UNL1        0.0272
      9 C          -4.1706    3.7833   25.6580 C.ar    1  UNL1        0.1379
     10 F          -3.8473    3.4714   27.0890 F       1  UNL1       -0.2044
     11 C          -5.5501    4.2373   25.2824 C.ar    1  UNL1        0.0294
     12 C          -5.8734    4.5492   23.8513 C.ar    1  UNL1        0.0023
     13 C          -4.8173    4.4072   22.7956 C.ar    1  UNL1        0.0014
     14 C          -3.4378    3.9532   23.1711 C.ar    1  UNL1        0.0173
     15 C          -2.2004    3.7223   22.3553 C.ar    1  UNL1        0.0804
     16 C          -1.6355    3.7725   20.9667 C.ar    1  UNL1        0.1178
     17 N          -0.1982    3.3488   21.0355 N.ar    1  UNL1       -0.2223
     18 C           0.1252    3.0368   22.4666 C.ar    1  UNL1        0.1788
     19 N          -1.1123    3.2677   23.2823 N.ar    1  UNL1       -0.3069
     20 C           2.7752    0.7994   32.1093 C.ar    1  UNL1        0.0031
     21 C           2.0207    2.0954   32.0748 C.ar    1  UNL1        0.0014
     22 C           1.2787    2.4984   30.8350 C.ar    1  UNL1        0.0145
     23 C           1.2910    1.6055   29.6299 C.ar    1  UNL1        0.0478
     24 C           2.0455    0.3094   29.6644 C.ar    1  UNL1        0.0145
     25 C           2.7876   -0.0936   30.9041 C.ar    1  UNL1        0.0014
     26 C           4.9261    0.8997   36.9306 C.3     1  UNL1        0.1538
     27 N           4.5059    0.4425   35.5651 N.ar    1  UNL1       -0.2473
     28 C           3.7054    1.2376   34.5766 C.ar    1  UNL1        0.0967
     29 C           3.5172    0.3964   33.3491 C.ar    1  UNL1        0.0396
     30 C           4.2013   -0.9186   33.5788 C.ar    1  UNL1        0.1216
     31 N           4.8123   -0.8901   34.9484 N.ar    1  UNL1       -0.1676
@<TRIPOS>BOND
     1    26    27    1
     2    27    28   ar
     3    28    29   ar
     4    29    20    1
     5    20    21   ar
     6    21    22   ar
     7    22    23   ar
     8    23     1    1
     9     1     2    1
    10     2     3    1
    11     3     4    1
    12     4     7    1
    13     7     8    1
    14     8     9   ar
    15     9    10    1
    16     9    11   ar
    17    11    12   ar
    18    12    13   ar
    19    13    14   ar
    20    14    15    1
    21    15    16   ar
    22    16    17   ar
    23    17    18   ar
    24    18    19   ar
    25     4     5    1
    26     5     6    1
    27    23    24   ar
    28    24    25   ar
    29    29    30   ar
    30    30    31   ar
    31    31    27   ar
    32    25    20   ar
    33     6     1    1
    34    19     7    1
    35    14     8   ar
    36    19    15   ar
@<TRIPOS>MOLECULE
*****
 31 36 0 0 0
SMALL
GASTEIGER

@<TRIPOS>ATOM
      1 N           5.3675   -1.4435   32.2915 N.pl3   1  UNL1       -0.3075
      2 C           3.9394   -1.0769   32.0154 C.3     1  UNL1        0.0908
      3 C           3.2900    0.0382   32.7801 C.3     1  UNL1        0.0237
      4 C           4.0687    0.7867   33.8209 C.3     1  UNL1        0.0285
      5 C           5.4968    0.4201   34.0971 C.3     1  UNL1        0.0237
      6 C           6.1462   -0.6949   33.3324 C.3     1  UNL1        0.0908
      7 C           3.4192    1.9018   34.5857 C.3     1  UNL1        0.1117
      8 C           3.2385    1.9622   36.0736 C.ar    1  UNL1        0.0272
      9 C           3.6166    1.0109   37.1700 C.ar    1  UNL1        0.1379
     10 F           4.3110   -0.2768   36.8393 F       1  UNL1       -0.2044
     11 C           3.3002    1.3475   38.5972 C.ar    1  UNL1        0.0294
     12 C           2.6058    2.6353   38.9278 C.ar    1  UNL1        0.0023
     13 C           2.2278    3.5865   37.8314 C.ar    1  UNL1        0.0014
     14 C           2.5441    3.2500   36.4042 C.ar    1  UNL1        0.0173
     15 C           2.2956    3.9855   35.1208 C.ar    1  UNL1        0.0804
     16 C           1.7129    5.2360   34.5320 C.ar    1  UNL1        0.1178
     17 N           1.8936    5.1756   33.0441 N.ar    1  UNL1       -0.2223
     18 C           2.5880    3.8878   32.7134 C.ar    1  UNL1        0.1788
     19 N           2.8365    3.1523   33.9969 N.ar    1  UNL1       -0.3069
     20 C           7.3157   -4.7888   29.9972 C.ar    1  UNL1        0.0031
     21 C           6.8512   -3.5572   29.2780 C.ar    1  UNL1        0.0014
     22 C           6.2018   -2.4421   30.0428 C.ar    1  UNL1        0.0145
     23 C           6.0169   -2.5586   31.5267 C.ar    1  UNL1        0.0478
     24 C           6.4815   -3.7902   32.2460 C.ar    1  UNL1        0.0145
     25 C           7.1309   -4.9053   31.4813 C.ar    1  UNL1        0.0014
     26 C           8.6522   -8.0951   26.1033 C.3     1  UNL1        0.1538
     27 N           8.5794   -7.4236   27.4427 N.ar    1  UNL1       -0.2473
     28 C           7.7239   -6.2418   27.7912 C.ar    1  UNL1        0.0967
     29 C           7.9651   -5.9039   29.2325 C.ar    1  UNL1        0.0396
     30 C           8.9699   -6.8767   29.7750 C.ar    1  UNL1        0.1216
     31 N           9.3495   -7.8159   28.6687 N.ar    1  UNL1       -0.1676
@<TRIPOS>BOND
     1    26    27    1
     2    27    28   ar
     3    28    29   ar
     4    29    20    1
     5    20    21   ar
     6    21    22   ar
     7    22    23   ar
     8    23     1    1
     9     1     2    1
    10     2     3    1
    11     3     4    1
    12     4     7    1
    13     7     8    1
    14     8     9   ar
    15     9    10    1
    16     9    11   ar
    17    11    12   ar
    18    12    13   ar
    19    13    14   ar
    20    14    15    1
    21    15    16   ar
    22    16    17   ar
    23    17    18   ar
    24    18    19   ar
    25     4     5    1
    26     5     6    1
    27    23    24   ar
    28    24    25   ar
    29    29    30   ar
    30    30    31   ar
    31    31    27   ar
    32    25    20   ar
    33     6     1    1
    34    19     7    1
    35    14     8   ar
    36    19    15   ar
@<TRIPOS>MOLECULE
*****
 31 36 0 0 0
SMALL
GASTEIGER

@<TRIPOS>ATOM
      1 N          -0.6814    2.7778   27.1593 N.pl3   1  UNL1       -0.3075
      2 C          -0.9239    1.4827   27.8762 C.3     1  UNL1        0.0908
      3 C          -0.2256    1.2015   29.1736 C.3     1  UNL1        0.0237
      4 C           0.7152    2.2153   29.7541 C.3     1  UNL1        0.0285
      5 C           0.9578    3.5105   29.0372 C.3     1  UNL1        0.0237
      6 C           0.2594    3.7917   27.7398 C.3     1  UNL1        0.0908
      7 C           1.4135    1.9341   31.0515 C.3     1  UNL1        0.1117
      8 C           1.3850    2.8024   32.2745 C.ar    1  UNL1        0.0272
      9 C           0.7091    4.1104   32.5612 C.ar    1  UNL1        0.1379
     10 F          -0.1226    4.7726   31.5031 F       1  UNL1       -0.2044
     11 C           0.8651    4.7562   33.9061 C.ar    1  UNL1        0.0294
     12 C           1.6968    4.0939   34.9641 C.ar    1  UNL1        0.0023
     13 C           2.3727    2.7859   34.6774 C.ar    1  UNL1        0.0014
     14 C           2.2169    2.1401   33.3325 C.ar    1  UNL1        0.0173
     15 C           2.7594    0.8626   32.7636 C.ar    1  UNL1        0.0804
     16 C           3.6088   -0.3362   33.0660 C.ar    1  UNL1        0.1178
     17 N           3.6373   -1.2044   31.8431 N.ar    1  UNL1       -0.2223
     18 C           2.8055   -0.5422   30.7849 C.ar    1  UNL1        0.1788
     19 N           2.2629    0.7353   31.3539 N.ar    1  UNL1       -0.3069
     20 C          -2.7763    3.6215   23.2671 C.ar    1  UNL1        0.0031
     21 C          -1.3237    3.2476   23.2713 C.ar    1  UNL1        0.0014
     22 C          -0.6254    2.9663   24.5687 C.ar    1  UNL1        0.0145
     23 C          -1.3797    3.0590   25.8619 C.ar    1  UNL1        0.0478
     24 C          -2.8324    3.4330   25.8577 C.ar    1  UNL1        0.0145
     25 C          -3.5307    3.7142   24.5603 C.ar    1  UNL1        0.0014
     26 C          -6.0848    3.2741   19.1665 C.3     1  UNL1        0.1538
     27 N          -4.9953    3.7430   20.0849 N.ar    1  UNL1       -0.2473
     28 C          -4.6069    3.1094   21.3879 C.ar    1  UNL1        0.0967
     29 C          -3.4746    3.9027   21.9697 C.ar    1  UNL1        0.0396
     30 C          -3.1632    5.0267   21.0264 C.ar    1  UNL1        0.1216
     31 N          -4.1031    4.9279   19.8615 N.ar    1  UNL1       -0.1676
@<TRIPOS>BOND
     1    26    27    1
     2    27    28   ar
     3    28    29   ar
     4    29    20    1
     5    20    21   ar
     6    21    22   ar
     7    22    23   ar
     8    23     1    1
     9     1     2    1
    10     2     3    1
    11     3     4    1
    12     4     7    1
    13     7     8    1
    14     8     9   ar
    15     9    10    1
    16     9    11   ar
    17    11    12   ar
    18    12    13   ar
    19    13    14   ar
    20    14    15    1
    21    15    16   ar
    22    16    17   ar
    23    17    18   ar
    24    18    19   ar
    25     4     5    1
    26     5     6    1
    27    23    24   ar
    28    24    25   ar
    29    29    30   ar
    30    30    31   ar
    31    31    27   ar
    32    25    20   ar
    33     6     1    1
    34    19     7    1
    35    14     8   ar
    36    19    15   ar
@<TRIPOS>MOLECULE
*****
 31 36 0 0 0
SMALL
GASTEIGER

@<TRIPOS>ATOM
      1 N         -15.2029   -1.2371   19.3809 N.pl3   1  UNL1       -0.3075
      2 C         -15.1126   -1.7495   17.9741 C.3     1  UNL1        0.0908
      3 C         -14.5831   -3.1280   17.7105 C.3     1  UNL1        0.0237
      4 C         -14.1439   -3.9940   18.8537 C.3     1  UNL1        0.0285
      5 C         -14.2342   -3.4816   20.2606 C.3     1  UNL1        0.0237
      6 C         -14.7637   -2.1032   20.5242 C.3     1  UNL1        0.0908
      7 C         -13.6144   -5.3725   18.5901 C.3     1  UNL1        0.1117
      8 C         -12.1725   -5.7846   18.6245 C.ar    1  UNL1        0.0272
      9 C         -10.9156   -5.0167   18.9082 C.ar    1  UNL1        0.1379
     10 F         -10.9873   -3.5537   19.2311 F       1  UNL1       -0.2044
     11 C          -9.5870   -5.7119   18.8688 C.ar    1  UNL1        0.0294
     12 C          -9.5154   -7.1749   18.5458 C.ar    1  UNL1        0.0023
     13 C         -10.7722   -7.9429   18.2622 C.ar    1  UNL1        0.0014
     14 C         -12.1009   -7.2477   18.3015 C.ar    1  UNL1        0.0173
     15 C         -13.4984   -7.7398   18.0675 C.ar    1  UNL1        0.0804
     16 C         -14.3178   -8.9482   17.7233 C.ar    1  UNL1        0.1178
     17 N         -15.7596   -8.5360   17.6889 N.ar    1  UNL1       -0.2223
     18 C         -15.8314   -7.0729   18.0119 C.ar    1  UNL1        0.1788
     19 N         -14.4338   -6.5809   18.2459 N.ar    1  UNL1       -0.3069
     20 C         -16.7914    2.8983   20.1717 C.ar    1  UNL1        0.0031
     21 C         -17.4566    1.7074   20.7955 C.ar    1  UNL1        0.0014
     22 C         -16.9271    0.3289   20.5319 C.ar    1  UNL1        0.0145
     23 C         -15.7324    0.1414   19.6445 C.ar    1  UNL1        0.0478
     24 C         -15.0671    1.3323   19.0206 C.ar    1  UNL1        0.0145
     25 C         -15.5966    2.7108   19.2842 C.ar    1  UNL1        0.0014
     26 C         -19.7529    6.8804   21.9753 C.3     1  UNL1        0.1538
     27 N         -18.6821    6.1071   21.2643 N.ar    1  UNL1       -0.2473
     28 C         -18.5162    4.6163   21.2752 C.ar    1  UNL1        0.0967
     29 C         -17.3209    4.2767   20.4352 C.ar    1  UNL1        0.0396
     30 C         -16.7478    5.5576   19.9050 C.ar    1  UNL1        0.1216
     31 N         -17.5892    6.6888   20.4175 N.ar    1  UNL1       -0.1676
@<TRIPOS>BOND
     1    26    27    1
     2    27    28   ar
     3    28    29   ar
     4    29    20    1
     5    20    21   ar
     6    21    22   ar
     7    22    23   ar
     8    23     1    1
     9     1     2    1
    10     2     3    1
    11     3     4    1
    12     4     7    1
    13     7     8    1
    14     8     9   ar
    15     9    10    1
    16     9    11   ar
    17    11    12   ar
    18    12    13   ar
    19    13    14   ar
    20    14    15    1
    21    15    16   ar
    22    16    17   ar
    23    17    18   ar
    24    18    19   ar
    25     4     5    1
    26     5     6    1
    27    23    24   ar
    28    24    25   ar
    29    29    30   ar
    30    30    31   ar
    31    31    27   ar
    32    25    20   ar
    33     6     1    1
    34    19     7    1
    35    14     8   ar
    36    19    15   ar
@<TRIPOS>MOLECULE
*****
 31 36 0 0 0
SMALL
GASTEIGER

@<TRIPOS>ATOM
      1 N           3.0905    0.3118   27.8576 N.pl3   1  UNL1       -0.3075
      2 C           2.1755   -0.4056   28.8052 C.3     1  UNL1        0.0908
      3 C           2.1455   -0.0209   30.2547 C.3     1  UNL1        0.0237
      4 C           3.0306    1.0812   30.7566 C.3     1  UNL1        0.0285
      5 C           3.9457    1.7987   29.8089 C.3     1  UNL1        0.0237
      6 C           3.9757    1.4140   28.3594 C.3     1  UNL1        0.0908
      7 C           3.0006    1.4660   32.2061 C.3     1  UNL1        0.1117
      8 C           3.7075    0.7549   33.3218 C.ar    1  UNL1        0.0272
      9 C           4.5896   -0.4582   33.3393 C.ar    1  UNL1        0.1379
     10 F           4.8948   -1.1820   32.0615 F       1  UNL1       -0.2044
     11 C           5.1666   -0.9473   34.6347 C.ar    1  UNL1        0.0294
     12 C           4.8613   -0.2234   35.9124 C.ar    1  UNL1        0.0023
     13 C           3.9792    0.9896   35.8950 C.ar    1  UNL1        0.0014
     14 C           3.4023    1.4788   34.5997 C.ar    1  UNL1        0.0173
     15 C           2.5068    2.6372   34.2737 C.ar    1  UNL1        0.0804
     16 C           1.7647    3.8005   34.8620 C.ar    1  UNL1        0.1178
     17 N           1.0579    4.5115   33.7463 N.ar    1  UNL1       -0.2223
     18 C           1.3631    3.7876   32.4684 C.ar    1  UNL1        0.1788
     19 N           2.2586    2.6293   32.7944 N.ar    1  UNL1       -0.3069
     20 C           3.1804   -0.8424   23.5090 C.ar    1  UNL1        0.0031
     21 C           2.3233    0.3014   23.9638 C.ar    1  UNL1        0.0014
     22 C           2.2933    0.6861   25.4133 C.ar    1  UNL1        0.0145
     23 C           3.1205   -0.0729   26.4080 C.ar    1  UNL1        0.0478
     24 C           3.9777   -1.2168   25.9533 C.ar    1  UNL1        0.0145
     25 C           4.0077   -1.6016   24.5037 C.ar    1  UNL1        0.0014
     26 C           4.5766   -3.0818   18.9355 C.3     1  UNL1        0.1538
     27 N           3.8521   -2.2565   19.9574 N.ar    1  UNL1       -0.2473
     28 C           4.1917   -2.1608   21.4153 C.ar    1  UNL1        0.0967
     29 C           3.2104   -1.2271   22.0595 C.ar    1  UNL1        0.0396
     30 C           2.2642   -0.7457   20.9998 C.ar    1  UNL1        0.1216
     31 N           2.6608   -1.3819   19.7006 N.ar    1  UNL1       -0.1676
@<TRIPOS>BOND
     1    26    27    1
     2    27    28   ar
     3    28    29   ar
     4    29    20    1
     5    20    21   ar
     6    21    22   ar
     7    22    23   ar
     8    23     1    1
     9     1     2    1
    10     2     3    1
    11     3     4    1
    12     4     7    1
    13     7     8    1
    14     8     9   ar
    15     9    10    1
    16     9    11   ar
    17    11    12   ar
    18    12    13   ar
    19    13    14   ar
    20    14    15    1
    21    15    16   ar
    22    16    17   ar
    23    17    18   ar
    24    18    19   ar
    25     4     5    1
    26     5     6    1
    27    23    24   ar
    28    24    25   ar
    29    29    30   ar
    30    30    31   ar
    31    31    27   ar
    32    25    20   ar
    33     6     1    1
    34    19     7    1
    35    14     8   ar
    36    19    15   ar
@<TRIPOS>MOLECULE
*****
 31 36 0 0 0
SMALL
GASTEIGER

@<TRIPOS>ATOM
      1 N           1.2963    2.1793   27.5924 N.pl3   1  UNL1       -0.3075
      2 C           2.4507    2.5080   26.6928 C.3     1  UNL1        0.0908
      3 C           2.3502    2.2490   25.2187 C.3     1  UNL1        0.0237
      4 C           1.0954    1.6613   24.6443 C.3     1  UNL1        0.0285
      5 C          -0.0590    1.3325   25.5440 C.3     1  UNL1        0.0237
      6 C           0.0414    1.5915   27.0180 C.3     1  UNL1        0.0908
      7 C           0.9949    1.4023   23.1703 C.3     1  UNL1        0.1117
      8 C           1.7617    0.3662   22.4028 C.ar    1  UNL1        0.0272
      9 C           2.7809   -0.6485   22.8291 C.ar    1  UNL1        0.1379
     10 F           3.1918   -0.7397   24.2687 F       1  UNL1       -0.2044
     11 C           3.3891   -1.5719   21.8154 C.ar    1  UNL1        0.0294
     12 C           2.9781   -1.4806   20.3758 C.ar    1  UNL1        0.0023
     13 C           1.9589   -0.4659   19.9496 C.ar    1  UNL1        0.0014
     14 C           1.3507    0.4575   20.9631 C.ar    1  UNL1        0.0173
     15 C           0.3300    1.5499   20.8407 C.ar    1  UNL1        0.0804
     16 C          -0.5547    2.2814   19.8753 C.ar    1  UNL1        0.1178
     17 N          -1.3213    3.3174   20.6427 N.ar    1  UNL1       -0.2223
     18 C          -0.9104    3.2262   22.0824 C.ar    1  UNL1        0.1788
     19 N           0.1102    2.1338   22.2048 N.ar    1  UNL1       -0.3069
     20 C           1.5977    2.9563   32.0146 C.ar    1  UNL1        0.0031
     21 C           1.1481    4.0486   31.0901 C.ar    1  UNL1        0.0014
     22 C           1.0477    3.7896   29.6160 C.ar    1  UNL1        0.0145
     23 C           1.3968    2.4383   29.0665 C.ar    1  UNL1        0.0478
     24 C           1.8464    1.3459   29.9910 C.ar    1  UNL1        0.0145
     25 C           1.9469    1.6049   31.4650 C.ar    1  UNL1        0.0014
     26 C           1.1677    5.2502   36.7510 C.3     1  UNL1        0.1538
     27 N           1.5005    4.2697   35.6657 N.ar    1  UNL1       -0.2473
     28 C           1.1873    4.4286   34.2074 C.ar    1  UNL1        0.0967
     29 C           1.6982    3.2153   33.4886 C.ar    1  UNL1        0.0396
     30 C           2.3272    2.3063   34.5026 C.ar    1  UNL1        0.1216
     31 N           2.2050    2.9580   35.8481 N.ar    1  UNL1       -0.1676
@<TRIPOS>BOND
     1    26    27    1
     2    27    28   ar
     3    28    29   ar
     4    29    20    1
     5    20    21   ar
     6    21    22   ar
     7    22    23   ar
     8    23     1    1
     9     1     2    1
    10     2     3    1
    11     3     4    1
    12     4     7    1
    13     7     8    1
    14     8     9   ar
    15     9    10    1
    16     9    11   ar
    17    11    12   ar
    18    12    13   ar
    19    13    14   ar
    20    14    15    1
    21    15    16   ar
    22    16    17   ar
    23    17    18   ar
    24    18    19   ar
    25     4     5    1
    26     5     6    1
    27    23    24   ar
    28    24    25   ar
    29    29    30   ar
    30    30    31   ar
    31    31    27   ar
    32    25    20   ar
    33     6     1    1
    34    19     7    1
    35    14     8   ar
    36    19    15   ar
@<TRIPOS>MOLECULE
*****
 31 36 0 0 0
SMALL
GASTEIGER

@<TRIPOS>ATOM
      1 N          -0.2192    2.4164   24.1948 N.pl3   1  UNL1       -0.3075
      2 C           0.3152    1.7510   22.9614 C.3     1  UNL1        0.0908
      3 C          -0.1935    2.1568   21.6099 C.3     1  UNL1        0.0237
      4 C          -1.2368    3.2281   21.4919 C.3     1  UNL1        0.0285
      5 C          -1.7713    3.8936   22.7254 C.3     1  UNL1        0.0237
      6 C          -1.2625    3.4878   24.0769 C.3     1  UNL1        0.0908
      7 C          -1.7455    3.6339   20.1404 C.3     1  UNL1        0.1117
      8 C          -3.1789    3.6237   19.6984 C.ar    1  UNL1        0.0272
      9 C          -4.4446    3.2385   20.4053 C.ar    1  UNL1        0.1379
     10 F          -4.3940    2.7576   21.8251 F       1  UNL1       -0.2044
     11 C          -5.7609    3.3344   19.6923 C.ar    1  UNL1        0.0294
     12 C          -5.8114    3.8154   18.2725 C.ar    1  UNL1        0.0023
     13 C          -4.5457    4.2006   17.5655 C.ar    1  UNL1        0.0014
     14 C          -3.2295    4.1047   18.2784 C.ar    1  UNL1        0.0173
     15 C          -1.8274    4.4122   17.8430 C.ar    1  UNL1        0.0804
     16 C          -0.9922    4.8995   16.6963 C.ar    1  UNL1        0.1178
     17 N           0.4411    4.9098   17.1384 N.ar    1  UNL1       -0.2223
     18 C           0.4918    4.4288   18.5583 C.ar    1  UNL1        0.1788
     19 N          -0.9103    4.1213   18.9937 N.ar    1  UNL1       -0.3069
     20 C           1.3070    1.1989   28.2492 C.ar    1  UNL1        0.0031
     21 C          -0.1031    1.6859   28.0939 C.ar    1  UNL1        0.0014
     22 C          -0.6119    2.0917   26.7424 C.ar    1  UNL1        0.0145
     23 C           0.2895    2.0106   25.5463 C.ar    1  UNL1        0.0478
     24 C           1.6998    1.5236   25.7016 C.ar    1  UNL1        0.0145
     25 C           2.2085    1.1177   27.0530 C.ar    1  UNL1        0.0014
     26 C           2.8672    1.3813   33.2904 C.3     1  UNL1        0.1538
     27 N           2.5329    0.8769   31.9178 N.ar    1  UNL1       -0.2473
     28 C           2.0084    1.7007   30.7792 C.ar    1  UNL1        0.0967
     29 C           1.8158    0.7931   29.6007 C.ar    1  UNL1        0.0396
     30 C           2.2212   -0.5917   30.0107 C.ar    1  UNL1        0.1216
     31 N           2.6644   -0.5398   31.4428 N.ar    1  UNL1       -0.1676
@<TRIPOS>BOND
     1    26    27    1
     2    27    28   ar
     3    28    29   ar
     4    29    20    1
     5    20    21   ar
     6    21    22   ar
     7    22    23   ar
     8    23     1    1
     9     1     2    1
    10     2     3    1
    11     3     4    1
    12     4     7    1
    13     7     8    1
    14     8     9   ar
    15     9    10    1
    16     9    11   ar
    17    11    12   ar
    18    12    13   ar
    19    13    14   ar
    20    14    15    1
    21    15    16   ar
    22    16    17   ar
    23    17    18   ar
    24    18    19   ar
    25     4     5    1
    26     5     6    1
    27    23    24   ar
    28    24    25   ar
    29    29    30   ar
    30    30    31   ar
    31    31    27   ar
    32    25    20   ar
    33     6     1    1
    34    19     7    1
    35    14     8   ar
    36    19    15   ar
@<TRIPOS>MOLECULE
*****
 31 36 0 0 0
SMALL
GASTEIGER

@<TRIPOS>ATOM
      1 N           1.5429    1.9413   26.4347 N.pl3   1  UNL1       -0.3075
      2 C           0.3485    1.4914   25.6467 C.3     1  UNL1        0.0908
      3 C           0.5265    0.9453   24.2610 C.3     1  UNL1        0.0237
      4 C           1.8989    0.8492   23.6633 C.3     1  UNL1        0.0285
      5 C           3.0934    1.2991   24.4513 C.3     1  UNL1        0.0237
      6 C           2.9154    1.8452   25.8370 C.3     1  UNL1        0.0908
      7 C           2.0769    0.3031   22.2776 C.3     1  UNL1        0.1117
      8 C           2.8749   -0.9109   21.9041 C.ar    1  UNL1        0.0272
      9 C           3.6763   -1.8770   22.7254 C.ar    1  UNL1        0.1379
     10 F           3.7718   -1.6987   24.2116 F       1  UNL1       -0.2044
     11 C           4.3821   -3.0214   22.0603 C.ar    1  UNL1        0.0294
     12 C           4.2864   -3.1996   20.5740 C.ar    1  UNL1        0.0023
     13 C           3.4851   -2.2335   19.7527 C.ar    1  UNL1        0.0014
     14 C           2.7793   -1.0891   20.4178 C.ar    1  UNL1        0.0173
     15 C           1.9222    0.0147   19.8727 C.ar    1  UNL1        0.0804
     16 C           1.3335    0.5866   18.6172 C.ar    1  UNL1        0.1178
     17 N           0.5355    1.8006   18.9908 N.ar    1  UNL1       -0.2223
     18 C           0.6310    1.9788   20.4771 C.ar    1  UNL1        0.1788
     19 N           1.4881    0.8751   21.0222 N.ar    1  UNL1       -0.3069
     20 C           1.0089    3.5795   30.5917 C.ar    1  UNL1        0.0031
     21 C           1.5425    4.4604   29.5013 C.ar    1  UNL1        0.0014
     22 C           1.7205    3.9143   28.1156 C.ar    1  UNL1        0.0145
     23 C           1.3649    2.4874   27.8204 C.ar    1  UNL1        0.0478
     24 C           0.8312    1.6064   28.9109 C.ar    1  UNL1        0.0145
     25 C           0.6532    2.1524   30.2966 C.ar    1  UNL1        0.0014
     26 C           1.6601    4.4932   35.7514 C.3     1  UNL1        0.1538
     27 N           1.1302    4.5455   34.3490 N.ar    1  UNL1       -0.2473
     28 C           1.6538    3.7665   33.1790 C.ar    1  UNL1        0.0967
     29 C           0.8309    4.1256   31.9774 C.ar    1  UNL1        0.0396
     30 C          -0.2013    5.1266   32.4047 C.ar    1  UNL1        0.1216
     31 N          -0.0162    5.3861   33.8705 N.ar    1  UNL1       -0.1676
@<TRIPOS>BOND
     1    26    27    1
     2    27    28   ar
     3    28    29   ar
     4    29    20    1
     5    20    21   ar
     6    21    22   ar
     7    22    23   ar
     8    23     1    1
     9     1     2    1
    10     2     3    1
    11     3     4    1
    12     4     7    1
    13     7     8    1
    14     8     9   ar
    15     9    10    1
    16     9    11   ar
    17    11    12   ar
    18    12    13   ar
    19    13    14   ar
    20    14    15    1
    21    15    16   ar
    22    16    17   ar
    23    17    18   ar
    24    18    19   ar
    25     4     5    1
    26     5     6    1
    27    23    24   ar
    28    24    25   ar
    29    29    30   ar
    30    30    31   ar
    31    31    27   ar
    32    25    20   ar
    33     6     1    1
    34    19     7    1
    35    14     8   ar
    36    19    15   ar
