@<TRIPOS>MOLECULE
*****
 34 38 0 0 0
SMALL
GASTEIGER

@<TRIPOS>ATOM
      1 C           6.3022   -3.3721   24.2273 C.ar    1  UNL1        0.0291
      2 C           5.8292   -2.3882   25.2560 C.ar    1  UNL1        0.0036
      3 C           5.9845   -2.6964   26.7158 C.ar    1  UNL1        0.0152
      4 C           6.6127   -3.9885   27.1469 C.ar    1  UNL1        0.0593
      5 C           7.0858   -4.9724   26.1181 C.ar    1  UNL1        0.0446
      6 C           6.9305   -4.6642   24.6584 C.ar    1  UNL1        0.1414
      7 F           7.4035   -5.6481   23.6296 F       1  UNL1       -0.2041
      8 C           5.8364   -2.4476   19.8480 C.ar    1  UNL1        0.1178
      9 C           4.7821   -3.2388   20.5638 C.ar    1  UNL1        0.0221
     10 C           4.9373   -3.5470   22.0235 C.ar    1  UNL1        0.0033
     11 C           6.1470   -3.0639   22.7675 C.ar    1  UNL1        0.0213
     12 C           7.2013   -2.2728   22.0517 C.ar    1  UNL1        0.0990
     13 N           7.0460   -1.9646   20.5920 N.ar    1  UNL1       -0.2409
     14 C           5.6811   -2.1395   18.3882 C.2     1  UNL1        0.2133
     15 O           6.8484   -2.2989   17.4598 O.2     1  UNL1       -0.2877
     16 C           4.3587   -1.6718   17.8569 C.3     1  UNL1        0.1784
     17 C           1.3109    2.5826   18.5587 C.3     1  UNL1        0.0538
     18 C           2.5129    1.6971   18.4133 C.ar    1  UNL1        0.0783
     19 C           2.4933    0.2173   18.1679 C.ar    1  UNL1        0.0923
     20 N           3.9138   -0.2585   18.0908 N.ar    1  UNL1       -0.3006
     21 C           4.8112    0.9271   18.2885 C.ar    1  UNL1        0.1786
     22 N           3.9454    2.1356   18.4879 N.ar    1  UNL1       -0.2283
     23 N           6.7680   -4.2967   28.6066 N.am    1  UNL1       -0.2212
     24 C           6.4493   -3.3700   29.7422 C.3     1  UNL1        0.1471
     25 C           6.7535   -4.0863   31.0245 C.3     1  UNL1        0.2149
     26 O           7.2604   -5.4558   30.6814 O.3     1  UNL1       -0.4342
     27 C           7.2693   -5.5858   29.1871 C.2     1  UNL1        0.4088
     28 O           7.7033   -6.7930   28.4097 O.2     1  UNL1       -0.2258
     29 C           6.5813   -3.5307   32.4071 C.3     1  UNL1        0.1745
     30 N           5.6519   -2.3768   32.6413 N.ar    1  UNL1       -0.2264
     31 C           6.0346   -0.9266   32.6623 C.ar    1  UNL1        0.1193
     32 C           4.7959   -0.1241   32.9296 C.ar    1  UNL1        0.1441
     33 N           3.6475   -1.0783   33.0739 N.ar    1  UNL1       -0.1271
     34 N           4.1765   -2.4706   32.8957 N.ar    1  UNL1       -0.0636
@<TRIPOS>BOND
     1    17    18    1
     2    18    19   ar
     3    19    20   ar
     4    20    16    1
     5    16    14    1
     6    14    15    2
     7    14     8    1
     8     8     9   ar
     9     9    10   ar
    10    10    11   ar
    11    11     1    1
    12     1     2   ar
    13     2     3   ar
    14     3     4   ar
    15     4    23    1
    16    23    24    1
    17    24    25    1
    18    25    29    1
    19    29    30    1
    20    30    31   ar
    21    31    32   ar
    22    32    33   ar
    23    33    34   ar
    24    25    26    1
    25    26    27    1
    26    27    28    2
    27     4     5   ar
    28     5     6   ar
    29     6     7    1
    30    11    12   ar
    31    12    13   ar
    32    20    21   ar
    33    21    22   ar
    34    22    18   ar
    35    13     8   ar
    36     6     1   ar
    37    27    23   am
    38    34    30   ar
@<TRIPOS>MOLECULE
*****
 34 38 0 0 0
SMALL
GASTEIGER

@<TRIPOS>ATOM
      1 C           1.2489    1.4120   20.5636 C.ar    1  UNL1        0.0291
      2 C           1.4527   -0.0269   20.9349 C.ar    1  UNL1        0.0036
      3 C           2.6271   -0.7835   20.3885 C.ar    1  UNL1        0.0152
      4 C           3.5977   -0.1010   19.4708 C.ar    1  UNL1        0.0593
      5 C           3.3939    1.3380   19.0994 C.ar    1  UNL1        0.0446
      6 C           2.2195    2.0945   19.6458 C.ar    1  UNL1        0.1414
      7 F           2.0157    3.5335   19.2745 F       1  UNL1       -0.2041
      8 C          -2.2741    3.6816   22.2028 C.ar    1  UNL1        0.1178
      9 C          -1.1604    3.2636   23.1164 C.ar    1  UNL1        0.0221
     10 C           0.0139    2.5071   22.5700 C.ar    1  UNL1        0.0033
     11 C           0.0745    2.1686   21.1100 C.ar    1  UNL1        0.0213
     12 C          -1.0392    2.5867   20.1963 C.ar    1  UNL1        0.0990
     13 N          -2.2135    3.3432   20.7427 N.ar    1  UNL1       -0.2409
     14 C          -3.4485    4.4382   22.7492 C.2     1  UNL1        0.2133
     15 O          -3.5719    5.9125   22.5015 O.2     1  UNL1       -0.2877
     16 C          -4.4994    3.7205   23.5432 C.3     1  UNL1        0.1784
     17 C          -8.6501    6.3572   25.4669 C.3     1  UNL1        0.0538
     18 C          -7.7758    5.5293   24.5724 C.ar    1  UNL1        0.0783
     19 C          -6.3518    5.1431   24.8431 C.ar    1  UNL1        0.0923
     20 N          -5.8680    4.3173   23.6882 N.ar    1  UNL1       -0.3006
     21 C          -6.9928    4.1930   22.7037 C.ar    1  UNL1        0.1786
     22 N          -8.1720    4.9420   23.2501 N.ar    1  UNL1       -0.2283
     23 N           4.7720   -0.8575   18.9244 N.am    1  UNL1       -0.2212
     24 C           5.9488   -1.3492   19.7139 C.3     1  UNL1        0.1471
     25 C           6.8799   -2.0507   18.7700 C.3     1  UNL1        0.2149
     26 O           6.2785   -1.9925   17.3970 O.3     1  UNL1       -0.4342
     27 C           4.9758   -1.2551   17.4925 C.2     1  UNL1        0.4088
     28 O           4.0410   -0.9661   16.3556 O.2     1  UNL1       -0.2258
     29 C           8.1834   -2.6969   19.1350 C.3     1  UNL1        0.1745
     30 N           8.3017   -3.4797   20.4090 N.ar    1  UNL1       -0.2264
     31 C           9.2850   -3.2245   21.5126 C.ar    1  UNL1        0.1193
     32 C           9.0485   -4.2423   22.5888 C.ar    1  UNL1        0.1441
     33 N           7.9190   -5.1266   22.1503 N.ar    1  UNL1       -0.1271
     34 N           7.4574   -4.6553   20.8031 N.ar    1  UNL1       -0.0636
@<TRIPOS>BOND
     1    17    18    1
     2    18    19   ar
     3    19    20   ar
     4    20    16    1
     5    16    14    1
     6    14    15    2
     7    14     8    1
     8     8     9   ar
     9     9    10   ar
    10    10    11   ar
    11    11     1    1
    12     1     2   ar
    13     2     3   ar
    14     3     4   ar
    15     4    23    1
    16    23    24    1
    17    24    25    1
    18    25    29    1
    19    29    30    1
    20    30    31   ar
    21    31    32   ar
    22    32    33   ar
    23    33    34   ar
    24    25    26    1
    25    26    27    1
    26    27    28    2
    27     4     5   ar
    28     5     6   ar
    29     6     7    1
    30    11    12   ar
    31    12    13   ar
    32    20    21   ar
    33    21    22   ar
    34    22    18   ar
    35    13     8   ar
    36     6     1   ar
    37    27    23   am
    38    34    30   ar
@<TRIPOS>MOLECULE
*****
 34 38 0 0 0
SMALL
GASTEIGER

@<TRIPOS>ATOM
      1 C           6.4167   -3.5180   22.3894 C.ar    1  UNL1        0.0291
      2 C           7.6697   -4.3022   22.1346 C.ar    1  UNL1        0.0036
      3 C           8.3014   -5.0883   23.2451 C.ar    1  UNL1        0.0152
      4 C           7.6800   -5.0901   24.6103 C.ar    1  UNL1        0.0593
      5 C           6.4269   -4.3059   24.8651 C.ar    1  UNL1        0.0446
      6 C           5.7953   -3.5199   23.7546 C.ar    1  UNL1        0.1414
      7 F           4.5422   -2.7356   24.0094 F       1  UNL1       -0.2041
      8 C           4.5216   -1.1599   19.0581 C.ar    1  UNL1        0.1178
      9 C           3.9549   -2.4921   19.4504 C.ar    1  UNL1        0.0221
     10 C           4.5866   -3.2782   20.5609 C.ar    1  UNL1        0.0033
     11 C           5.7850   -2.7319   21.2789 C.ar    1  UNL1        0.0213
     12 C           6.3516   -1.3997   20.8865 C.ar    1  UNL1        0.0990
     13 N           5.7199   -0.6137   19.7761 N.ar    1  UNL1       -0.2409
     14 C           3.8898   -0.3738   17.9476 C.2     1  UNL1        0.2133
     15 O           3.9529   -0.8831   16.5381 O.2     1  UNL1       -0.2877
     16 C           3.1952    0.9215   18.2466 C.3     1  UNL1        0.1784
     17 C          -0.1351    2.5516   22.0061 C.3     1  UNL1        0.0538
     18 C           0.5390    1.7070   20.9658 C.ar    1  UNL1        0.0783
     19 C           1.7336    2.1012   20.1485 C.ar    1  UNL1        0.0923
     20 N           2.0698    0.9577   19.2377 N.ar    1  UNL1       -0.3006
     21 C           1.0831   -0.1431   19.4920 C.ar    1  UNL1        0.1786
     22 N           0.1371    0.3200   20.5600 N.ar    1  UNL1       -0.2283
     23 N           8.3117   -5.8762   25.7208 N.am    1  UNL1       -0.2212
     24 C           8.2766   -5.5267   27.1791 C.3     1  UNL1        0.1471
     25 C           9.0325   -6.5842   27.9275 C.3     1  UNL1        0.2149
     26 O           9.5348   -7.5873   26.9317 O.3     1  UNL1       -0.4342
     27 C           9.0893   -7.1497   25.5679 C.2     1  UNL1        0.4088
     28 O           9.3718   -7.8608   24.2777 O.2     1  UNL1       -0.2258
     29 C           9.2483   -6.6306   29.4112 C.3     1  UNL1        0.1745
     30 N           8.5430   -5.6518   30.3026 N.ar    1  UNL1       -0.2264
     31 C           9.1286   -4.3901   30.8642 C.ar    1  UNL1        0.1193
     32 C           8.0758   -3.7214   31.6976 C.ar    1  UNL1        0.1441
     33 N           6.8396   -4.5698   31.6510 N.ar    1  UNL1       -0.1271
     34 N           7.1284   -5.7628   30.7889 N.ar    1  UNL1       -0.0636
@<TRIPOS>BOND
     1    17    18    1
     2    18    19   ar
     3    19    20   ar
     4    20    16    1
     5    16    14    1
     6    14    15    2
     7    14     8    1
     8     8     9   ar
     9     9    10   ar
    10    10    11   ar
    11    11     1    1
    12     1     2   ar
    13     2     3   ar
    14     3     4   ar
    15     4    23    1
    16    23    24    1
    17    24    25    1
    18    25    29    1
    19    29    30    1
    20    30    31   ar
    21    31    32   ar
    22    32    33   ar
    23    33    34   ar
    24    25    26    1
    25    26    27    1
    26    27    28    2
    27     4     5   ar
    28     5     6   ar
    29     6     7    1
    30    11    12   ar
    31    12    13   ar
    32    20    21   ar
    33    21    22   ar
    34    22    18   ar
    35    13     8   ar
    36     6     1   ar
    37    27    23   am
    38    34    30   ar
@<TRIPOS>MOLECULE
*****
 34 38 0 0 0
SMALL
GASTEIGER

@<TRIPOS>ATOM
      1 C           3.5759   -0.0568   28.4274 C.ar    1  UNL1        0.0291
      2 C           4.9239    0.2267   29.0211 C.ar    1  UNL1        0.0036
      3 C           5.1162    0.1678   30.5076 C.ar    1  UNL1        0.0152
      4 C           3.9605   -0.1747   31.4004 C.ar    1  UNL1        0.0593
      5 C           2.6125   -0.4582   30.8066 C.ar    1  UNL1        0.0446
      6 C           2.4202   -0.3993   29.3202 C.ar    1  UNL1        0.1414
      7 F           1.0721   -0.6829   28.7265 F       1  UNL1       -0.2041
      8 C           2.9990    0.1198   23.9681 C.ar    1  UNL1        0.1178
      9 C           3.7734   -1.0097   24.5799 C.ar    1  UNL1        0.0221
     10 C           3.9657   -1.0686   26.0664 C.ar    1  UNL1        0.0033
     11 C           3.3836    0.0021   26.9409 C.ar    1  UNL1        0.0213
     12 C           2.6091    1.1316   26.3290 C.ar    1  UNL1        0.0990
     13 N           2.4169    1.1904   24.8426 N.ar    1  UNL1       -0.2409
     14 C           2.8067    0.1787   22.4816 C.2     1  UNL1        0.2133
     15 O           1.4298    0.3430   21.9094 O.2     1  UNL1       -0.2877
     16 C           3.9911    0.0733   21.5673 C.3     1  UNL1        0.1784
     17 C           3.5940   -4.6274   19.1952 C.3     1  UNL1        0.0538
     18 C           3.8638   -3.1728   19.4431 C.ar    1  UNL1        0.0783
     19 C           3.6459   -2.4435   20.7357 C.ar    1  UNL1        0.0923
     20 N           4.0464   -1.0121   20.5335 N.ar    1  UNL1       -0.3006
     21 C           4.5118   -0.8568   19.1160 C.ar    1  UNL1        0.1786
     22 N           4.3990   -2.1922   18.4421 N.ar    1  UNL1       -0.2283
     23 N           4.1528   -0.2336   32.8868 N.am    1  UNL1       -0.2212
     24 C           4.3164    0.9436   33.8020 C.3     1  UNL1        0.1471
     25 C           4.4799    0.4247   35.1999 C.3     1  UNL1        0.2149
     26 O           4.4174   -1.0732   35.1485 O.3     1  UNL1       -0.4342
     27 C           4.2152   -1.4800   33.7190 C.2     1  UNL1        0.4088
     28 O           4.0962   -2.8862   33.2109 O.2     1  UNL1       -0.2258
     29 C           4.6723    1.2574   36.4326 C.3     1  UNL1        0.1745
     30 N           3.4809    1.7291   37.2125 N.ar    1  UNL1       -0.2264
     31 C           3.1926    1.4237   38.6525 C.ar    1  UNL1        0.1193
     32 C           1.9022    2.0948   39.0192 C.ar    1  UNL1        0.1441
     33 N           1.3930    2.8149   37.8059 N.ar    1  UNL1       -0.1271
     34 N           2.3686    2.5889   36.6892 N.ar    1  UNL1       -0.0636
@<TRIPOS>BOND
     1    17    18    1
     2    18    19   ar
     3    19    20   ar
     4    20    16    1
     5    16    14    1
     6    14    15    2
     7    14     8    1
     8     8     9   ar
     9     9    10   ar
    10    10    11   ar
    11    11     1    1
    12     1     2   ar
    13     2     3   ar
    14     3     4   ar
    15     4    23    1
    16    23    24    1
    17    24    25    1
    18    25    29    1
    19    29    30    1
    20    30    31   ar
    21    31    32   ar
    22    32    33   ar
    23    33    34   ar
    24    25    26    1
    25    26    27    1
    26    27    28    2
    27     4     5   ar
    28     5     6   ar
    29     6     7    1
    30    11    12   ar
    31    12    13   ar
    32    20    21   ar
    33    21    22   ar
    34    22    18   ar
    35    13     8   ar
    36     6     1   ar
    37    27    23   am
    38    34    30   ar
@<TRIPOS>MOLECULE
*****
 34 38 0 0 0
SMALL
GASTEIGER

@<TRIPOS>ATOM
      1 C          -0.2885    2.6876   27.9480 C.ar    1  UNL1        0.0291
      2 C           0.5411    3.7536   28.6003 C.ar    1  UNL1        0.0036
      3 C           1.3244    3.4404   29.8406 C.ar    1  UNL1        0.0152
      4 C           1.2782    2.0612   30.4286 C.ar    1  UNL1        0.0593
      5 C           0.4486    0.9952   29.7762 C.ar    1  UNL1        0.0446
      6 C          -0.3347    1.3084   28.5359 C.ar    1  UNL1        0.1414
      7 F          -1.1643    0.2424   27.8836 F       1  UNL1       -0.2041
      8 C          -2.6384    3.6271   24.2271 C.ar    1  UNL1        0.1178
      9 C          -1.3087    2.9411   24.1211 C.ar    1  UNL1        0.0221
     10 C          -0.5254    2.6280   25.3614 C.ar    1  UNL1        0.0033
     11 C          -1.0718    3.0008   26.7077 C.ar    1  UNL1        0.0213
     12 C          -2.4015    3.6868   26.8137 C.ar    1  UNL1        0.0990
     13 N          -3.1848    4.0000   25.5734 N.ar    1  UNL1       -0.2409
     14 C          -3.4217    3.9404   22.9868 C.2     1  UNL1        0.2133
     15 O          -2.8623    4.8854   21.9651 O.2     1  UNL1       -0.2877
     16 C          -4.7645    3.3086   22.7683 C.3     1  UNL1        0.1784
     17 C          -8.8790    5.9424   24.7720 C.3     1  UNL1        0.0538
     18 C          -7.9015    5.3471   23.8024 C.ar    1  UNL1        0.0783
     19 C          -6.7007    4.5206   24.1564 C.ar    1  UNL1        0.0923
     20 N          -6.0103    4.1364   22.8814 N.ar    1  UNL1       -0.3006
     21 C          -6.7842    4.7254   21.7394 C.ar    1  UNL1        0.1786
     22 N          -7.9531    5.4736   22.3086 N.ar    1  UNL1       -0.2283
     23 N           2.0615    1.7479   31.6688 N.am    1  UNL1       -0.2212
     24 C           2.3720    2.7055   32.7809 C.3     1  UNL1        0.1471
     25 C           3.1743    1.9715   33.8142 C.3     1  UNL1        0.2149
     26 O           3.3595    0.5602   33.3407 O.3     1  UNL1       -0.4342
     27 C           2.6718    0.4221   32.0148 C.2     1  UNL1        0.4088
     28 O           2.6059   -0.8232   31.1813 O.2     1  UNL1       -0.2258
     29 C           3.6991    2.5476   35.0958 C.3     1  UNL1        0.1745
     30 N           3.0520    2.1876   36.4004 N.ar    1  UNL1       -0.2264
     31 C           3.4670    1.0712   37.3121 C.ar    1  UNL1        0.1193
     32 C           2.5477    1.0746   38.4973 C.ar    1  UNL1        0.1441
     33 N           1.5645    2.1932   38.3182 N.ar    1  UNL1       -0.1271
     34 N           1.8761    2.8811   37.0222 N.ar    1  UNL1       -0.0636
@<TRIPOS>BOND
     1    17    18    1
     2    18    19   ar
     3    19    20   ar
     4    20    16    1
     5    16    14    1
     6    14    15    2
     7    14     8    1
     8     8     9   ar
     9     9    10   ar
    10    10    11   ar
    11    11     1    1
    12     1     2   ar
    13     2     3   ar
    14     3     4   ar
    15     4    23    1
    16    23    24    1
    17    24    25    1
    18    25    29    1
    19    29    30    1
    20    30    31   ar
    21    31    32   ar
    22    32    33   ar
    23    33    34   ar
    24    25    26    1
    25    26    27    1
    26    27    28    2
    27     4     5   ar
    28     5     6   ar
    29     6     7    1
    30    11    12   ar
    31    12    13   ar
    32    20    21   ar
    33    21    22   ar
    34    22    18   ar
    35    13     8   ar
    36     6     1   ar
    37    27    23   am
    38    34    30   ar
@<TRIPOS>MOLECULE
*****
 34 38 0 0 0
SMALL
GASTEIGER

@<TRIPOS>ATOM
      1 C           3.7426   -0.4047   28.7149 C.ar    1  UNL1        0.0291
      2 C           5.1135   -0.2368   29.2997 C.ar    1  UNL1        0.0036
      3 C           5.2927   -0.1837   30.7881 C.ar    1  UNL1        0.0152
      4 C           4.1007   -0.2984   31.6915 C.ar    1  UNL1        0.0593
      5 C           2.7297   -0.4663   31.1066 C.ar    1  UNL1        0.0446
      6 C           2.5506   -0.5194   29.6183 C.ar    1  UNL1        0.1414
      7 F           1.1796   -0.6873   29.0333 F       1  UNL1       -0.2041
      8 C           3.2051   -0.5641   24.2499 C.ar    1  UNL1        0.1178
      9 C           2.5071    0.4939   25.0520 C.ar    1  UNL1        0.0221
     10 C           2.6862    0.5470   26.5403 C.ar    1  UNL1        0.0033
     11 C           3.5634   -0.4579   27.2265 C.ar    1  UNL1        0.0213
     12 C           4.2615   -1.5158   26.4244 C.ar    1  UNL1        0.0990
     13 N           4.0823   -1.5689   24.9361 N.ar    1  UNL1       -0.2409
     14 C           3.0260   -0.6172   22.7616 C.2     1  UNL1        0.2133
     15 O           2.2330    0.4474   22.0631 O.2     1  UNL1       -0.2877
     16 C           3.6399   -1.7349   21.9717 C.3     1  UNL1        0.1784
     17 C           3.7954   -0.8315   16.7716 C.3     1  UNL1        0.0538
     18 C           4.2166   -1.0667   18.1919 C.ar    1  UNL1        0.0783
     19 C           3.2998   -1.2912   19.3578 C.ar    1  UNL1        0.0923
     20 N           4.1451   -1.4819   20.5821 N.ar    1  UNL1       -0.3006
     21 C           5.5843   -1.3753   20.1730 C.ar    1  UNL1        0.1786
     22 N           5.6285   -1.1187   18.6958 N.ar    1  UNL1       -0.2283
     23 N           4.2798   -0.2453   33.1798 N.am    1  UNL1       -0.2212
     24 C           4.5168    0.9908   33.9958 C.3     1  UNL1        0.1471
     25 C           4.6368    0.5812   35.4338 C.3     1  UNL1        0.2149
     26 O           4.4740   -0.9083   35.5065 O.3     1  UNL1       -0.4342
     27 C           4.2533   -1.4190   34.1135 C.2     1  UNL1        0.4088
     28 O           4.0431   -2.8519   33.7228 O.2     1  UNL1       -0.2258
     29 C           4.8774    1.4995   36.5951 C.3     1  UNL1        0.1745
     30 N           3.7711    1.7854   37.5669 N.ar    1  UNL1       -0.2264
     31 C           2.6431    2.7520   37.3593 C.ar    1  UNL1        0.1193
     32 C           1.7735    2.7189   38.5811 C.ar    1  UNL1        0.1441
     33 N           2.3641    1.7318   39.5438 N.ar    1  UNL1       -0.1271
     34 N           3.5987    1.1548   38.9170 N.ar    1  UNL1       -0.0636
@<TRIPOS>BOND
     1    17    18    1
     2    18    19   ar
     3    19    20   ar
     4    20    16    1
     5    16    14    1
     6    14    15    2
     7    14     8    1
     8     8     9   ar
     9     9    10   ar
    10    10    11   ar
    11    11     1    1
    12     1     2   ar
    13     2     3   ar
    14     3     4   ar
    15     4    23    1
    16    23    24    1
    17    24    25    1
    18    25    29    1
    19    29    30    1
    20    30    31   ar
    21    31    32   ar
    22    32    33   ar
    23    33    34   ar
    24    25    26    1
    25    26    27    1
    26    27    28    2
    27     4     5   ar
    28     5     6   ar
    29     6     7    1
    30    11    12   ar
    31    12    13   ar
    32    20    21   ar
    33    21    22   ar
    34    22    18   ar
    35    13     8   ar
    36     6     1   ar
    37    27    23   am
    38    34    30   ar
@<TRIPOS>MOLECULE
*****
 34 38 0 0 0
SMALL
GASTEIGER

@<TRIPOS>ATOM
      1 C           0.9743    2.0167   19.1826 C.ar    1  UNL1        0.0291
      2 C           0.3562    2.9855   18.2187 C.ar    1  UNL1        0.0036
      3 C          -0.9237    3.6830   18.5733 C.ar    1  UNL1        0.0152
      4 C          -1.5852    3.4116   19.8919 C.ar    1  UNL1        0.0593
      5 C          -0.9670    2.4427   20.8558 C.ar    1  UNL1        0.0446
      6 C           0.3128    1.7453   20.5012 C.ar    1  UNL1        0.1414
      7 F           0.9310    0.7765   21.4652 F       1  UNL1       -0.2041
      8 C           4.8136   -0.0756   18.1187 C.ar    1  UNL1        0.1178
      9 C           3.5193   -0.5286   17.5108 C.ar    1  UNL1        0.0221
     10 C           2.2396    0.1689   17.8655 C.ar    1  UNL1        0.0033
     11 C           2.2542    1.3193   18.8280 C.ar    1  UNL1        0.0213
     12 C           3.5485    1.7722   19.4359 C.ar    1  UNL1        0.0990
     13 N           4.8282    1.0747   19.0812 N.ar    1  UNL1       -0.2409
     14 C           6.0934   -0.7731   17.7641 C.2     1  UNL1        0.2133
     15 O           7.2829    0.0239   17.3168 O.2     1  UNL1       -0.2877
     16 C           6.1838   -2.2675   17.8567 C.3     1  UNL1        0.1784
     17 C           4.6608   -3.5391   22.7501 C.3     1  UNL1        0.0538
     18 C           4.8561   -3.5710   21.2632 C.ar    1  UNL1        0.0783
     19 C           5.6173   -2.5646   20.4521 C.ar    1  UNL1        0.0923
     20 N           5.5561   -2.9865   19.0140 N.ar    1  UNL1       -0.3006
     21 C           4.7571   -4.2536   18.9362 C.ar    1  UNL1        0.1786
     22 N           4.3245   -4.6149   20.3263 N.ar    1  UNL1       -0.2283
     23 N          -2.8650    4.1090   20.2465 N.am    1  UNL1       -0.2212
     24 C          -3.1419    4.8487   21.5218 C.3     1  UNL1        0.1471
     25 C          -4.5406    5.3860   21.4516 C.3     1  UNL1        0.2149
     26 O          -5.1281    4.9784   20.1329 O.3     1  UNL1       -0.4342
     27 C          -4.0925    4.1892   19.3882 C.2     1  UNL1        0.4088
     28 O          -4.2558    3.5860   18.0246 O.2     1  UNL1       -0.2258
     29 C          -5.2306    6.1898   22.5135 C.3     1  UNL1        0.1745
     30 N          -6.5326    5.7142   23.0870 N.ar    1  UNL1       -0.2264
     31 C          -7.4177    6.4837   24.0220 C.ar    1  UNL1        0.1193
     32 C          -8.6101    5.6306   24.3389 C.ar    1  UNL1        0.1441
     33 N          -8.4619    4.3338   23.5997 N.ar    1  UNL1       -0.1271
     34 N          -7.1779    4.3854   22.8260 N.ar    1  UNL1       -0.0636
@<TRIPOS>BOND
     1    17    18    1
     2    18    19   ar
     3    19    20   ar
     4    20    16    1
     5    16    14    1
     6    14    15    2
     7    14     8    1
     8     8     9   ar
     9     9    10   ar
    10    10    11   ar
    11    11     1    1
    12     1     2   ar
    13     2     3   ar
    14     3     4   ar
    15     4    23    1
    16    23    24    1
    17    24    25    1
    18    25    29    1
    19    29    30    1
    20    30    31   ar
    21    31    32   ar
    22    32    33   ar
    23    33    34   ar
    24    25    26    1
    25    26    27    1
    26    27    28    2
    27     4     5   ar
    28     5     6   ar
    29     6     7    1
    30    11    12   ar
    31    12    13   ar
    32    20    21   ar
    33    21    22   ar
    34    22    18   ar
    35    13     8   ar
    36     6     1   ar
    37    27    23   am
    38    34    30   ar
@<TRIPOS>MOLECULE
*****
 34 38 0 0 0
SMALL
GASTEIGER

@<TRIPOS>ATOM
      1 C           6.7085   -0.9326   33.4536 C.ar    1  UNL1        0.0291
      2 C           8.1362   -1.2453   33.1162 C.ar    1  UNL1        0.0036
      3 C           8.4564   -2.3798   32.1886 C.ar    1  UNL1        0.0152
      4 C           7.3489   -3.2016   31.5985 C.ar    1  UNL1        0.0593
      5 C           5.9212   -2.8888   31.9360 C.ar    1  UNL1        0.0446
      6 C           5.6010   -1.7543   32.8635 C.ar    1  UNL1        0.1414
      7 F           4.1733   -1.4415   33.2010 F       1  UNL1       -0.2041
      8 C           5.7479    2.4708   36.2364 C.ar    1  UNL1        0.1178
      9 C           6.4426    1.2483   36.7586 C.ar    1  UNL1        0.0221
     10 C           6.7628    0.1139   35.8311 C.ar    1  UNL1        0.0033
     11 C           6.3883    0.2020   34.3812 C.ar    1  UNL1        0.0213
     12 C           5.6936    1.4245   33.8590 C.ar    1  UNL1        0.0990
     13 N           5.3734    2.5589   34.7866 N.ar    1  UNL1       -0.2409
     14 C           5.4276    3.6054   37.1640 C.2     1  UNL1        0.2133
     15 O           5.7130    5.0179   36.7477 O.2     1  UNL1       -0.2877
     16 C           4.8221    3.3273   38.5079 C.3     1  UNL1        0.1784
     17 C           1.0205   -0.2061   39.4793 C.3     1  UNL1        0.0538
     18 C           1.7311    1.0430   39.0495 C.ar    1  UNL1        0.0783
     19 C           3.2068    1.2949   39.1445 C.ar    1  UNL1        0.0923
     20 N           3.4785    2.6672   38.6030 N.ar    1  UNL1       -0.3006
     21 C           2.1708    3.2633   38.1734 C.ar    1  UNL1        0.1786
     22 N           1.0909    2.2595   38.4493 N.ar    1  UNL1       -0.2283
     23 N           7.6691   -4.3360   30.6709 N.am    1  UNL1       -0.2212
     24 C           8.3993   -4.2281   29.3651 C.3     1  UNL1        0.1471
     25 C           8.4968   -5.6030   28.7734 C.3     1  UNL1        0.2149
     26 O           7.8269   -6.5607   29.7137 O.3     1  UNL1       -0.4342
     27 C           7.3154   -5.7777   30.8863 C.2     1  UNL1        0.4088
     28 O           6.5793   -6.3380   32.0671 O.2     1  UNL1       -0.2258
     29 C           9.1496   -5.9579   27.4704 C.3     1  UNL1        0.1745
     30 N           8.4272   -5.7138   26.1786 N.ar    1  UNL1       -0.2264
     31 C           7.6034   -4.5058   25.8437 C.ar    1  UNL1        0.1193
     32 C           7.0689   -4.6804   24.4531 C.ar    1  UNL1        0.1441
     33 N           7.5622   -5.9962   23.9286 N.ar    1  UNL1       -0.1271
     34 N           8.4017   -6.6350   24.9950 N.ar    1  UNL1       -0.0636
@<TRIPOS>BOND
     1    17    18    1
     2    18    19   ar
     3    19    20   ar
     4    20    16    1
     5    16    14    1
     6    14    15    2
     7    14     8    1
     8     8     9   ar
     9     9    10   ar
    10    10    11   ar
    11    11     1    1
    12     1     2   ar
    13     2     3   ar
    14     3     4   ar
    15     4    23    1
    16    23    24    1
    17    24    25    1
    18    25    29    1
    19    29    30    1
    20    30    31   ar
    21    31    32   ar
    22    32    33   ar
    23    33    34   ar
    24    25    26    1
    25    26    27    1
    26    27    28    2
    27     4     5   ar
    28     5     6   ar
    29     6     7    1
    30    11    12   ar
    31    12    13   ar
    32    20    21   ar
    33    21    22   ar
    34    22    18   ar
    35    13     8   ar
    36     6     1   ar
    37    27    23   am
    38    34    30   ar
@<TRIPOS>MOLECULE
*****
 34 38 0 0 0
SMALL
GASTEIGER

@<TRIPOS>ATOM
      1 C           2.9690    0.2297   24.2645 C.ar    1  UNL1        0.0291
      2 C           2.0593    1.3445   24.6882 C.ar    1  UNL1        0.0036
      3 C           1.7276    1.5316   26.1391 C.ar    1  UNL1        0.0152
      4 C           2.3058    0.6039   27.1663 C.ar    1  UNL1        0.0593
      5 C           3.2156   -0.5110   26.7425 C.ar    1  UNL1        0.0446
      6 C           3.5472   -0.6980   25.2917 C.ar    1  UNL1        0.1414
      7 F           4.4570   -1.8128   24.8679 F       1  UNL1       -0.2041
      8 C           3.9639   -0.3315   19.9119 C.ar    1  UNL1        0.1178
      9 C           2.7689   -1.0191   20.5028 C.ar    1  UNL1        0.0221
     10 C           2.4373   -0.8320   21.9536 C.ar    1  UNL1        0.0033
     11 C           3.3007    0.0427   22.8136 C.ar    1  UNL1        0.0213
     12 C           4.4957    0.7302   22.2227 C.ar    1  UNL1        0.0990
     13 N           4.8273    0.5431   20.7719 N.ar    1  UNL1       -0.2409
     14 C           4.2956   -0.5186   18.4610 C.2     1  UNL1        0.2133
     15 O           3.5258    0.2294   17.4132 O.2     1  UNL1       -0.2877
     16 C           5.3970   -1.4537   18.0580 C.3     1  UNL1        0.1784
     17 C           8.0023   -4.4383   21.5489 C.3     1  UNL1        0.0538
     18 C           6.9782   -3.9640   20.5608 C.ar    1  UNL1        0.0783
     19 C           6.9886   -2.6463   19.8439 C.ar    1  UNL1        0.0923
     20 N           5.7806   -2.5922   18.9562 N.ar    1  UNL1       -0.3006
     21 C           5.0237   -3.8762   19.1244 C.ar    1  UNL1        0.1786
     22 N           5.7638   -4.7241   20.1161 N.ar    1  UNL1       -0.2283
     23 N           1.9741    0.7909   28.6171 N.am    1  UNL1       -0.2212
     24 C           2.9626    0.9514   29.7339 C.3     1  UNL1        0.1471
     25 C           2.1952    1.1100   31.0130 C.3     1  UNL1        0.2149
     26 O           0.7324    1.0474   30.6866 O.3     1  UNL1       -0.4342
     27 C           0.5958    0.8502   29.2059 C.2     1  UNL1        0.4088
     28 O          -0.6928    0.7330   28.4473 O.2     1  UNL1       -0.2258
     29 C           2.7867    1.2981   32.3785 C.3     1  UNL1        0.1745
     30 N           3.4658    0.1509   33.0662 N.ar    1  UNL1       -0.2264
     31 C           4.2789    0.2334   34.3240 C.ar    1  UNL1        0.1193
     32 C           4.7666   -1.1466   34.6519 C.ar    1  UNL1        0.1441
     33 N           4.2549   -2.0821   33.5968 N.ar    1  UNL1       -0.1271
     34 N           3.4510   -1.2802   32.6168 N.ar    1  UNL1       -0.0636
@<TRIPOS>BOND
     1    17    18    1
     2    18    19   ar
     3    19    20   ar
     4    20    16    1
     5    16    14    1
     6    14    15    2
     7    14     8    1
     8     8     9   ar
     9     9    10   ar
    10    10    11   ar
    11    11     1    1
    12     1     2   ar
    13     2     3   ar
    14     3     4   ar
    15     4    23    1
    16    23    24    1
    17    24    25    1
    18    25    29    1
    19    29    30    1
    20    30    31   ar
    21    31    32   ar
    22    32    33   ar
    23    33    34   ar
    24    25    26    1
    25    26    27    1
    26    27    28    2
    27     4     5   ar
    28     5     6   ar
    29     6     7    1
    30    11    12   ar
    31    12    13   ar
    32    20    21   ar
    33    21    22   ar
    34    22    18   ar
    35    13     8   ar
    36     6     1   ar
    37    27    23   am
    38    34    30   ar
