@<TRIPOS>MOLECULE
*****
 23 25 0 0 0
SMALL
GASTEIGER

@<TRIPOS>ATOM
      1 C          -7.6845  -18.3842   21.9403 C.3     1  UNL1        0.1516
      2 C          -8.7940  -19.2795   21.4743 C.3     1  UNL1        0.0587
      3 C         -10.0782  -18.5090   21.5592 C.ar    1  UNL1       -0.0202
      4 C         -11.4943  -18.8791   21.2314 C.ar    1  UNL1       -0.0044
      5 C         -12.5946  -17.8776   21.4221 C.ar    1  UNL1       -0.0003
      6 C         -12.2787  -16.5059   21.9406 C.ar    1  UNL1       -0.0002
      7 C         -10.8625  -16.1358   22.2684 C.ar    1  UNL1       -0.0011
      8 C          -9.7623  -17.1373   22.0777 C.ar    1  UNL1        0.0157
      9 C          -8.2829  -17.0602   22.3132 C.3     1  UNL1        0.2139
     10 O          -6.3934  -17.7373   22.3460 O.3     1  UNL1       -0.3503
     11 C          -5.1599  -18.5719   22.5245 C.3     1  UNL1        0.1741
     12 C          -6.8162  -19.5729   21.6521 C.3     1  UNL1        0.1004
     13 C          -5.9471  -21.3699   19.9892 C.3     1  UNL1        0.0859
     14 N          -6.8851  -20.2450   20.3129 N.3     1  UNL1       -0.2942
     15 H          -7.8312  -20.6137   20.2168 H       1  UNL1        0.1234
     16 O          -7.5335  -15.8684   22.8308 O.3     1  UNL1       -0.4726
     17 C          -7.3457  -15.6838   24.3076 C.ar    1  UNL1        0.1349
     18 C          -8.5211  -15.7950   25.2327 C.ar    1  UNL1        0.0366
     19 C          -8.3334  -15.6105   26.7094 C.ar    1  UNL1        0.0031
     20 C          -6.9702  -15.3147   27.2609 C.ar    1  UNL1       -0.0001
     21 C          -5.7948  -15.2035   26.3358 C.ar    1  UNL1       -0.0013
     22 C          -5.9825  -15.3880   24.8591 C.ar    1  UNL1        0.0121
     23 C          -4.8070  -15.2768   23.9339 C.3     1  UNL1        0.0342
@<TRIPOS>BOND
     1    13    14    1
     2    14    12    1
     3     1    12    1
     4     1    10    1
     5    10    11    1
     6     1     2    1
     7     2     3    1
     8     3     4   ar
     9     4     5   ar
    10     5     6   ar
    11     6     7   ar
    12     7     8   ar
    13     8     9    1
    14     9    16    1
    15    16    17    1
    16    17    18   ar
    17    18    19   ar
    18    19    20   ar
    19    20    21   ar
    20    21    22   ar
    21    22    23    1
    22     9     1    1
    23    22    17   ar
    24     8     3   ar
    25    14    15    1
@<TRIPOS>MOLECULE
*****
 23 25 0 0 0
SMALL
GASTEIGER

@<TRIPOS>ATOM
      1 C          -9.4099  -17.4583   21.6311 C.3     1  UNL1        0.1516
      2 C          -9.1327  -18.7657   20.9499 C.3     1  UNL1        0.0587
      3 C          -7.7021  -19.1315   21.2133 C.ar    1  UNL1       -0.0202
      4 C          -6.8737  -20.3095   20.7936 C.ar    1  UNL1       -0.0044
      5 C          -5.4383  -20.4062   21.2180 C.ar    1  UNL1       -0.0003
      6 C          -4.8312  -19.3249   22.0620 C.ar    1  UNL1       -0.0002
      7 C          -5.6596  -18.1470   22.4816 C.ar    1  UNL1       -0.0011
      8 C          -7.0950  -18.0502   22.0573 C.ar    1  UNL1        0.0157
      9 C          -8.1505  -17.0162   22.3155 C.3     1  UNL1        0.2139
     10 O          -9.9750  -16.1879   22.1938 O.3     1  UNL1       -0.3503
     11 C         -11.2836  -16.2090   22.9267 C.3     1  UNL1        0.1741
     12 C         -10.7874  -17.6349   21.0643 C.3     1  UNL1        0.1004
     13 C         -11.5953  -15.8895   19.3176 C.3     1  UNL1        0.0859
     14 N         -11.0668  -17.2558   19.6402 N.3     1  UNL1       -0.2942
     15 H         -10.1896  -17.3601   19.1302 H       1  UNL1        0.1234
     16 O          -7.9770  -15.7604   23.1174 O.3     1  UNL1       -0.4726
     17 C          -7.6170  -15.8426   24.5713 C.ar    1  UNL1        0.1349
     18 C          -8.6531  -16.2438   25.5790 C.ar    1  UNL1        0.0366
     19 C          -8.2932  -16.3260   27.0328 C.ar    1  UNL1        0.0031
     20 C          -6.8970  -16.0071   27.4789 C.ar    1  UNL1       -0.0001
     21 C          -5.8609  -15.6059   26.4712 C.ar    1  UNL1       -0.0013
     22 C          -6.2208  -15.5237   25.0174 C.ar    1  UNL1        0.0121
     23 C          -5.1847  -15.1225   24.0097 C.3     1  UNL1        0.0342
@<TRIPOS>BOND
     1    13    14    1
     2    14    12    1
     3     1    12    1
     4     1    10    1
     5    10    11    1
     6     1     2    1
     7     2     3    1
     8     3     4   ar
     9     4     5   ar
    10     5     6   ar
    11     6     7   ar
    12     7     8   ar
    13     8     9    1
    14     9    16    1
    15    16    17    1
    16    17    18   ar
    17    18    19   ar
    18    19    20   ar
    19    20    21   ar
    20    21    22   ar
    21    22    23    1
    22     9     1    1
    23    22    17   ar
    24     8     3   ar
    25    14    15    1
@<TRIPOS>MOLECULE
*****
 23 25 0 0 0
SMALL
GASTEIGER

@<TRIPOS>ATOM
      1 C          -5.9802  -18.6718   21.8393 C.3     1  UNL1        0.1516
      2 C          -5.0216  -17.9019   22.6986 C.3     1  UNL1        0.0587
      3 C          -5.8132  -16.9223   23.5132 C.ar    1  UNL1       -0.0202
      4 C          -5.4027  -15.9018   24.5330 C.ar    1  UNL1       -0.0044
      5 C          -6.4400  -15.0457   25.1970 C.ar    1  UNL1       -0.0003
      6 C          -7.8879  -15.2101   24.8412 C.ar    1  UNL1       -0.0002
      7 C          -8.2984  -16.2306   23.8214 C.ar    1  UNL1       -0.0011
      8 C          -7.2611  -17.0867   23.1574 C.ar    1  UNL1        0.0157
      9 C          -7.3643  -18.1680   22.1229 C.3     1  UNL1        0.2139
     10 O          -6.6801  -19.5870   20.8788 O.3     1  UNL1       -0.3503
     11 C          -6.0433  -20.8855   20.4807 C.3     1  UNL1        0.1741
     12 C          -4.7424  -19.3670   21.3549 C.3     1  UNL1        0.1004
     13 C          -3.2314  -18.5049   19.4252 C.3     1  UNL1        0.0859
     14 N          -3.5656  -18.5635   20.8863 N.3     1  UNL1       -0.2942
     15 H          -3.7249  -17.6030   21.1906 H       1  UNL1        0.1234
     16 O          -8.6295  -18.6591   21.4841 O.3     1  UNL1       -0.4726
     17 C          -9.9424  -18.4832   22.1881 C.ar    1  UNL1        0.1349
     18 C         -10.9184  -17.4504   21.7077 C.ar    1  UNL1        0.0366
     19 C         -12.2313  -17.2745   22.4116 C.ar    1  UNL1        0.0031
     20 C         -12.5681  -18.1313   23.5958 C.ar    1  UNL1       -0.0001
     21 C         -11.5920  -19.1641   24.0761 C.ar    1  UNL1       -0.0013
     22 C         -10.2792  -19.3400   23.3723 C.ar    1  UNL1        0.0121
     23 C          -9.3031  -20.3728   23.8526 C.3     1  UNL1        0.0342
@<TRIPOS>BOND
     1    13    14    1
     2    14    12    1
     3     1    12    1
     4     1    10    1
     5    10    11    1
     6     1     2    1
     7     2     3    1
     8     3     4   ar
     9     4     5   ar
    10     5     6   ar
    11     6     7   ar
    12     7     8   ar
    13     8     9    1
    14     9    16    1
    15    16    17    1
    16    17    18   ar
    17    18    19   ar
    18    19    20   ar
    19    20    21   ar
    20    21    22   ar
    21    22    23    1
    22     9     1    1
    23    22    17   ar
    24     8     3   ar
    25    14    15    1
@<TRIPOS>MOLECULE
*****
 23 25 0 0 0
SMALL
GASTEIGER

@<TRIPOS>ATOM
      1 C         -10.6525  -17.9412   21.6837 C.3     1  UNL1        0.1516
      2 C         -10.2649  -18.6030   20.3945 C.3     1  UNL1        0.0587
      3 C          -8.8873  -19.1725   20.5616 C.ar    1  UNL1       -0.0202
      4 C          -7.9954  -19.9331   19.6258 C.ar    1  UNL1       -0.0044
      5 C          -6.6396  -20.3839   20.0824 C.ar    1  UNL1       -0.0003
      6 C          -6.1757  -20.0742   21.4748 C.ar    1  UNL1       -0.0002
      7 C          -7.0677  -19.3136   22.4107 C.ar    1  UNL1       -0.0011
      8 C          -8.4235  -18.8627   21.9541 C.ar    1  UNL1        0.0157
      9 C          -9.5144  -18.1018   22.6475 C.3     1  UNL1        0.2139
     10 O         -11.3065  -17.2142   22.8210 O.3     1  UNL1       -0.3503
     11 C         -12.7575  -17.4450   23.1233 C.3     1  UNL1        0.1741
     12 C         -11.9273  -17.6287   20.9576 C.3     1  UNL1        0.1004
     13 C         -11.7429  -15.6172   19.3236 C.3     1  UNL1        0.0859
     14 N         -11.8808  -17.0924   19.5575 N.3     1  UNL1       -0.2942
     15 H         -11.0876  -17.5390   19.0973 H       1  UNL1        0.1234
     16 O          -9.4743  -17.5911   24.0573 O.3     1  UNL1       -0.4726
     17 C          -8.3410  -16.7168   24.5064 C.ar    1  UNL1        0.1349
     18 C          -7.4577  -16.0536   23.4915 C.ar    1  UNL1        0.0366
     19 C          -6.3245  -15.1794   23.9405 C.ar    1  UNL1        0.0031
     20 C          -6.0746  -14.9685   25.4044 C.ar    1  UNL1       -0.0001
     21 C          -6.9578  -15.6317   26.4193 C.ar    1  UNL1       -0.0013
     22 C          -8.0911  -16.5059   25.9703 C.ar    1  UNL1        0.0121
     23 C          -8.9743  -17.1691   26.9852 C.3     1  UNL1        0.0342
@<TRIPOS>BOND
     1    13    14    1
     2    14    12    1
     3     1    12    1
     4     1    10    1
     5    10    11    1
     6     1     2    1
     7     2     3    1
     8     3     4   ar
     9     4     5   ar
    10     5     6   ar
    11     6     7   ar
    12     7     8   ar
    13     8     9    1
    14     9    16    1
    15    16    17    1
    16    17    18   ar
    17    18    19   ar
    18    19    20   ar
    19    20    21   ar
    20    21    22   ar
    21    22    23    1
    22     9     1    1
    23    22    17   ar
    24     8     3   ar
    25    14    15    1
@<TRIPOS>MOLECULE
*****
 23 25 0 0 0
SMALL
GASTEIGER

@<TRIPOS>ATOM
      1 C          -8.7637  -17.9822   21.4805 C.3     1  UNL1        0.1516
      2 C          -8.0941  -19.1860   20.8868 C.3     1  UNL1        0.0587
      3 C          -6.6763  -19.2161   21.3758 C.ar    1  UNL1       -0.0202
      4 C          -5.5468  -20.1696   21.1210 C.ar    1  UNL1       -0.0044
      5 C          -4.2107  -19.9379   21.7621 C.ar    1  UNL1       -0.0003
      6 C          -4.0041  -18.7527   22.6581 C.ar    1  UNL1       -0.0002
      7 C          -5.1337  -17.7993   22.9129 C.ar    1  UNL1       -0.0011
      8 C          -6.4698  -18.0309   22.2717 C.ar    1  UNL1        0.0157
      9 C          -7.7599  -17.2684   22.3364 C.3     1  UNL1        0.2139
     10 O          -9.6834  -16.8795   21.9142 O.3     1  UNL1       -0.3503
     11 C         -10.6739  -16.3043   20.9456 C.3     1  UNL1        0.1741
     12 C          -9.9599  -18.4655   20.7152 C.3     1  UNL1        0.1004
     13 C         -11.0574  -20.0488   22.4584 C.3     1  UNL1        0.0859
     14 N         -10.5875  -19.7839   21.0588 N.3     1  UNL1       -0.2942
     15 H         -11.3992  -19.8910   20.4504 H       1  UNL1        0.1234
     16 O          -8.0033  -16.0125   23.1196 O.3     1  UNL1       -0.4726
     17 C          -7.6744  -15.9651   24.5824 C.ar    1  UNL1        0.1349
     18 C          -6.4653  -15.2137   25.0553 C.ar    1  UNL1        0.0366
     19 C          -6.1363  -15.1663   26.5180 C.ar    1  UNL1        0.0031
     20 C          -7.0164  -15.8704   27.5078 C.ar    1  UNL1       -0.0001
     21 C          -8.2254  -16.6218   27.0349 C.ar    1  UNL1       -0.0013
     22 C          -8.5544  -16.6692   25.5723 C.ar    1  UNL1        0.0121
     23 C          -9.7634  -17.4206   25.0994 C.3     1  UNL1        0.0342
@<TRIPOS>BOND
     1    13    14    1
     2    14    12    1
     3     1    12    1
     4     1    10    1
     5    10    11    1
     6     1     2    1
     7     2     3    1
     8     3     4   ar
     9     4     5   ar
    10     5     6   ar
    11     6     7   ar
    12     7     8   ar
    13     8     9    1
    14     9    16    1
    15    16    17    1
    16    17    18   ar
    17    18    19   ar
    18    19    20   ar
    19    20    21   ar
    20    21    22   ar
    21    22    23    1
    22     9     1    1
    23    22    17   ar
    24     8     3   ar
    25    14    15    1
@<TRIPOS>MOLECULE
*****
 23 25 0 0 0
SMALL
GASTEIGER

@<TRIPOS>ATOM
      1 C         -10.0190  -17.9210   23.1526 C.3     1  UNL1        0.1516
      2 C         -10.1272  -17.4549   24.5742 C.3     1  UNL1        0.0587
      3 C          -8.8727  -16.7056   24.9131 C.ar    1  UNL1       -0.0202
      4 C          -8.4207  -16.0209   26.1689 C.ar    1  UNL1       -0.0044
      5 C          -7.0853  -15.3393   26.2124 C.ar    1  UNL1       -0.0003
      6 C          -6.2018  -15.3423   25.0002 C.ar    1  UNL1       -0.0002
      7 C          -6.6538  -16.0270   23.7445 C.ar    1  UNL1       -0.0011
      8 C          -7.9892  -16.7086   23.7009 C.ar    1  UNL1        0.0157
      9 C          -8.6977  -17.4597   22.6129 C.3     1  UNL1        0.2139
     10 O         -10.1947  -18.5092   21.7840 O.3     1  UNL1       -0.3503
     11 C         -10.9280  -19.8067   21.6137 C.3     1  UNL1        0.1741
     12 C         -11.3771  -18.5052   23.4062 C.3     1  UNL1        0.1004
     13 C         -13.8537  -18.0829   24.0682 C.3     1  UNL1        0.0859
     14 N         -12.5857  -17.6168   23.4163 N.3     1  UNL1       -0.2942
     15 H         -12.3129  -16.7538   23.8866 H       1  UNL1        0.1234
     16 O          -8.1763  -17.7064   21.2282 O.3     1  UNL1       -0.4726
     17 C          -7.1379  -18.7635   20.9950 C.ar    1  UNL1        0.1349
     18 C          -5.9074  -18.8080   21.8517 C.ar    1  UNL1        0.0366
     19 C          -4.8690  -19.8651   21.6185 C.ar    1  UNL1        0.0031
     20 C          -5.0611  -20.8776   20.5286 C.ar    1  UNL1       -0.0001
     21 C          -6.2916  -20.8330   19.6719 C.ar    1  UNL1       -0.0013
     22 C          -7.3300  -19.7760   19.9051 C.ar    1  UNL1        0.0121
     23 C          -8.5605  -19.7315   19.0484 C.3     1  UNL1        0.0342
@<TRIPOS>BOND
     1    13    14    1
     2    14    12    1
     3     1    12    1
     4     1    10    1
     5    10    11    1
     6     1     2    1
     7     2     3    1
     8     3     4   ar
     9     4     5   ar
    10     5     6   ar
    11     6     7   ar
    12     7     8   ar
    13     8     9    1
    14     9    16    1
    15    16    17    1
    16    17    18   ar
    17    18    19   ar
    18    19    20   ar
    19    20    21   ar
    20    21    22   ar
    21    22    23    1
    22     9     1    1
    23    22    17   ar
    24     8     3   ar
    25    14    15    1
@<TRIPOS>MOLECULE
*****
 23 25 0 0 0
SMALL
GASTEIGER

@<TRIPOS>ATOM
      1 C          -6.4138  -18.6147   21.7983 C.3     1  UNL1        0.1516
      2 C          -5.8361  -19.8430   21.1601 C.3     1  UNL1        0.0587
      3 C          -6.8257  -20.3520   20.1543 C.ar    1  UNL1       -0.0202
      4 C          -6.7975  -21.5294   19.2255 C.ar    1  UNL1       -0.0044
      5 C          -7.9586  -21.7931   18.3132 C.ar    1  UNL1       -0.0003
      6 C          -9.1480  -20.8792   18.3298 C.ar    1  UNL1       -0.0002
      7 C          -9.1762  -19.7017   19.2586 C.ar    1  UNL1       -0.0011
      8 C          -8.0150  -19.4381   20.1709 C.ar    1  UNL1        0.0157
      9 C          -7.7605  -18.3644   21.1869 C.3     1  UNL1        0.2139
     10 O          -6.7235  -17.3849   22.5993 O.3     1  UNL1       -0.3503
     11 C          -5.6766  -16.7882   23.4926 C.3     1  UNL1        0.1741
     12 C          -5.1318  -18.6079   22.5771 C.3     1  UNL1        0.1004
     13 C          -2.5578  -18.5864   22.2248 C.3     1  UNL1        0.0859
     14 N          -3.8956  -19.2238   21.9921 N.3     1  UNL1       -0.2942
     15 H          -3.8373  -20.1733   22.3601 H       1  UNL1        0.1234
     16 O          -8.6895  -17.2382   21.5311 O.3     1  UNL1       -0.4726
     17 C         -10.0298  -17.5304   22.1381 C.ar    1  UNL1        0.1349
     18 C         -10.1183  -18.0905   23.5268 C.ar    1  UNL1        0.0366
     19 C         -11.4585  -18.3827   24.1337 C.ar    1  UNL1        0.0031
     20 C         -12.7103  -18.1148   23.3519 C.ar    1  UNL1       -0.0001
     21 C         -12.6218  -17.5547   21.9632 C.ar    1  UNL1       -0.0013
     22 C         -11.2816  -17.2625   21.3563 C.ar    1  UNL1        0.0121
     23 C         -11.1932  -16.7024   19.9676 C.3     1  UNL1        0.0342
@<TRIPOS>BOND
     1    13    14    1
     2    14    12    1
     3     1    12    1
     4     1    10    1
     5    10    11    1
     6     1     2    1
     7     2     3    1
     8     3     4   ar
     9     4     5   ar
    10     5     6   ar
    11     6     7   ar
    12     7     8   ar
    13     8     9    1
    14     9    16    1
    15    16    17    1
    16    17    18   ar
    17    18    19   ar
    18    19    20   ar
    19    20    21   ar
    20    21    22   ar
    21    22    23    1
    22     9     1    1
    23    22    17   ar
    24     8     3   ar
    25    14    15    1
@<TRIPOS>MOLECULE
*****
 23 25 0 0 0
SMALL
GASTEIGER

@<TRIPOS>ATOM
      1 C          -6.4979  -16.6802   23.5517 C.3     1  UNL1        0.1516
      2 C          -5.1128  -16.1134   23.4508 C.3     1  UNL1        0.0587
      3 C          -4.2177  -17.1747   22.8829 C.ar    1  UNL1       -0.0202
      4 C          -2.7527  -17.1857   22.5613 C.ar    1  UNL1       -0.0044
      5 C          -2.1196  -18.4194   21.9895 C.ar    1  UNL1       -0.0003
      6 C          -2.9516  -19.6422   21.7393 C.ar    1  UNL1       -0.0002
      7 C          -4.4166  -19.6313   22.0610 C.ar    1  UNL1       -0.0011
      8 C          -5.0497  -18.3975   22.6328 C.ar    1  UNL1        0.0157
      9 C          -6.4589  -18.0919   23.0461 C.3     1  UNL1        0.2139
     10 O          -7.9548  -16.9644   23.7676 O.3     1  UNL1       -0.3503
     11 C          -8.9851  -15.9564   23.3525 C.3     1  UNL1        0.1741
     12 C          -6.8414  -15.3280   24.1024 C.3     1  UNL1        0.1004
     13 C          -6.5200  -15.3720   26.6801 C.3     1  UNL1        0.0859
     14 N          -6.1508  -14.8223   25.3342 N.3     1  UNL1       -0.2942
     15 H          -5.1545  -14.9995   25.2070 H       1  UNL1        0.1234
     16 O          -7.6244  -19.0328   22.9676 O.3     1  UNL1       -0.4726
     17 C          -8.3278  -19.2481   21.6602 C.ar    1  UNL1        0.1349
     18 C          -7.5418  -19.2879   20.3833 C.ar    1  UNL1        0.0366
     19 C          -8.2451  -19.5032   19.0760 C.ar    1  UNL1        0.0031
     20 C          -9.7345  -19.6786   19.0457 C.ar    1  UNL1       -0.0001
     21 C         -10.5205  -19.6388   20.3226 C.ar    1  UNL1       -0.0013
     22 C          -9.8172  -19.4235   21.6299 C.ar    1  UNL1        0.0121
     23 C         -10.6033  -19.3837   22.9068 C.3     1  UNL1        0.0342
@<TRIPOS>BOND
     1    13    14    1
     2    14    12    1
     3     1    12    1
     4     1    10    1
     5    10    11    1
     6     1     2    1
     7     2     3    1
     8     3     4   ar
     9     4     5   ar
    10     5     6   ar
    11     6     7   ar
    12     7     8   ar
    13     8     9    1
    14     9    16    1
    15    16    17    1
    16    17    18   ar
    17    18    19   ar
    18    19    20   ar
    19    20    21   ar
    20    21    22   ar
    21    22    23    1
    22     9     1    1
    23    22    17   ar
    24     8     3   ar
    25    14    15    1
@<TRIPOS>MOLECULE
*****
 23 25 0 0 0
SMALL
GASTEIGER

@<TRIPOS>ATOM
      1 C          -7.3373  -18.7246   21.5858 C.3     1  UNL1        0.1516
      2 C          -6.3332  -17.7407   22.1090 C.3     1  UNL1        0.0587
      3 C          -6.9877  -16.9462   23.2001 C.ar    1  UNL1       -0.0202
      4 C          -6.4830  -15.8376   24.0754 C.ar    1  UNL1       -0.0044
      5 C          -7.3869  -15.2220   25.1020 C.ar    1  UNL1       -0.0003
      6 C          -8.7955  -15.7150   25.2533 C.ar    1  UNL1       -0.0002
      7 C          -9.3002  -16.8236   24.3779 C.ar    1  UNL1       -0.0011
      8 C          -8.3963  -17.4392   23.3513 C.ar    1  UNL1        0.0157
      9 C          -8.6123  -18.5383   22.3537 C.3     1  UNL1        0.2139
     10 O          -8.1085  -19.7943   20.8710 O.3     1  UNL1       -0.3503
     11 C          -8.3042  -19.7125   19.3861 C.3     1  UNL1        0.1741
     12 C          -6.2235  -19.1346   20.6686 C.3     1  UNL1        0.1004
     13 C          -3.7785  -19.9931   20.4813 C.3     1  UNL1        0.0859
     14 N          -5.1039  -19.9896   21.1837 N.3     1  UNL1       -0.2942
     15 H          -4.9272  -19.6960   22.1445 H       1  UNL1        0.1234
     16 O          -9.8808  -19.3148   22.1582 O.3     1  UNL1       -0.4726
     17 C         -11.1625  -18.8218   22.7619 C.ar    1  UNL1        0.1349
     18 C         -11.5529  -19.2493   24.1457 C.ar    1  UNL1        0.0366
     19 C         -12.8345  -18.7565   24.7494 C.ar    1  UNL1        0.0031
     20 C         -13.7258  -17.8361   23.9692 C.ar    1  UNL1       -0.0001
     21 C         -13.3353  -17.4086   22.5855 C.ar    1  UNL1       -0.0013
     22 C         -12.0537  -17.9014   21.9817 C.ar    1  UNL1        0.0121
     23 C         -11.6633  -17.4740   20.5980 C.3     1  UNL1        0.0342
@<TRIPOS>BOND
     1    13    14    1
     2    14    12    1
     3     1    12    1
     4     1    10    1
     5    10    11    1
     6     1     2    1
     7     2     3    1
     8     3     4   ar
     9     4     5   ar
    10     5     6   ar
    11     6     7   ar
    12     7     8   ar
    13     8     9    1
    14     9    16    1
    15    16    17    1
    16    17    18   ar
    17    18    19   ar
    18    19    20   ar
    19    20    21   ar
    20    21    22   ar
    21    22    23    1
    22     9     1    1
    23    22    17   ar
    24     8     3   ar
    25    14    15    1
