@<TRIPOS>MOLECULE
*****
 28 31 0 0 0
SMALL
GASTEIGER

@<TRIPOS>ATOM
      1 C           4.4398   -0.6025   17.6023 C.2     1  UNL1        0.2525
      2 O           3.9582   -1.2008   16.3138 O.2     1  UNL1       -0.2698
      3 N           5.0987   -1.4711   18.6325 N.am    1  UNL1       -0.2660
      4 C           5.6281   -1.0169   19.9605 C.3     1  UNL1        0.1236
      5 C           6.2004   -2.2115   20.6643 C.ar    1  UNL1        0.0338
      6 C           6.8814   -2.6691   21.9201 C.ar    1  UNL1        0.0990
      7 N           7.1266   -4.1444   21.8033 N.ar    1  UNL1       -0.2287
      8 N           6.5971   -4.5985   20.4753 N.ar    1  UNL1       -0.1680
      9 C           6.0248   -3.4039   19.7714 C.ar    1  UNL1        0.0981
     10 C           5.3438   -2.9463   18.5157 C.3     1  UNL1        0.1414
     11 C           2.9157    1.4008   18.2459 C.ar    1  UNL1        0.1427
     12 C           2.7385    2.8677   18.5040 C.ar    1  UNL1        0.0377
     13 C           3.9080    3.7984   18.3767 C.ar    1  UNL1        0.0134
     14 C           5.2548    3.2621   17.9913 C.ar    1  UNL1        0.0688
     15 C           5.4320    1.7951   17.7331 C.ar    1  UNL1        0.0178
     16 C           4.2625    0.8644   17.8604 C.ar    1  UNL1        0.0881
     17 C           6.4242    4.1927   17.8640 C.1     1  UNL1        0.1004
     18 N           7.5937    5.1234   17.7367 N.1     1  UNL1       -0.1908
     19 O           1.7462    0.4702   18.3732 O.3     1  UNL1       -0.4790
     20 C           0.0938    0.7091   20.3637 C.3     1  UNL1        0.0472
     21 C           1.2762    0.0377   19.7304 C.3     1  UNL1        0.1661
     22 C           1.9885   -1.0662   20.4541 C.3     1  UNL1        0.0472
     23 C           7.7854   -5.0129   22.8335 C.ar    1  UNL1        0.0828
     24 C           8.8175   -6.0187   22.4174 C.ar    1  UNL1        0.0191
     25 C           9.4764   -6.8874   23.4476 C.ar    1  UNL1        0.0015
     26 C           9.1032   -6.7502   24.8940 C.ar    1  UNL1        0.0001
     27 C           8.0711   -5.7443   25.3101 C.ar    1  UNL1        0.0015
     28 C           7.4122   -4.8757   24.2799 C.ar    1  UNL1        0.0191
@<TRIPOS>BOND
     1    20    21    1
     2    21    22    1
     3    21    19    1
     4    19    11    1
     5    11    12   ar
     6    12    13   ar
     7    13    14   ar
     8    14    17    1
     9    17    18    3
    10    14    15   ar
    11    15    16   ar
    12    16     1    1
    13     1     2    2
    14     1     3   am
    15     3     4    1
    16     4     5    1
    17     5     6   ar
    18     6     7   ar
    19     7    23    1
    20    23    24   ar
    21    24    25   ar
    22    25    26   ar
    23    26    27   ar
    24    27    28   ar
    25     7     8   ar
    26     8     9   ar
    27     9    10    1
    28    16    11   ar
    29    10     3    1
    30     9     5   ar
    31    28    23   ar
@<TRIPOS>MOLECULE
*****
 28 31 0 0 0
SMALL
GASTEIGER

@<TRIPOS>ATOM
      1 C          -0.7146    3.9825   20.8486 C.2     1  UNL1        0.2525
      2 O          -0.1401    5.3674   20.8051 O.2     1  UNL1       -0.2698
      3 N           0.1684    2.7960   20.5986 N.am    1  UNL1       -0.2660
      4 C          -0.2618    1.3590   20.6091 C.3     1  UNL1        0.1236
      5 C           0.9405    0.5131   20.3112 C.ar    1  UNL1        0.0338
      6 C           1.4178   -0.8978   20.1336 C.ar    1  UNL1        0.0990
      7 N           2.8860   -0.8557   19.8293 N.ar    1  UNL1       -0.2287
      8 N           3.3162    0.5813   19.8188 N.ar    1  UNL1       -0.1680
      9 C           2.1138    1.4272   20.1167 C.ar    1  UNL1        0.0981
     10 C           1.6366    2.8382   20.2943 C.3     1  UNL1        0.1414
     11 C          -3.1437    3.5857   20.0165 C.ar    1  UNL1        0.1427
     12 C          -4.6013    3.3873   20.3101 C.ar    1  UNL1        0.0377
     13 C          -5.0874    3.3874   21.7291 C.ar    1  UNL1        0.0134
     14 C          -4.1159    3.5859   22.8547 C.ar    1  UNL1        0.0688
     15 C          -2.6583    3.7842   22.5611 C.ar    1  UNL1        0.0178
     16 C          -2.1722    3.7841   21.1421 C.ar    1  UNL1        0.0881
     17 C          -4.6020    3.5859   24.2737 C.1     1  UNL1        0.1004
     18 N          -5.0882    3.5860   25.6928 N.1     1  UNL1       -0.1908
     19 O          -2.6576    3.5856   18.5975 O.3     1  UNL1       -0.4790
     20 C          -3.6094    5.8267   17.6911 C.3     1  UNL1        0.0472
     21 C          -3.4102    4.3470   17.5468 C.3     1  UNL1        0.1661
     22 C          -3.9635    3.6287   16.3520 C.3     1  UNL1        0.0472
     23 C           3.7690   -2.0422   19.5793 C.ar    1  UNL1        0.0828
     24 C           3.1612   -3.3932   19.3445 C.ar    1  UNL1        0.0191
     25 C           4.0441   -4.5798   19.0945 C.ar    1  UNL1        0.0015
     26 C           5.5350   -4.4152   19.0793 C.ar    1  UNL1        0.0001
     27 C           6.1429   -3.0641   19.3141 C.ar    1  UNL1        0.0015
     28 C           5.2599   -1.8776   19.5641 C.ar    1  UNL1        0.0191
@<TRIPOS>BOND
     1    20    21    1
     2    21    22    1
     3    21    19    1
     4    19    11    1
     5    11    12   ar
     6    12    13   ar
     7    13    14   ar
     8    14    17    1
     9    17    18    3
    10    14    15   ar
    11    15    16   ar
    12    16     1    1
    13     1     2    2
    14     1     3   am
    15     3     4    1
    16     4     5    1
    17     5     6   ar
    18     6     7   ar
    19     7    23    1
    20    23    24   ar
    21    24    25   ar
    22    25    26   ar
    23    26    27   ar
    24    27    28   ar
    25     7     8   ar
    26     8     9   ar
    27     9    10    1
    28    16    11   ar
    29    10     3    1
    30     9     5   ar
    31    28    23   ar
@<TRIPOS>MOLECULE
*****
 28 31 0 0 0
SMALL
GASTEIGER

@<TRIPOS>ATOM
      1 C          -0.4966    4.0279   21.1960 C.2     1  UNL1        0.2525
      2 O           0.0997    5.4037   21.1537 O.2     1  UNL1       -0.2698
      3 N           0.3428    2.8356   20.8442 N.am    1  UNL1       -0.2660
      4 C          -0.1129    1.4065   20.8413 C.3     1  UNL1        0.1236
      5 C           1.0479    0.5507   20.4288 C.ar    1  UNL1        0.0338
      6 C           1.4836   -0.8615   20.1721 C.ar    1  UNL1        0.0990
      7 N           2.9261   -0.8341   19.7614 N.ar    1  UNL1       -0.2287
      8 N           3.3818    0.5951   19.7643 N.ar    1  UNL1       -0.1680
      9 C           2.2210    1.4509   20.1768 C.ar    1  UNL1        0.0981
     10 C           1.7852    2.8630   20.4335 C.3     1  UNL1        0.1414
     11 C          -2.3149    3.8222   23.0404 C.ar    1  UNL1        0.1427
     12 C          -3.7505    3.6388   23.4345 C.ar    1  UNL1        0.0377
     13 C          -4.8035    3.4778   22.3785 C.ar    1  UNL1        0.0134
     14 C          -4.4209    3.5002   20.9282 C.ar    1  UNL1        0.0688
     15 C          -2.9852    3.6835   20.5342 C.ar    1  UNL1        0.0178
     16 C          -1.9322    3.8446   21.5902 C.ar    1  UNL1        0.0881
     17 C          -5.4739    3.3391   19.8722 C.1     1  UNL1        0.1004
     18 N          -6.5269    3.1781   18.8162 N.1     1  UNL1       -0.1908
     19 O          -1.2619    3.9832   24.0965 O.3     1  UNL1       -0.4790
     20 C          -1.5759    2.8373   26.4069 C.3     1  UNL1        0.0472
     21 C          -0.9643    2.8535   25.0374 C.3     1  UNL1        0.1661
     22 C          -0.0553    1.7401   24.6086 C.3     1  UNL1        0.0472
     23 C           3.7654   -2.0264   19.4095 C.ar    1  UNL1        0.0828
     24 C           5.2074   -1.8453   19.0384 C.ar    1  UNL1        0.0191
     25 C           6.0469   -3.0376   18.6865 C.ar    1  UNL1        0.0015
     26 C           5.4442   -4.4111   18.7059 C.ar    1  UNL1        0.0001
     27 C           4.0021   -4.5922   19.0770 C.ar    1  UNL1        0.0015
     28 C           3.1628   -3.3999   19.4289 C.ar    1  UNL1        0.0191
@<TRIPOS>BOND
     1    20    21    1
     2    21    22    1
     3    21    19    1
     4    19    11    1
     5    11    12   ar
     6    12    13   ar
     7    13    14   ar
     8    14    17    1
     9    17    18    3
    10    14    15   ar
    11    15    16   ar
    12    16     1    1
    13     1     2    2
    14     1     3   am
    15     3     4    1
    16     4     5    1
    17     5     6   ar
    18     6     7   ar
    19     7    23    1
    20    23    24   ar
    21    24    25   ar
    22    25    26   ar
    23    26    27   ar
    24    27    28   ar
    25     7     8   ar
    26     8     9   ar
    27     9    10    1
    28    16    11   ar
    29    10     3    1
    30     9     5   ar
    31    28    23   ar
@<TRIPOS>MOLECULE
*****
 28 31 0 0 0
SMALL
GASTEIGER

@<TRIPOS>ATOM
      1 C           1.9565   -0.0348   19.4473 C.2     1  UNL1        0.2525
      2 O           0.9003    0.4101   18.4796 O.2     1  UNL1       -0.2698
      3 N           1.7957    0.2423   20.9127 N.am    1  UNL1       -0.2660
      4 C           2.7630   -0.1398   21.9936 C.3     1  UNL1        0.1236
      5 C           2.2045    0.3319   23.3033 C.ar    1  UNL1        0.0338
      6 C           2.4572    0.3873   24.7809 C.ar    1  UNL1        0.0990
      7 N           1.3009    1.0953   25.4227 N.ar    1  UNL1       -0.2287
      8 N           0.3336    1.4775   24.3417 N.ar    1  UNL1       -0.1680
      9 C           0.8921    1.0057   23.0320 C.ar    1  UNL1        0.0981
     10 C           0.6394    0.9503   21.5544 C.3     1  UNL1        0.1414
     11 C           4.2561   -0.0003   18.2386 C.ar    1  UNL1        0.1427
     12 C           5.4730   -0.7224   17.7410 C.ar    1  UNL1        0.0377
     13 C           5.6073   -2.2010   17.9543 C.ar    1  UNL1        0.0134
     14 C           4.5247   -2.9577   18.6653 C.ar    1  UNL1        0.0688
     15 C           3.3078   -2.2355   19.1630 C.ar    1  UNL1        0.0178
     16 C           3.1734   -0.7568   18.9496 C.ar    1  UNL1        0.0881
     17 C           4.6591   -4.4363   18.8786 C.1     1  UNL1        0.1004
     18 N           4.7934   -5.9150   19.0919 N.1     1  UNL1       -0.1908
     19 O           4.1218    1.4784   18.0253 O.3     1  UNL1       -0.4790
     20 C           5.5728    3.6282   18.1766 C.3     1  UNL1        0.0472
     21 C           4.9518    2.4312   18.8335 C.3     1  UNL1        0.1661
     22 C           5.1608    2.1870   20.2987 C.3     1  UNL1        0.0472
     23 C           1.1401    1.3724   26.8880 C.ar    1  UNL1        0.0828
     24 C          -0.1197    0.9673   27.5941 C.ar    1  UNL1        0.0191
     25 C          -0.2806    1.2445   29.0595 C.ar    1  UNL1        0.0015
     26 C           0.8185    1.9267   29.8188 C.ar    1  UNL1        0.0001
     27 C           2.0785    2.3319   29.1126 C.ar    1  UNL1        0.0015
     28 C           2.2392    2.0547   27.6473 C.ar    1  UNL1        0.0191
@<TRIPOS>BOND
     1    20    21    1
     2    21    22    1
     3    21    19    1
     4    19    11    1
     5    11    12   ar
     6    12    13   ar
     7    13    14   ar
     8    14    17    1
     9    17    18    3
    10    14    15   ar
    11    15    16   ar
    12    16     1    1
    13     1     2    2
    14     1     3   am
    15     3     4    1
    16     4     5    1
    17     5     6   ar
    18     6     7   ar
    19     7    23    1
    20    23    24   ar
    21    24    25   ar
    22    25    26   ar
    23    26    27   ar
    24    27    28   ar
    25     7     8   ar
    26     8     9   ar
    27     9    10    1
    28    16    11   ar
    29    10     3    1
    30     9     5   ar
    31    28    23   ar
@<TRIPOS>MOLECULE
*****
 28 31 0 0 0
SMALL
GASTEIGER

@<TRIPOS>ATOM
      1 C           2.0865    0.4318   19.1614 C.2     1  UNL1        0.2525
      2 O           0.9193    0.5860   18.2320 O.2     1  UNL1       -0.2698
      3 N           1.8953    0.5991   20.6397 N.am    1  UNL1       -0.2660
      4 C           2.9626    0.4753   21.6864 C.3     1  UNL1        0.1236
      5 C           2.3301    0.7191   23.0244 C.ar    1  UNL1        0.0338
      6 C           2.5989    0.7934   24.4983 C.ar    1  UNL1        0.0990
      7 N           1.3067    1.1138   25.1896 N.ar    1  UNL1       -0.2287
      8 N           0.2394    1.2376   24.1428 N.ar    1  UNL1       -0.1680
      9 C           0.8719    0.9937   22.8048 C.ar    1  UNL1        0.0981
     10 C           0.6032    0.9195   21.3309 C.3     1  UNL1        0.1414
     11 C           3.9822   -1.2866   18.7103 C.ar    1  UNL1        0.1427
     12 C           5.3406   -1.6079   18.1613 C.ar    1  UNL1        0.0377
     13 C           6.1619   -0.5322   17.5145 C.ar    1  UNL1        0.0134
     14 C           5.6247    0.8649   17.4166 C.ar    1  UNL1        0.0688
     15 C           4.2661    1.1862   17.9656 C.ar    1  UNL1        0.0178
     16 C           3.4449    0.1105   18.6124 C.ar    1  UNL1        0.0881
     17 C           6.4459    1.9406   16.7697 C.1     1  UNL1        0.1004
     18 N           7.2671    3.0163   16.1229 N.1     1  UNL1       -0.1908
     19 O           3.1610   -2.3623   19.3571 O.3     1  UNL1       -0.4790
     20 C           3.8802   -4.8477   19.1216 C.3     1  UNL1        0.0472
     21 C           3.8307   -3.5800   19.9218 C.3     1  UNL1        0.1661
     22 C           4.4510   -3.5297   21.2865 C.3     1  UNL1        0.0472
     23 C           1.1155    1.2810   26.6678 C.ar    1  UNL1        0.0828
     24 C           2.2494    1.7682   27.5204 C.ar    1  UNL1        0.0191
     25 C           2.0582    1.9355   28.9988 C.ar    1  UNL1        0.0015
     26 C           0.7331    1.6155   29.6245 C.ar    1  UNL1        0.0001
     27 C          -0.4009    1.1282   28.7719 C.ar    1  UNL1        0.0015
     28 C          -0.2097    0.9610   27.2937 C.ar    1  UNL1        0.0191
@<TRIPOS>BOND
     1    20    21    1
     2    21    22    1
     3    21    19    1
     4    19    11    1
     5    11    12   ar
     6    12    13   ar
     7    13    14   ar
     8    14    17    1
     9    17    18    3
    10    14    15   ar
    11    15    16   ar
    12    16     1    1
    13     1     2    2
    14     1     3   am
    15     3     4    1
    16     4     5    1
    17     5     6   ar
    18     6     7   ar
    19     7    23    1
    20    23    24   ar
    21    24    25   ar
    22    25    26   ar
    23    26    27   ar
    24    27    28   ar
    25     7     8   ar
    26     8     9   ar
    27     9    10    1
    28    16    11   ar
    29    10     3    1
    30     9     5   ar
    31    28    23   ar
@<TRIPOS>MOLECULE
*****
 28 31 0 0 0
SMALL
GASTEIGER

@<TRIPOS>ATOM
      1 C         -16.6479    0.6817   18.5990 C.2     1  UNL1        0.2525
      2 O         -17.6123    0.9240   17.4760 O.2     1  UNL1       -0.2698
      3 N         -15.7102   -0.4878   18.5434 N.am    1  UNL1       -0.2660
      4 C         -14.6962   -0.8552   19.5858 C.3     1  UNL1        0.1236
      5 C         -13.9813   -2.0897   19.1221 C.ar    1  UNL1        0.0338
      6 C         -12.9127   -3.0797   19.4798 C.ar    1  UNL1        0.0990
      7 N         -12.8245   -4.0872   18.3719 N.ar    1  UNL1       -0.2287
      8 N         -13.8387   -3.7197   17.3295 N.ar    1  UNL1       -0.1680
      9 C         -14.5535   -2.4852   17.7931 C.ar    1  UNL1        0.0981
     10 C         -15.6221   -1.4951   17.4354 C.3     1  UNL1        0.1414
     11 C         -15.6950    2.7890   19.7830 C.ar    1  UNL1        0.1427
     12 C         -15.6684    3.7162   20.9618 C.ar    1  UNL1        0.0377
     13 C         -16.5677    3.4635   22.1353 C.ar    1  UNL1        0.0134
     14 C         -17.4938    2.2836   22.1302 C.ar    1  UNL1        0.0688
     15 C         -17.5205    1.3563   20.9513 C.ar    1  UNL1        0.0178
     16 C         -16.6211    1.6090   19.7778 C.ar    1  UNL1        0.0881
     17 C         -18.3932    2.0309   23.3038 C.1     1  UNL1        0.1004
     18 N         -19.2925    1.7782   24.4773 N.1     1  UNL1       -0.1908
     19 O         -14.7957    3.0417   18.6094 O.3     1  UNL1       -0.4790
     20 C         -15.6905    5.2985   17.6840 C.3     1  UNL1        0.0472
     21 C         -15.2799    3.8735   17.4589 C.3     1  UNL1        0.1661
     22 C         -15.3533    3.2801   16.0832 C.3     1  UNL1        0.0472
     23 C         -11.8870   -5.2566   18.3162 C.ar    1  UNL1        0.0828
     24 C         -12.2478   -6.4695   17.5109 C.ar    1  UNL1        0.0191
     25 C         -11.3102   -7.6391   17.4551 C.ar    1  UNL1        0.0015
     26 C         -10.0117   -7.5957   18.2048 C.ar    1  UNL1        0.0001
     27 C          -9.6508   -6.3827   19.0102 C.ar    1  UNL1        0.0015
     28 C         -10.5884   -5.2133   19.0659 C.ar    1  UNL1        0.0191
@<TRIPOS>BOND
     1    20    21    1
     2    21    22    1
     3    21    19    1
     4    19    11    1
     5    11    12   ar
     6    12    13   ar
     7    13    14   ar
     8    14    17    1
     9    17    18    3
    10    14    15   ar
    11    15    16   ar
    12    16     1    1
    13     1     2    2
    14     1     3   am
    15     3     4    1
    16     4     5    1
    17     5     6   ar
    18     6     7   ar
    19     7    23    1
    20    23    24   ar
    21    24    25   ar
    22    25    26   ar
    23    26    27   ar
    24    27    28   ar
    25     7     8   ar
    26     8     9   ar
    27     9    10    1
    28    16    11   ar
    29    10     3    1
    30     9     5   ar
    31    28    23   ar
@<TRIPOS>MOLECULE
*****
 28 31 0 0 0
SMALL
GASTEIGER

@<TRIPOS>ATOM
      1 C         -16.4385    1.1444   18.7811 C.2     1  UNL1        0.2525
      2 O         -16.5245    2.0209   17.5668 O.2     1  UNL1       -0.2698
      3 N         -15.5155   -0.0380   18.7887 N.am    1  UNL1       -0.2660
      4 C         -15.3237   -0.9995   19.9239 C.3     1  UNL1        0.1236
      5 C         -14.3120   -2.0222   19.4992 C.ar    1  UNL1        0.0338
      6 C         -13.5682   -3.2486   19.9384 C.ar    1  UNL1        0.0990
      7 N         -12.6749   -3.6771   18.8121 N.ar    1  UNL1       -0.2287
      8 N         -12.8667   -2.7156   17.6768 N.ar    1  UNL1       -0.1680
      9 C         -13.8785   -1.6928   18.1015 C.ar    1  UNL1        0.0981
     10 C         -14.6223   -0.4665   17.6624 C.3     1  UNL1        0.1414
     11 C         -18.6320    0.8279   20.1371 C.ar    1  UNL1        0.1427
     12 C         -19.4688    1.1339   21.3437 C.ar    1  UNL1        0.0377
     13 C         -18.9492    2.0623   22.4010 C.ar    1  UNL1        0.0134
     14 C         -17.5926    2.6848   22.2517 C.ar    1  UNL1        0.0688
     15 C         -16.7557    2.3788   21.0450 C.ar    1  UNL1        0.0178
     16 C         -17.2754    1.4503   19.9877 C.ar    1  UNL1        0.0881
     17 C         -17.0730    3.6133   23.3091 C.1     1  UNL1        0.1004
     18 N         -16.5533    4.5417   24.3664 N.1     1  UNL1       -0.1908
     19 O         -19.1516   -0.1005   19.0797 O.3     1  UNL1       -0.4790
     20 C         -18.2902   -2.2493   17.9003 C.3     1  UNL1        0.0472
     21 C         -18.8075   -1.5597   19.1279 C.3     1  UNL1        0.1661
     22 C         -18.9807   -2.3293   20.4037 C.3     1  UNL1        0.0472
     23 C         -11.7520   -4.8595   18.8197 C.ar    1  UNL1        0.0828
     24 C         -12.2960   -6.2371   18.5825 C.ar    1  UNL1        0.0191
     25 C         -11.3730   -7.4195   18.5900 C.ar    1  UNL1        0.0015
     26 C          -9.9061   -7.2243   18.8349 C.ar    1  UNL1        0.0001
     27 C          -9.3621   -5.8466   19.0721 C.ar    1  UNL1        0.0015
     28 C         -10.2850   -4.6643   19.0645 C.ar    1  UNL1        0.0191
@<TRIPOS>BOND
     1    20    21    1
     2    21    22    1
     3    21    19    1
     4    19    11    1
     5    11    12   ar
     6    12    13   ar
     7    13    14   ar
     8    14    17    1
     9    17    18    3
    10    14    15   ar
    11    15    16   ar
    12    16     1    1
    13     1     2    2
    14     1     3   am
    15     3     4    1
    16     4     5    1
    17     5     6   ar
    18     6     7   ar
    19     7    23    1
    20    23    24   ar
    21    24    25   ar
    22    25    26   ar
    23    26    27   ar
    24    27    28   ar
    25     7     8   ar
    26     8     9   ar
    27     9    10    1
    28    16    11   ar
    29    10     3    1
    30     9     5   ar
    31    28    23   ar
@<TRIPOS>MOLECULE
*****
 28 31 0 0 0
SMALL
GASTEIGER

@<TRIPOS>ATOM
      1 C           4.6510   -1.1817   33.4079 C.2     1  UNL1        0.2525
      2 O           4.9782   -2.6409   33.2909 O.2     1  UNL1       -0.2698
      3 N           3.8046   -0.5168   32.3632 N.am    1  UNL1       -0.2660
      4 C           3.3969    0.9266   32.3464 C.3     1  UNL1        0.1236
      5 C           2.5575    1.1569   31.1247 C.ar    1  UNL1        0.0338
      6 C           1.7868    2.1914   30.3592 C.ar    1  UNL1        0.0990
      7 N           1.1994    1.5297   29.1479 N.ar    1  UNL1       -0.2287
      8 N           1.6072    0.0862   29.1648 N.ar    1  UNL1       -0.1680
      9 C           2.4465   -0.1441   30.3865 C.ar    1  UNL1        0.0981
     10 C           3.2173   -1.1786   31.1519 C.3     1  UNL1        0.1414
     11 C           6.5785    0.1293   34.5552 C.ar    1  UNL1        0.1427
     12 C           7.0978    0.9236   35.7169 C.ar    1  UNL1        0.0377
     13 C           6.2090    1.2011   36.8929 C.ar    1  UNL1        0.0134
     14 C           4.8009    0.6843   36.9073 C.ar    1  UNL1        0.0688
     15 C           4.2816   -0.1100   35.7456 C.ar    1  UNL1        0.0178
     16 C           5.1704   -0.3875   34.5695 C.ar    1  UNL1        0.0881
     17 C           3.9121    0.9618   38.0833 C.1     1  UNL1        0.1004
     18 N           3.0234    1.2393   39.2594 N.1     1  UNL1       -0.1908
     19 O           7.4673   -0.1482   33.3792 O.3     1  UNL1       -0.4790
     20 C           9.5360   -1.2831   34.4666 C.3     1  UNL1        0.0472
     21 C           8.4497   -1.2804   33.4322 C.3     1  UNL1        0.1661
     22 C           8.3458   -2.4100   32.4507 C.3     1  UNL1        0.0472
     23 C           0.3530    2.1945   28.1033 C.ar    1  UNL1        0.0828
     24 C          -0.1121    1.4166   26.9081 C.ar    1  UNL1        0.0191
     25 C          -0.9586    2.0815   25.8634 C.ar    1  UNL1        0.0015
     26 C          -1.3399    3.5244   26.0139 C.ar    1  UNL1        0.0001
     27 C          -0.8748    4.3024   27.2091 C.ar    1  UNL1        0.0015
     28 C          -0.0284    3.6375   28.2538 C.ar    1  UNL1        0.0191
@<TRIPOS>BOND
     1    20    21    1
     2    21    22    1
     3    21    19    1
     4    19    11    1
     5    11    12   ar
     6    12    13   ar
     7    13    14   ar
     8    14    17    1
     9    17    18    3
    10    14    15   ar
    11    15    16   ar
    12    16     1    1
    13     1     2    2
    14     1     3   am
    15     3     4    1
    16     4     5    1
    17     5     6   ar
    18     6     7   ar
    19     7    23    1
    20    23    24   ar
    21    24    25   ar
    22    25    26   ar
    23    26    27   ar
    24    27    28   ar
    25     7     8   ar
    26     8     9   ar
    27     9    10    1
    28    16    11   ar
    29    10     3    1
    30     9     5   ar
    31    28    23   ar
@<TRIPOS>MOLECULE
*****
 28 31 0 0 0
SMALL
GASTEIGER

@<TRIPOS>ATOM
      1 C           1.5109    2.5624   25.8783 C.2     1  UNL1        0.2525
      2 O           1.5244    4.0623   25.8892 O.2     1  UNL1       -0.2698
      3 N           2.1576    1.8146   24.7503 N.am    1  UNL1       -0.2660
      4 C           2.2230    0.3232   24.6041 C.3     1  UNL1        0.1236
      5 C           2.9584    0.0138   23.3338 C.ar    1  UNL1        0.0338
      6 C           3.4533   -1.0991   22.4584 C.ar    1  UNL1        0.0990
      7 N           4.1483   -0.4868   21.2785 N.ar    1  UNL1       -0.2287
      8 N           4.0829    1.0047   21.4248 N.ar    1  UNL1       -0.1680
      9 C           3.3475    1.3141   22.6950 C.ar    1  UNL1        0.0981
     10 C           2.8526    2.4270   23.5705 C.3     1  UNL1        0.1414
     11 C          -0.6461    1.7556   27.0813 C.ar    1  UNL1        0.1427
     12 C          -1.3064    1.0035   28.1985 C.ar    1  UNL1        0.0377
     13 C          -0.4702    0.3060   29.2301 C.ar    1  UNL1        0.0134
     14 C           1.0264    0.3606   29.1445 C.ar    1  UNL1        0.0688
     15 C           1.6867    1.1127   28.0272 C.ar    1  UNL1        0.0178
     16 C           0.8505    1.8102   26.9956 C.ar    1  UNL1        0.0881
     17 C           1.8626   -0.3369   30.1761 C.1     1  UNL1        0.1004
     18 N           2.6988   -1.0344   31.2078 N.1     1  UNL1       -0.1908
     19 O          -1.4823    2.4531   26.0497 O.3     1  UNL1       -0.4790
     20 C          -3.7224    3.7687   26.0862 C.3     1  UNL1        0.0472
     21 C          -2.2629    3.6790   26.4208 C.3     1  UNL1        0.1661
     22 C          -1.5840    4.8152   27.1265 C.3     1  UNL1        0.0472
     23 C           4.7951   -1.2345   20.1505 C.ar    1  UNL1        0.0828
     24 C           4.2562   -2.5693   19.7290 C.ar    1  UNL1        0.0191
     25 C           4.9030   -3.3172   18.6009 C.ar    1  UNL1        0.0015
     26 C           6.0887   -2.7300   17.8943 C.ar    1  UNL1        0.0001
     27 C           6.6276   -1.3950   18.3158 C.ar    1  UNL1        0.0015
     28 C           5.9809   -0.6473   19.4438 C.ar    1  UNL1        0.0191
@<TRIPOS>BOND
     1    20    21    1
     2    21    22    1
     3    21    19    1
     4    19    11    1
     5    11    12   ar
     6    12    13   ar
     7    13    14   ar
     8    14    17    1
     9    17    18    3
    10    14    15   ar
    11    15    16   ar
    12    16     1    1
    13     1     2    2
    14     1     3   am
    15     3     4    1
    16     4     5    1
    17     5     6   ar
    18     6     7   ar
    19     7    23    1
    20    23    24   ar
    21    24    25   ar
    22    25    26   ar
    23    26    27   ar
    24    27    28   ar
    25     7     8   ar
    26     8     9   ar
    27     9    10    1
    28    16    11   ar
    29    10     3    1
    30     9     5   ar
    31    28    23   ar
