@<TRIPOS>MOLECULE
*****
 33 36 0 0 0
SMALL
GASTEIGER

@<TRIPOS>ATOM
      1 C         -17.3052   -9.9219   17.9908 C.3     1  UNL1        0.0276
      2 C         -16.6187   -8.6233   18.2948 C.3     1  UNL1        0.1109
      3 C         -15.5420   -9.3089   17.5070 C.3     1  UNL1        0.0276
      4 C         -15.5584   -7.5628   18.3251 C.ar    1  UNL1        0.1375
      5 N         -14.1753   -7.5095   17.7471 N.ar    1  UNL1       -0.2280
      6 C         -13.5752   -6.1815   18.1023 C.ar    1  UNL1        0.1125
      7 C         -14.5875   -5.4140   18.9000 C.ar    1  UNL1        0.1318
      8 N         -15.8131   -6.2677   19.0377 N.ar    1  UNL1       -0.3006
      9 C         -17.1282   -6.0330   19.7199 C.3     1  UNL1        0.1299
     10 C         -18.1886   -7.0935   19.6895 C.3     1  UNL1        0.1182
     11 N         -17.9338   -8.3887   18.9769 N.am    1  UNL1       -0.2732
     12 C         -18.9943   -9.4492   18.9466 C.2     1  UNL1        0.2418
     13 O         -18.7395  -10.7443   18.2340 O.2     1  UNL1       -0.2734
     14 C         -12.2037   -5.7046   17.7260 C.ar    1  UNL1        0.0205
     15 C         -11.9548   -5.1404   16.3587 C.ar    1  UNL1        0.0039
     16 C         -10.5833   -4.6636   15.9824 C.ar    1  UNL1        0.0297
     17 C          -9.4607   -4.7510   16.9734 C.ar    1  UNL1        0.1401
     18 F          -8.0892   -4.2742   16.5970 F       1  UNL1       -0.2042
     19 C          -9.7096   -5.3152   18.3407 C.ar    1  UNL1        0.0297
     20 C         -11.0811   -5.7920   18.7170 C.ar    1  UNL1        0.0039
     21 C         -20.3094   -9.2145   19.6288 C.3     1  UNL1        0.1517
     22 N         -20.4639   -9.5274   21.0877 N.3     1  UNL1       -0.3135
     23 H         -20.3743  -10.5333   21.2310 H       1  UNL1        0.1193
     24 H         -21.3825   -9.2190   21.4061 H       1  UNL1        0.1193
     25 N         -14.4059   -4.0349   19.4614 N.pl3   1  UNL1       -0.2980
     26 H         -14.8572   -3.7810   20.2988 H       1  UNL1        0.1536
     27 C         -13.5370   -3.0427   18.7471 C.ar    1  UNL1        0.0495
     28 C         -12.2267   -2.6250   19.3463 C.ar    1  UNL1        0.0169
     29 C         -11.3577   -1.6328   18.6321 C.ar    1  UNL1        0.0309
     30 C         -11.7989   -1.0581   17.3186 C.ar    1  UNL1        0.1402
     31 F         -10.9298   -0.0659   16.6043 F       1  UNL1       -0.2042
     32 C         -13.1090   -1.4758   16.7194 C.ar    1  UNL1        0.0309
     33 C         -13.9781   -2.4680   17.4337 C.ar    1  UNL1        0.0169
@<TRIPOS>BOND
     1     1     2    1
     2     2     3    1
     3     2     4    1
     4     4     5   ar
     5     5     6   ar
     6     6    14    1
     7    14    15   ar
     8    15    16   ar
     9    16    17   ar
    10    17    18    1
    11    17    19   ar
    12    19    20   ar
    13     6     7   ar
    14     7    25    1
    15    25    27    1
    16    27    28   ar
    17    28    29   ar
    18    29    30   ar
    19    30    31    1
    20    30    32   ar
    21    32    33   ar
    22     7     8   ar
    23     8     9    1
    24     9    10    1
    25    10    11    1
    26    11    12   am
    27    12    13    2
    28    12    21    1
    29    21    22    1
    30    11     2    1
    31     8     4   ar
    32    20    14   ar
    33    33    27   ar
    34    25    26    1
    35    22    23    1
    36    22    24    1
@<TRIPOS>MOLECULE
*****
 33 36 0 0 0
SMALL
GASTEIGER

@<TRIPOS>ATOM
      1 C         -14.9567    0.6588   18.9557 C.3     1  UNL1        0.0276
      2 C         -14.7462   -0.7684   18.5446 C.3     1  UNL1        0.1109
      3 C         -15.8965   -0.9372   19.4925 C.3     1  UNL1        0.0276
      4 C         -14.9353   -2.2541   18.4627 C.ar    1  UNL1        0.1375
      5 N         -15.9049   -3.1811   19.1340 N.ar    1  UNL1       -0.2280
      6 C         -15.6162   -4.5752   18.6618 C.ar    1  UNL1        0.1125
      7 C         -14.4680   -4.5099   17.6988 C.ar    1  UNL1        0.1318
      8 N         -14.0472   -3.0754   17.5757 N.ar    1  UNL1       -0.3006
      9 C         -12.9701   -2.4110   16.7706 C.3     1  UNL1        0.1299
     10 C         -12.7811   -0.9252   16.8524 C.3     1  UNL1        0.1182
     11 N         -13.6691   -0.1039   17.7395 N.am    1  UNL1       -0.2732
     12 C         -13.4801    1.3819   17.8213 C.2     1  UNL1        0.2418
     13 O         -14.3682    2.2032   18.7083 O.2     1  UNL1       -0.2734
     14 C         -16.3472   -5.8167   19.0794 C.ar    1  UNL1        0.0205
     15 C         -17.8360   -5.7858   19.2592 C.ar    1  UNL1        0.0039
     16 C         -18.5670   -7.0272   19.6768 C.ar    1  UNL1        0.0297
     17 C         -17.8092   -8.2996   19.9146 C.ar    1  UNL1        0.1401
     18 F         -18.5402   -9.5411   20.3322 F       1  UNL1       -0.2042
     19 C         -16.3204   -8.3306   19.7348 C.ar    1  UNL1        0.0297
     20 C         -15.5894   -7.0891   19.3173 C.ar    1  UNL1        0.0039
     21 C         -12.4030    2.0464   17.0162 C.3     1  UNL1        0.1517
     22 N         -12.2683    3.5403   17.0319 N.3     1  UNL1       -0.3135
     23 H         -13.0899    3.9604   16.5974 H       1  UNL1        0.1193
     24 H         -11.4330    3.8118   16.5133 H       1  UNL1        0.1193
     25 N         -13.8493   -5.6747   16.9842 N.pl3   1  UNL1       -0.2980
     26 H         -14.2982   -6.0662   16.2004 H       1  UNL1        0.1536
     27 C         -12.5466   -6.2429   17.4638 C.ar    1  UNL1        0.0495
     28 C         -11.7663   -5.5334   18.5306 C.ar    1  UNL1        0.0169
     29 C         -10.4636   -6.1016   19.0103 C.ar    1  UNL1        0.0309
     30 C          -9.9412   -7.3793   18.4232 C.ar    1  UNL1        0.1402
     31 F          -8.6385   -7.9475   18.9029 F       1  UNL1       -0.2042
     32 C         -10.7214   -8.0887   17.3565 C.ar    1  UNL1        0.0309
     33 C         -12.0241   -7.5205   16.8768 C.ar    1  UNL1        0.0169
@<TRIPOS>BOND
     1     1     2    1
     2     2     3    1
     3     2     4    1
     4     4     5   ar
     5     5     6   ar
     6     6    14    1
     7    14    15   ar
     8    15    16   ar
     9    16    17   ar
    10    17    18    1
    11    17    19   ar
    12    19    20   ar
    13     6     7   ar
    14     7    25    1
    15    25    27    1
    16    27    28   ar
    17    28    29   ar
    18    29    30   ar
    19    30    31    1
    20    30    32   ar
    21    32    33   ar
    22     7     8   ar
    23     8     9    1
    24     9    10    1
    25    10    11    1
    26    11    12   am
    27    12    13    2
    28    12    21    1
    29    21    22    1
    30    11     2    1
    31     8     4   ar
    32    20    14   ar
    33    33    27   ar
    34    25    26    1
    35    22    23    1
    36    22    24    1
@<TRIPOS>MOLECULE
*****
 33 36 0 0 0
SMALL
GASTEIGER

@<TRIPOS>ATOM
      1 C          -4.4239  -20.7963   20.5244 C.3     1  UNL1        0.0276
      2 C          -5.2809  -19.7289   21.1378 C.3     1  UNL1        0.1109
      3 C          -6.3202  -20.7780   20.8743 C.3     1  UNL1        0.0276
      4 C          -6.4988  -19.0259   21.6597 C.ar    1  UNL1        0.1375
      5 N          -7.9385  -19.4393   21.7416 N.ar    1  UNL1       -0.2280
      6 C          -8.7093  -18.3134   22.3647 C.ar    1  UNL1        0.1125
      7 C          -7.7460  -17.2042   22.6677 C.ar    1  UNL1        0.1318
      8 N          -6.3799  -17.6445   22.2320 N.ar    1  UNL1       -0.3006
      9 C          -5.0431  -16.9662   22.2826 C.3     1  UNL1        0.1299
     10 C          -3.8252  -17.6692   21.7607 C.3     1  UNL1        0.1182
     11 N          -3.9441  -19.0506   21.1883 N.am    1  UNL1       -0.2732
     12 C          -2.7261  -19.7536   20.6664 C.2     1  UNL1        0.2418
     13 O          -2.8450  -21.1350   20.0940 O.2     1  UNL1       -0.2734
     14 C         -10.1843  -18.2991   22.6368 C.ar    1  UNL1        0.0205
     15 C         -10.6966  -18.6152   24.0107 C.ar    1  UNL1        0.0039
     16 C         -12.1716  -18.6010   24.2829 C.ar    1  UNL1        0.0297
     17 C         -13.1344  -18.2707   23.1811 C.ar    1  UNL1        0.1401
     18 F         -14.6094  -18.2565   23.4533 F       1  UNL1       -0.2042
     19 C         -12.6221  -17.9547   21.8072 C.ar    1  UNL1        0.0297
     20 C         -11.1471  -17.9689   21.5350 C.ar    1  UNL1        0.0039
     21 C          -1.3892  -19.0752   20.7169 C.3     1  UNL1        0.1517
     22 N          -0.7977  -18.4895   19.4690 N.3     1  UNL1       -0.3135
     23 H          -0.5844  -19.2382   18.8100 H       1  UNL1        0.1193
     24 H           0.0589  -17.9873   19.7021 H       1  UNL1        0.1193
     25 N          -8.0887  -15.8860   23.2962 N.pl3   1  UNL1       -0.2980
     26 H          -8.5957  -15.2142   22.7855 H       1  UNL1        0.1536
     27 C          -7.6590  -15.5913   24.7027 C.ar    1  UNL1        0.0495
     28 C          -8.6700  -15.5883   25.8109 C.ar    1  UNL1        0.0169
     29 C          -8.2403  -15.2936   27.2174 C.ar    1  UNL1        0.0309
     30 C          -6.7995  -15.0020   27.5159 C.ar    1  UNL1        0.1402
     31 F          -6.3698  -14.7074   28.9225 F       1  UNL1       -0.2042
     32 C          -5.7885  -15.0051   26.4079 C.ar    1  UNL1        0.0309
     33 C          -6.2182  -15.2997   25.0013 C.ar    1  UNL1        0.0169
@<TRIPOS>BOND
     1     1     2    1
     2     2     3    1
     3     2     4    1
     4     4     5   ar
     5     5     6   ar
     6     6    14    1
     7    14    15   ar
     8    15    16   ar
     9    16    17   ar
    10    17    18    1
    11    17    19   ar
    12    19    20   ar
    13     6     7   ar
    14     7    25    1
    15    25    27    1
    16    27    28   ar
    17    28    29   ar
    18    29    30   ar
    19    30    31    1
    20    30    32   ar
    21    32    33   ar
    22     7     8   ar
    23     8     9    1
    24     9    10    1
    25    10    11    1
    26    11    12   am
    27    12    13    2
    28    12    21    1
    29    21    22    1
    30    11     2    1
    31     8     4   ar
    32    20    14   ar
    33    33    27   ar
    34    25    26    1
    35    22    23    1
    36    22    24    1
@<TRIPOS>MOLECULE
*****
 33 36 0 0 0
SMALL
GASTEIGER

@<TRIPOS>ATOM
      1 C         -14.8076   -9.5870   17.9831 C.3     1  UNL1        0.0276
      2 C         -14.9969   -8.1242   18.2556 C.3     1  UNL1        0.1109
      3 C         -13.6116   -8.1049   17.6804 C.3     1  UNL1        0.0276
      4 C         -14.7052   -6.6547   18.3283 C.ar    1  UNL1        0.1375
      5 N         -13.5029   -5.8493   17.9335 N.ar    1  UNL1       -0.2280
      6 C         -13.7875   -4.4094   18.2427 C.ar    1  UNL1        0.1125
      7 C         -15.1658   -4.3248   18.8286 C.ar    1  UNL1        0.1318
      8 N         -15.7329   -5.7125   18.8815 N.ar    1  UNL1       -0.3006
      9 C         -17.0524   -6.2398   19.3620 C.3     1  UNL1        0.1299
     10 C         -17.3441   -7.7093   19.2892 C.3     1  UNL1        0.1182
     11 N         -16.3164   -8.6515   18.7360 N.am    1  UNL1       -0.2732
     12 C         -16.6082  -10.1211   18.6633 C.2     1  UNL1        0.2418
     13 O         -15.5805  -11.0633   18.1100 O.2     1  UNL1       -0.2734
     14 C         -12.8573   -3.2564   18.0073 C.ar    1  UNL1        0.0205
     15 C         -12.1051   -2.6530   19.1562 C.ar    1  UNL1        0.0039
     16 C         -11.1749   -1.5001   18.9209 C.ar    1  UNL1        0.0297
     17 C         -10.9968   -0.9506   17.5366 C.ar    1  UNL1        0.1401
     18 F         -10.0665    0.2023   17.3012 F       1  UNL1       -0.2042
     19 C         -11.7489   -1.5541   16.3876 C.ar    1  UNL1        0.0297
     20 C         -12.6792   -2.7070   16.6230 C.ar    1  UNL1        0.0039
     21 C         -17.9276  -10.6484   19.1437 C.3     1  UNL1        0.1517
     22 N         -18.9706  -11.0745   18.1534 N.3     1  UNL1       -0.3135
     23 H         -19.2928  -10.2617   17.6280 H       1  UNL1        0.1193
     24 H         -19.7581  -11.4935   18.6480 H       1  UNL1        0.1193
     25 N         -15.8558   -3.0725   19.2820 N.pl3   1  UNL1       -0.2980
     26 H         -16.4038   -3.0810   20.0999 H       1  UNL1        0.1536
     27 C         -15.7108   -1.8073   18.4895 C.ar    1  UNL1        0.0495
     28 C         -16.2195   -1.7429   17.0798 C.ar    1  UNL1        0.0169
     29 C         -16.0746   -0.4777   16.2872 C.ar    1  UNL1        0.0309
     30 C         -15.4209    0.7232   16.9043 C.ar    1  UNL1        0.1402
     31 F         -15.2760    1.9884   16.1117 F       1  UNL1       -0.2042
     32 C         -14.9122    0.6587   18.3139 C.ar    1  UNL1        0.0309
     33 C         -15.0571   -0.6065   19.1065 C.ar    1  UNL1        0.0169
@<TRIPOS>BOND
     1     1     2    1
     2     2     3    1
     3     2     4    1
     4     4     5   ar
     5     5     6   ar
     6     6    14    1
     7    14    15   ar
     8    15    16   ar
     9    16    17   ar
    10    17    18    1
    11    17    19   ar
    12    19    20   ar
    13     6     7   ar
    14     7    25    1
    15    25    27    1
    16    27    28   ar
    17    28    29   ar
    18    29    30   ar
    19    30    31    1
    20    30    32   ar
    21    32    33   ar
    22     7     8   ar
    23     8     9    1
    24     9    10    1
    25    10    11    1
    26    11    12   am
    27    12    13    2
    28    12    21    1
    29    21    22    1
    30    11     2    1
    31     8     4   ar
    32    20    14   ar
    33    33    27   ar
    34    25    26    1
    35    22    23    1
    36    22    24    1
@<TRIPOS>MOLECULE
*****
 33 36 0 0 0
SMALL
GASTEIGER

@<TRIPOS>ATOM
      1 C           7.1234   -5.8871   28.3832 C.3     1  UNL1        0.0276
      2 C           6.7853   -4.7602   27.4526 C.3     1  UNL1        0.1109
      3 C           7.0007   -5.8630   26.4589 C.3     1  UNL1        0.0276
      4 C           6.5219   -4.0164   26.1770 C.ar    1  UNL1        0.1375
      5 N           6.5427   -4.4482   24.7407 N.ar    1  UNL1       -0.2280
      6 C           6.1943   -3.2599   23.8942 C.ar    1  UNL1        0.1125
      7 C           5.9581   -2.0936   24.8074 C.ar    1  UNL1        0.1318
      8 N           6.1606   -2.5611   26.2183 N.ar    1  UNL1       -0.3006
      9 C           6.0627   -1.8497   27.5352 C.3     1  UNL1        0.1299
     10 C           6.3261   -2.5936   28.8108 C.3     1  UNL1        0.1182
     11 N           6.6873   -4.0488   28.7695 N.am    1  UNL1       -0.2732
     12 C           6.9507   -4.7927   30.0453 C.2     1  UNL1        0.2418
     13 O           7.3120   -6.2479   30.0040 O.2     1  UNL1       -0.2734
     14 C           6.0988   -3.2412   22.3974 C.ar    1  UNL1        0.0205
     15 C           4.8495   -3.7204   21.7195 C.ar    1  UNL1        0.0039
     16 C           4.7539   -3.7016   20.2227 C.ar    1  UNL1        0.0297
     17 C           5.9077   -3.2037   19.4037 C.ar    1  UNL1        0.1401
     18 F           5.8122   -3.1850   17.9069 F       1  UNL1       -0.2042
     19 C           7.1571   -2.7246   20.0816 C.ar    1  UNL1        0.0297
     20 C           7.2526   -2.7433   21.5784 C.ar    1  UNL1        0.0039
     21 C           6.8528   -4.0812   31.3622 C.3     1  UNL1        0.1517
     22 N           6.2713   -4.7841   32.5530 N.3     1  UNL1       -0.3135
     23 H           5.2828   -4.9730   32.3871 H       1  UNL1        0.1193
     24 H           6.3707   -4.1934   33.3785 H       1  UNL1        0.1193
     25 N           5.5850   -0.7038   24.3842 N.pl3   1  UNL1       -0.2980
     26 H           5.8845    0.0695   24.9148 H       1  UNL1        0.1536
     27 C           4.7557   -0.4921   23.1524 C.ar    1  UNL1        0.0495
     28 C           5.3612    0.1565   21.9429 C.ar    1  UNL1        0.0169
     29 C           4.5319    0.3683   20.7110 C.ar    1  UNL1        0.0309
     30 C           3.0971   -0.0686   20.6887 C.ar    1  UNL1        0.1402
     31 F           2.2678    0.1432   19.4569 F       1  UNL1       -0.2042
     32 C           2.4916   -0.7171   21.8981 C.ar    1  UNL1        0.0309
     33 C           3.3209   -0.9289   23.1300 C.ar    1  UNL1        0.0169
@<TRIPOS>BOND
     1     1     2    1
     2     2     3    1
     3     2     4    1
     4     4     5   ar
     5     5     6   ar
     6     6    14    1
     7    14    15   ar
     8    15    16   ar
     9    16    17   ar
    10    17    18    1
    11    17    19   ar
    12    19    20   ar
    13     6     7   ar
    14     7    25    1
    15    25    27    1
    16    27    28   ar
    17    28    29   ar
    18    29    30   ar
    19    30    31    1
    20    30    32   ar
    21    32    33   ar
    22     7     8   ar
    23     8     9    1
    24     9    10    1
    25    10    11    1
    26    11    12   am
    27    12    13    2
    28    12    21    1
    29    21    22    1
    30    11     2    1
    31     8     4   ar
    32    20    14   ar
    33    33    27   ar
    34    25    26    1
    35    22    23    1
    36    22    24    1
@<TRIPOS>MOLECULE
*****
 33 36 0 0 0
SMALL
GASTEIGER

@<TRIPOS>ATOM
      1 C           3.7031   -1.5605   20.7262 C.3     1  UNL1        0.0276
      2 C           2.9403   -0.4505   21.3866 C.3     1  UNL1        0.1109
      3 C           3.2813   -1.2824   22.5873 C.3     1  UNL1        0.0276
      4 C           2.2959    0.3706   22.4639 C.ar    1  UNL1        0.1375
      5 N           2.2065    0.1846   23.9497 N.ar    1  UNL1       -0.2280
      6 C           1.4308    1.3371   24.5153 C.ar    1  UNL1        0.1125
      7 C           1.0408    2.2354   23.3791 C.ar    1  UNL1        0.1318
      8 N           1.5755    1.6381   22.1113 N.ar    1  UNL1       -0.3006
      9 C           1.4993    2.0845   20.6814 C.3     1  UNL1        0.1299
     10 C           2.1437    1.2635   19.6040 C.3     1  UNL1        0.1182
     11 N           2.8641   -0.0040   19.9567 N.am    1  UNL1       -0.2732
     12 C           3.5085   -0.8251   18.8792 C.2     1  UNL1        0.2418
     13 O           4.2290   -2.0926   19.2319 O.2     1  UNL1       -0.2734
     14 C           1.1028    1.5534   25.9629 C.ar    1  UNL1        0.0205
     15 C          -0.2476    1.1698   26.4914 C.ar    1  UNL1        0.0039
     16 C          -0.5757    1.3860   27.9390 C.ar    1  UNL1        0.0297
     17 C           0.4467    1.9859   28.8582 C.ar    1  UNL1        0.1401
     18 F           0.1186    2.2022   30.3058 F       1  UNL1       -0.2042
     19 C           1.7970    2.3696   28.3298 C.ar    1  UNL1        0.0297
     20 C           2.1251    2.1533   26.8821 C.ar    1  UNL1        0.0039
     21 C           3.4324   -0.3786   17.4493 C.3     1  UNL1        0.1517
     22 N           3.8545   -1.3078   16.3499 N.3     1  UNL1       -0.3135
     23 H           4.8566   -1.4847   16.4204 H       1  UNL1        0.1193
     24 H           3.6471   -0.8820   15.4465 H       1  UNL1        0.1193
     25 N           0.2542    3.5077   23.4911 N.pl3   1  UNL1       -0.2980
     26 H           0.7143    4.3549   23.6905 H       1  UNL1        0.1536
     27 C          -1.2333    3.4893   23.2992 C.ar    1  UNL1        0.0495
     28 C          -2.1433    3.4854   24.4916 C.ar    1  UNL1        0.0169
     29 C          -3.6309    3.4669   24.2998 C.ar    1  UNL1        0.0309
     30 C          -4.2084    3.4523   22.9155 C.ar    1  UNL1        0.1402
     31 F          -5.6960    3.4339   22.7237 F       1  UNL1       -0.2042
     32 C          -3.2984    3.4562   21.7231 C.ar    1  UNL1        0.0309
     33 C          -1.8109    3.4747   21.9149 C.ar    1  UNL1        0.0169
@<TRIPOS>BOND
     1     1     2    1
     2     2     3    1
     3     2     4    1
     4     4     5   ar
     5     5     6   ar
     6     6    14    1
     7    14    15   ar
     8    15    16   ar
     9    16    17   ar
    10    17    18    1
    11    17    19   ar
    12    19    20   ar
    13     6     7   ar
    14     7    25    1
    15    25    27    1
    16    27    28   ar
    17    28    29   ar
    18    29    30   ar
    19    30    31    1
    20    30    32   ar
    21    32    33   ar
    22     7     8   ar
    23     8     9    1
    24     9    10    1
    25    10    11    1
    26    11    12   am
    27    12    13    2
    28    12    21    1
    29    21    22    1
    30    11     2    1
    31     8     4   ar
    32    20    14   ar
    33    33    27   ar
    34    25    26    1
    35    22    23    1
    36    22    24    1
@<TRIPOS>MOLECULE
*****
 33 36 0 0 0
SMALL
GASTEIGER

@<TRIPOS>ATOM
      1 C           0.1291    1.1528   28.5660 C.3     1  UNL1        0.0276
      2 C           0.9836    0.9968   27.3431 C.3     1  UNL1        0.1109
      3 C          -0.2906    1.4738   26.7114 C.3     1  UNL1        0.0276
      4 C           1.3956    1.0065   25.9008 C.ar    1  UNL1        0.1375
      5 N           0.6558    1.3717   24.6481 N.ar    1  UNL1       -0.2280
      6 C           1.5879    1.1843   23.4879 C.ar    1  UNL1        0.1125
      7 C           2.9038    0.7033   24.0237 C.ar    1  UNL1        0.1318
      8 N           2.7850    0.5934   25.5149 N.ar    1  UNL1       -0.3006
      9 C           3.7624    0.1706   26.5712 C.3     1  UNL1        0.1299
     10 C           3.3504    0.1609   28.0135 C.3     1  UNL1        0.1182
     11 N           1.9610    0.5740   28.3994 N.am    1  UNL1       -0.2732
     12 C           1.5491    0.5643   29.8418 C.2     1  UNL1        0.2418
     13 O           0.1597    0.9774   30.2277 O.2     1  UNL1       -0.2734
     14 C           1.2615    1.4340   22.0453 C.ar    1  UNL1        0.0205
     15 C           1.4579    2.7999   21.4575 C.ar    1  UNL1        0.0039
     16 C           1.1314    3.0496   20.0149 C.ar    1  UNL1        0.0297
     17 C           0.6086    1.9334   19.1602 C.ar    1  UNL1        0.1401
     18 F           0.2821    2.1832   17.7176 F       1  UNL1       -0.2042
     19 C           0.4122    0.5675   19.7480 C.ar    1  UNL1        0.0297
     20 C           0.7386    0.3178   21.1906 C.ar    1  UNL1        0.0039
     21 C           2.5265    0.1415   30.8981 C.3     1  UNL1        0.1517
     22 N           2.6366   -1.3043   31.2825 N.3     1  UNL1       -0.3135
     23 H           1.7677   -1.6060   31.7234 H       1  UNL1        0.1193
     24 H           3.4095   -1.4241   31.9372 H       1  UNL1        0.1193
     25 N           4.1244    0.3875   23.2109 N.pl3   1  UNL1       -0.2980
     26 H           4.8800    1.0184   23.1921 H       1  UNL1        0.1536
     27 C           4.1937   -0.8893   22.4268 C.ar    1  UNL1        0.0495
     28 C           4.3894   -2.1959   23.1370 C.ar    1  UNL1        0.0169
     29 C           4.4588   -3.4728   22.3530 C.ar    1  UNL1        0.0309
     30 C           4.3324   -3.4430   20.8586 C.ar    1  UNL1        0.1402
     31 F           4.4017   -4.7199   20.0745 F       1  UNL1       -0.2042
     32 C           4.1367   -2.1364   20.1483 C.ar    1  UNL1        0.0309
     33 C           4.0673   -0.8596   20.9324 C.ar    1  UNL1        0.0169
@<TRIPOS>BOND
     1     1     2    1
     2     2     3    1
     3     2     4    1
     4     4     5   ar
     5     5     6   ar
     6     6    14    1
     7    14    15   ar
     8    15    16   ar
     9    16    17   ar
    10    17    18    1
    11    17    19   ar
    12    19    20   ar
    13     6     7   ar
    14     7    25    1
    15    25    27    1
    16    27    28   ar
    17    28    29   ar
    18    29    30   ar
    19    30    31    1
    20    30    32   ar
    21    32    33   ar
    22     7     8   ar
    23     8     9    1
    24     9    10    1
    25    10    11    1
    26    11    12   am
    27    12    13    2
    28    12    21    1
    29    21    22    1
    30    11     2    1
    31     8     4   ar
    32    20    14   ar
    33    33    27   ar
    34    25    26    1
    35    22    23    1
    36    22    24    1
@<TRIPOS>MOLECULE
*****
 33 36 0 0 0
SMALL
GASTEIGER

@<TRIPOS>ATOM
      1 C          -6.7264    4.4641   23.5894 C.3     1  UNL1        0.0276
      2 C          -5.2456    4.2475   23.4869 C.3     1  UNL1        0.1109
      3 C          -5.4635    3.8817   24.9252 C.3     1  UNL1        0.0276
      4 C          -3.8406    3.9040   23.8840 C.ar    1  UNL1        0.1375
      5 N          -3.2489    3.4431   25.1830 N.ar    1  UNL1       -0.2280
      6 C          -1.7745    3.2557   24.9802 C.ar    1  UNL1        0.1125
      7 C          -1.4550    3.6007   23.5558 C.ar    1  UNL1        0.1318
      8 N          -2.7319    4.0014   22.8783 N.ar    1  UNL1       -0.3006
      9 C          -3.0283    4.4424   21.4756 C.3     1  UNL1        0.1299
     10 C          -4.4334    4.7859   21.0785 C.3     1  UNL1        0.1182
     11 N          -5.5420    4.6885   22.0842 N.am    1  UNL1       -0.2732
     12 C          -6.9472    5.0321   21.6871 C.2     1  UNL1        0.2418
     13 O          -8.0559    4.9347   22.6927 O.2     1  UNL1       -0.2734
     14 C          -0.7921    2.8027   26.0193 C.ar    1  UNL1        0.0205
     15 C          -0.3735    3.7386   27.1142 C.ar    1  UNL1        0.0039
     16 C           0.6088    3.2857   28.1533 C.ar    1  UNL1        0.0297
     17 C           1.1726    1.8968   28.0976 C.ar    1  UNL1        0.1401
     18 F           2.1550    1.4438   29.1367 F       1  UNL1       -0.2042
     19 C           0.7540    0.9609   27.0027 C.ar    1  UNL1        0.0297
     20 C          -0.2283    1.4138   25.9636 C.ar    1  UNL1        0.0039
     21 C          -7.2436    5.4730   20.2844 C.3     1  UNL1        0.1517
     22 N          -7.6760    4.4683   19.2578 N.3     1  UNL1       -0.3135
     23 H          -6.9112    3.8188   19.0746 H       1  UNL1        0.1193
     24 H          -7.9268    4.9505   18.3947 H       1  UNL1        0.1193
     25 N          -0.0970    3.5534   22.9205 N.pl3   1  UNL1       -0.2980
     26 H           0.5053    4.3293   22.9879 H       1  UNL1        0.1536
     27 C           0.3433    2.3242   22.1824 C.ar    1  UNL1        0.0495
     28 C          -0.2797    1.9784   20.8623 C.ar    1  UNL1        0.0169
     29 C           0.1607    0.7491   20.1241 C.ar    1  UNL1        0.0309
     30 C           1.2240   -0.1345   20.7061 C.ar    1  UNL1        0.1402
     31 F           1.6643   -1.3639   19.9679 F       1  UNL1       -0.2042
     32 C           1.8469    0.2112   22.0260 C.ar    1  UNL1        0.0309
     33 C           1.4066    1.4405   22.7642 C.ar    1  UNL1        0.0169
@<TRIPOS>BOND
     1     1     2    1
     2     2     3    1
     3     2     4    1
     4     4     5   ar
     5     5     6   ar
     6     6    14    1
     7    14    15   ar
     8    15    16   ar
     9    16    17   ar
    10    17    18    1
    11    17    19   ar
    12    19    20   ar
    13     6     7   ar
    14     7    25    1
    15    25    27    1
    16    27    28   ar
    17    28    29   ar
    18    29    30   ar
    19    30    31    1
    20    30    32   ar
    21    32    33   ar
    22     7     8   ar
    23     8     9    1
    24     9    10    1
    25    10    11    1
    26    11    12   am
    27    12    13    2
    28    12    21    1
    29    21    22    1
    30    11     2    1
    31     8     4   ar
    32    20    14   ar
    33    33    27   ar
    34    25    26    1
    35    22    23    1
    36    22    24    1
@<TRIPOS>MOLECULE
*****
 33 36 0 0 0
SMALL
GASTEIGER

@<TRIPOS>ATOM
      1 C           2.6781   -0.5811   29.3224 C.3     1  UNL1        0.0276
      2 C           2.6380    0.0286   27.9525 C.3     1  UNL1        0.1109
      3 C           3.3923   -1.2332   27.6540 C.3     1  UNL1        0.0276
      4 C           2.8598    0.2001   26.4789 C.ar    1  UNL1        0.1375
      5 N           3.5483   -0.6597   25.4608 N.ar    1  UNL1       -0.2280
      6 C           3.4554    0.0303   24.1322 C.ar    1  UNL1        0.1125
      7 C           2.7093    1.3166   24.3292 C.ar    1  UNL1        0.1318
      8 N           2.3412    1.4216   25.7796 N.ar    1  UNL1       -0.3006
      9 C           1.6009    2.4715   26.5538 C.3     1  UNL1        0.1299
     10 C           1.3791    2.3000   28.0273 C.3     1  UNL1        0.1182
     11 N           1.8976    1.0785   28.7266 N.am    1  UNL1       -0.2732
     12 C           1.6758    0.9071   30.2003 C.2     1  UNL1        0.2418
     13 O           2.1943   -0.3144   30.8996 O.2     1  UNL1       -0.2734
     14 C           4.0109   -0.4769   22.8344 C.ar    1  UNL1        0.0205
     15 C           3.2508   -1.4983   22.0414 C.ar    1  UNL1        0.0039
     16 C           3.8063   -2.0055   20.7436 C.ar    1  UNL1        0.0297
     17 C           5.1219   -1.4913   20.2389 C.ar    1  UNL1        0.1401
     18 F           5.6774   -1.9985   18.9412 F       1  UNL1       -0.2042
     19 C           5.8820   -0.4699   21.0320 C.ar    1  UNL1        0.0297
     20 C           5.3265    0.0373   22.3297 C.ar    1  UNL1        0.0039
     21 C           0.9355    1.9570   30.9744 C.3     1  UNL1        0.1517
     22 N           0.7059    1.7814   32.4464 N.3     1  UNL1       -0.3135
     23 H           0.0861    0.9863   32.6013 H       1  UNL1        0.1193
     24 H           0.2778    2.6254   32.8269 H       1  UNL1        0.1193
     25 N           2.3878    2.3216   23.2631 N.pl3   1  UNL1       -0.2980
     26 H           2.4345    3.2843   23.4639 H       1  UNL1        0.1536
     27 C           1.9952    1.8600   21.8911 C.ar    1  UNL1        0.0495
     28 C           0.7600    1.0297   21.7040 C.ar    1  UNL1        0.0169
     29 C           0.3673    0.5680   20.3319 C.ar    1  UNL1        0.0309
     30 C           1.2098    0.9366   19.1468 C.ar    1  UNL1        0.1402
     31 F           0.8171    0.4749   17.7748 F       1  UNL1       -0.2042
     32 C           2.4450    1.7668   19.3339 C.ar    1  UNL1        0.0309
     33 C           2.8377    2.2285   20.7060 C.ar    1  UNL1        0.0169
@<TRIPOS>BOND
     1     1     2    1
     2     2     3    1
     3     2     4    1
     4     4     5   ar
     5     5     6   ar
     6     6    14    1
     7    14    15   ar
     8    15    16   ar
     9    16    17   ar
    10    17    18    1
    11    17    19   ar
    12    19    20   ar
    13     6     7   ar
    14     7    25    1
    15    25    27    1
    16    27    28   ar
    17    28    29   ar
    18    29    30   ar
    19    30    31    1
    20    30    32   ar
    21    32    33   ar
    22     7     8   ar
    23     8     9    1
    24     9    10    1
    25    10    11    1
    26    11    12   am
    27    12    13    2
    28    12    21    1
    29    21    22    1
    30    11     2    1
    31     8     4   ar
    32    20    14   ar
    33    33    27   ar
    34    25    26    1
    35    22    23    1
    36    22    24    1
