@<TRIPOS>MOLECULE
*****
 46 49 0 0 0
SMALL
GASTEIGER

@<TRIPOS>ATOM
      1 N           3.1215    0.4526   29.3618 N.am    1  UNL1       -0.2724
      2 C           3.7671    0.5460   30.7125 C.2     1  UNL1        0.2491
      3 O           5.0914    1.2336   30.8649 O.2     1  UNL1       -0.2727
      4 C           1.7971   -0.2351   29.2094 C.3     1  UNL1        0.1111
      5 C           0.5251    0.5458   29.3580 C.3     1  UNL1        0.0939
      6 N           0.4937    2.0028   29.0029 N.3     1  UNL1       -0.2712
      7 C           0.5985    2.6307   31.5218 C.3     1  UNL1        0.0188
      8 C           0.6222    3.0400   30.0790 C.3     1  UNL1        0.0722
      9 C           0.3339    2.4227   27.5718 C.3     1  UNL1        0.0722
     10 C          -0.5343    1.6214   26.6475 C.3     1  UNL1        0.0188
     11 C           3.8003    1.0468   28.1634 C.3     1  UNL1        0.1202
     12 C           3.9053    0.2570   26.8925 C.ar    1  UNL1       -0.0023
     13 C           3.0115    0.5807   25.7322 C.ar    1  UNL1       -0.0026
     14 C           3.1166   -0.2091   24.4614 C.ar    1  UNL1       -0.0003
     15 C           4.1155   -1.3226   24.3508 C.ar    1  UNL1       -0.0000
     16 C           5.0093   -1.6464   25.5110 C.ar    1  UNL1       -0.0003
     17 C           4.9042   -0.8566   26.7819 C.ar    1  UNL1       -0.0026
     18 C           4.2205   -2.1124   23.0798 C.ar    1  UNL1       -0.0000
     19 C           3.5877   -1.5964   21.8216 C.ar    1  UNL1       -0.0001
     20 C           3.6927   -2.3862   20.5507 C.ar    1  UNL1        0.0039
     21 C           4.4306   -3.6921   20.5380 C.ar    1  UNL1        0.0714
     22 C           5.0635   -4.2081   21.7963 C.ar    1  UNL1        0.0039
     23 C           4.9584   -3.4183   23.0672 C.ar    1  UNL1       -0.0001
     24 C           4.5357   -4.4819   19.2672 C.3     1  UNL1        0.4186
     25 F           4.6407   -5.2717   17.9963 F       1  UNL1       -0.1659
     26 F           5.6457   -3.5864   18.8024 F       1  UNL1       -0.1659
     27 F           3.4257   -5.3773   19.7319 F       1  UNL1       -0.1659
     28 C           3.0882   -0.0483   31.9109 C.3     1  UNL1        0.1934
     29 N           3.6877    0.1246   33.2750 N.ar    1  UNL1       -0.2972
     30 C           3.4129    1.3715   34.0625 C.ar    1  UNL1        0.0888
     31 C           4.0123    1.5444   35.4265 C.ar    1  UNL1        0.1005
     32 C           4.8866    0.4705   36.0032 C.ar    1  UNL1        0.2880
     33 O           5.4861    0.6435   37.3673 O.2     1  UNL1       -0.2645
     34 N           5.1614   -0.7762   35.2158 N.ar    1  UNL1       -0.1840
     35 C           4.5620   -0.9491   33.8517 C.ar    1  UNL1        0.1751
     36 S           3.7375    2.7911   36.2140 S.3     1  UNL1       -0.1066
     37 C           2.4402    2.9415   36.9519 C.3     1  UNL1        0.0744
     38 S           4.8368   -2.1959   33.0642 S.3     1  UNL1       -0.0724
     39 C           6.2316   -2.4997   32.6033 C.3     1  UNL1        0.0913
     40 C           6.4517   -3.3794   31.4085 C.ar    1  UNL1       -0.0108
     41 C           6.8309   -4.8184   31.5964 C.ar    1  UNL1       -0.0011
     42 C           7.0511   -5.6982   30.4015 C.ar    1  UNL1        0.0293
     43 C           6.8919   -5.1389   29.0188 C.ar    1  UNL1        0.1401
     44 F           7.1120   -6.0186   27.8240 F       1  UNL1       -0.2042
     45 C           6.5126   -3.6998   28.8310 C.ar    1  UNL1        0.0293
     46 C           6.2925   -2.8201   30.0258 C.ar    1  UNL1       -0.0011
@<TRIPOS>BOND
     1     7     8    1
     2     8     6    1
     3     6     9    1
     4     9    10    1
     5     6     5    1
     6     5     4    1
     7     4     1    1
     8     1    11    1
     9    11    12    1
    10    12    13   ar
    11    13    14   ar
    12    14    15   ar
    13    15    18    1
    14    18    19   ar
    15    19    20   ar
    16    20    21   ar
    17    21    24    1
    18    24    25    1
    19    24    26    1
    20    24    27    1
    21    21    22   ar
    22    22    23   ar
    23    15    16   ar
    24    16    17   ar
    25     1     2   am
    26     2     3    2
    27     2    28    1
    28    28    29    1
    29    29    30   ar
    30    30    31   ar
    31    31    36    1
    32    36    37    1
    33    31    32   ar
    34    32    33    2
    35    32    34   ar
    36    34    35   ar
    37    35    38    1
    38    38    39    1
    39    39    40    1
    40    40    41   ar
    41    41    42   ar
    42    42    43   ar
    43    43    44    1
    44    43    45   ar
    45    45    46   ar
    46    17    12   ar
    47    35    29   ar
    48    46    40   ar
    49    23    18   ar
@<TRIPOS>MOLECULE
*****
 46 49 0 0 0
SMALL
GASTEIGER

@<TRIPOS>ATOM
      1 N           3.1822    1.4250   28.8167 N.am    1  UNL1       -0.2724
      2 C           4.4271    1.5588   29.6427 C.2     1  UNL1        0.2491
      3 O           5.6372    2.2362   29.0712 O.2     1  UNL1       -0.2727
      4 C           1.9720    0.7476   29.3883 C.3     1  UNL1        0.1111
      5 C           0.7284    1.5401   29.6628 C.3     1  UNL1        0.0939
      6 N          -0.4323    1.4661   28.7156 N.3     1  UNL1       -0.2712
      7 C          -0.4250    1.6513   26.1241 C.3     1  UNL1        0.0188
      8 C          -0.4413    2.3067   27.4732 C.3     1  UNL1        0.0722
      9 C          -1.5841    0.5516   29.0107 C.3     1  UNL1        0.0722
     10 C          -1.4498   -0.9237   28.7750 C.3     1  UNL1        0.0188
     11 C           3.1475    1.9686   27.4191 C.3     1  UNL1        0.1202
     12 C           3.3268    1.0453   26.2505 C.ar    1  UNL1       -0.0023
     13 C           3.7472   -0.3768   26.4759 C.ar    1  UNL1       -0.0026
     14 C           3.9265   -1.3000   25.3074 C.ar    1  UNL1       -0.0003
     15 C           3.6854   -0.8012   23.9135 C.ar    1  UNL1       -0.0000
     16 C           3.2649    0.6209   23.6881 C.ar    1  UNL1       -0.0003
     17 C           3.0856    1.5441   24.8566 C.ar    1  UNL1       -0.0026
     18 C           3.8647   -1.7245   22.7450 C.ar    1  UNL1       -0.0000
     19 C           4.5095   -3.0646   22.9401 C.ar    1  UNL1       -0.0001
     20 C           4.6889   -3.9879   21.7715 C.ar    1  UNL1        0.0039
     21 C           4.2233   -3.5710   20.4079 C.ar    1  UNL1        0.0714
     22 C           3.5785   -2.2308   20.2128 C.ar    1  UNL1        0.0039
     23 C           3.3992   -1.3075   21.3813 C.ar    1  UNL1       -0.0001
     24 C           4.4026   -4.4942   19.2394 C.3     1  UNL1        0.4186
     25 F           4.5819   -5.4175   18.0709 F       1  UNL1       -0.1659
     26 F           5.8880   -4.4683   19.4468 F       1  UNL1       -0.1659
     27 F           2.9173   -4.5202   19.0320 F       1  UNL1       -0.1659
     28 C           4.4618    1.0152   31.0404 C.3     1  UNL1        0.1934
     29 N           5.0006   -0.3610   31.2966 N.ar    1  UNL1       -0.2972
     30 C           5.6910   -1.1128   30.1974 C.ar    1  UNL1        0.0888
     31 C           6.2298   -2.4891   30.4537 C.ar    1  UNL1        0.1005
     32 C           6.0783   -3.1135   31.8091 C.ar    1  UNL1        0.2880
     33 O           6.6171   -4.4897   32.0654 O.2     1  UNL1       -0.2645
     34 N           5.3879   -2.3616   32.9083 N.ar    1  UNL1       -0.1840
     35 C           4.8491   -0.9854   32.6520 C.ar    1  UNL1        0.1751
     36 S           6.9202   -3.2409   29.3545 S.3     1  UNL1       -0.1066
     37 C           8.0253   -2.5879   28.5784 C.3     1  UNL1        0.0744
     38 S           4.1588   -0.2336   33.7511 S.3     1  UNL1       -0.0724
     39 C           4.9469    0.2751   34.9218 C.3     1  UNL1        0.0913
     40 C           4.2507    0.9940   36.0391 C.ar    1  UNL1       -0.0108
     41 C           3.2316    2.0506   35.7310 C.ar    1  UNL1       -0.0011
     42 C           2.5354    2.7696   36.8483 C.ar    1  UNL1        0.0293
     43 C           2.8584    2.4321   38.2737 C.ar    1  UNL1        0.1401
     44 F           2.1623    3.1510   39.3910 F       1  UNL1       -0.2042
     45 C           3.8776    1.3754   38.5818 C.ar    1  UNL1        0.0293
     46 C           4.5737    0.6564   37.4644 C.ar    1  UNL1       -0.0011
@<TRIPOS>BOND
     1     7     8    1
     2     8     6    1
     3     6     9    1
     4     9    10    1
     5     6     5    1
     6     5     4    1
     7     4     1    1
     8     1    11    1
     9    11    12    1
    10    12    13   ar
    11    13    14   ar
    12    14    15   ar
    13    15    18    1
    14    18    19   ar
    15    19    20   ar
    16    20    21   ar
    17    21    24    1
    18    24    25    1
    19    24    26    1
    20    24    27    1
    21    21    22   ar
    22    22    23   ar
    23    15    16   ar
    24    16    17   ar
    25     1     2   am
    26     2     3    2
    27     2    28    1
    28    28    29    1
    29    29    30   ar
    30    30    31   ar
    31    31    36    1
    32    36    37    1
    33    31    32   ar
    34    32    33    2
    35    32    34   ar
    36    34    35   ar
    37    35    38    1
    38    38    39    1
    39    39    40    1
    40    40    41   ar
    41    41    42   ar
    42    42    43   ar
    43    43    44    1
    44    43    45   ar
    45    45    46   ar
    46    17    12   ar
    47    35    29   ar
    48    46    40   ar
    49    23    18   ar
@<TRIPOS>MOLECULE
*****
 46 49 0 0 0
SMALL
GASTEIGER

@<TRIPOS>ATOM
      1 N           3.8364   -0.0366   29.4768 N.am    1  UNL1       -0.2724
      2 C           4.1567   -0.9306   28.3157 C.2     1  UNL1        0.2491
      3 O           3.0562   -1.6638   27.6076 O.2     1  UNL1       -0.2727
      4 C           4.9369    0.6965   30.1848 C.3     1  UNL1        0.1111
      5 C           4.9604    0.7482   31.6837 C.3     1  UNL1        0.0939
      6 N           5.5846   -0.3712   32.4630 N.3     1  UNL1       -0.2712
      7 C           4.7779   -0.6482   34.9171 C.3     1  UNL1        0.0188
      8 C           5.8265   -0.2164   33.9353 C.3     1  UNL1        0.0722
      9 C           5.9669   -1.6454   31.7701 C.3     1  UNL1        0.0722
     10 C           5.7881   -2.9613   32.4677 C.3     1  UNL1        0.0188
     11 C           2.4155    0.1242   29.9298 C.3     1  UNL1        0.1202
     12 C           1.4128    0.7877   29.0328 C.ar    1  UNL1       -0.0023
     13 C           1.7805    2.0401   28.2939 C.ar    1  UNL1       -0.0026
     14 C           0.7779    2.7035   27.3970 C.ar    1  UNL1       -0.0003
     15 C          -0.5925    2.1144   27.2390 C.ar    1  UNL1       -0.0000
     16 C          -0.9603    0.8619   27.9779 C.ar    1  UNL1       -0.0003
     17 C           0.0424    0.1986   28.8748 C.ar    1  UNL1       -0.0026
     18 C          -1.5953    2.7779   26.3420 C.ar    1  UNL1       -0.0000
     19 C          -2.8856    3.2906   26.9095 C.ar    1  UNL1       -0.0001
     20 C          -3.8883    3.9541   26.0125 C.ar    1  UNL1        0.0039
     21 C          -3.6006    4.1047   24.5481 C.ar    1  UNL1        0.0714
     22 C          -2.3102    3.5919   23.9807 C.ar    1  UNL1        0.0039
     23 C          -1.3075    2.9285   24.8776 C.ar    1  UNL1       -0.0001
     24 C          -4.6032    4.7681   23.6511 C.3     1  UNL1        0.4186
     25 F          -5.6058    5.4316   22.7542 F       1  UNL1       -0.1659
     26 F          -3.8405    4.2956   22.4491 F       1  UNL1       -0.1659
     27 F          -5.3659    5.2407   24.8532 F       1  UNL1       -0.1659
     28 C           5.5776   -1.0915   27.8626 C.3     1  UNL1        0.1934
     29 N           6.0675   -2.4282   27.3902 N.ar    1  UNL1       -0.2972
     30 C           6.4948   -3.4652   28.3863 C.ar    1  UNL1        0.0888
     31 C           6.9846   -4.8020   27.9139 C.ar    1  UNL1        0.1005
     32 C           7.0471   -5.1017   26.4454 C.ar    1  UNL1        0.2880
     33 O           7.5369   -6.4385   25.9730 O.2     1  UNL1       -0.2645
     34 N           6.6197   -4.0647   25.4494 N.ar    1  UNL1       -0.1840
     35 C           6.1299   -2.7280   25.9218 C.ar    1  UNL1        0.1751
     36 S           7.4120   -5.8390   28.9098 S.3     1  UNL1       -0.1066
     37 C           6.9134   -5.7720   30.3230 C.3     1  UNL1        0.0744
     38 S           5.7026   -1.6910   24.9259 S.3     1  UNL1       -0.0724
     39 C           4.3265   -1.7444   24.3311 C.3     1  UNL1        0.0913
     40 C           4.1432   -2.1572   22.9007 C.ar    1  UNL1       -0.0108
     41 C           4.6719   -3.4789   22.4280 C.ar    1  UNL1       -0.0011
     42 C           4.4886   -3.8918   20.9976 C.ar    1  UNL1        0.0293
     43 C           3.7766   -2.9828   20.0400 C.ar    1  UNL1        0.1401
     44 F           3.5933   -3.3956   18.6096 F       1  UNL1       -0.2042
     45 C           3.2480   -1.6611   20.5128 C.ar    1  UNL1        0.0293
     46 C           3.4313   -1.2483   21.9432 C.ar    1  UNL1       -0.0011
@<TRIPOS>BOND
     1     7     8    1
     2     8     6    1
     3     6     9    1
     4     9    10    1
     5     6     5    1
     6     5     4    1
     7     4     1    1
     8     1    11    1
     9    11    12    1
    10    12    13   ar
    11    13    14   ar
    12    14    15   ar
    13    15    18    1
    14    18    19   ar
    15    19    20   ar
    16    20    21   ar
    17    21    24    1
    18    24    25    1
    19    24    26    1
    20    24    27    1
    21    21    22   ar
    22    22    23   ar
    23    15    16   ar
    24    16    17   ar
    25     1     2   am
    26     2     3    2
    27     2    28    1
    28    28    29    1
    29    29    30   ar
    30    30    31   ar
    31    31    36    1
    32    36    37    1
    33    31    32   ar
    34    32    33    2
    35    32    34   ar
    36    34    35   ar
    37    35    38    1
    38    38    39    1
    39    39    40    1
    40    40    41   ar
    41    41    42   ar
    42    42    43   ar
    43    43    44    1
    44    43    45   ar
    45    45    46   ar
    46    17    12   ar
    47    35    29   ar
    48    46    40   ar
    49    23    18   ar
@<TRIPOS>MOLECULE
*****
 46 49 0 0 0
SMALL
GASTEIGER

@<TRIPOS>ATOM
      1 N          -0.1059    1.7465   26.3218 N.am    1  UNL1       -0.2724
      2 C          -0.9124    2.8405   25.6874 C.2     1  UNL1        0.2491
      3 O          -2.2123    3.2671   26.3023 O.2     1  UNL1       -0.2727
      4 C           1.1941    1.3199   25.7069 C.3     1  UNL1        0.1111
      5 C           2.4541    2.0710   26.0200 C.3     1  UNL1        0.0939
      6 N           3.7263    1.3229   26.2878 N.3     1  UNL1       -0.2712
      7 C           4.7068    1.7127   28.6620 C.3     1  UNL1        0.0188
      8 C           4.7750    1.9210   27.1781 C.3     1  UNL1        0.0722
      9 C           3.9500   -0.0234   25.6652 C.3     1  UNL1        0.0722
     10 C           3.8765   -1.2614   26.5091 C.3     1  UNL1        0.0188
     11 C          -0.5993    1.0790   27.5712 C.3     1  UNL1        0.1202
     12 C           0.3289    0.8821   28.7331 C.ar    1  UNL1       -0.0023
     13 C           0.3999    1.9139   29.8195 C.ar    1  UNL1       -0.0026
     14 C           1.3280    1.7170   30.9812 C.ar    1  UNL1       -0.0003
     15 C           2.1851    0.4883   31.0566 C.ar    1  UNL1       -0.0000
     16 C           2.1141   -0.5435   29.9702 C.ar    1  UNL1       -0.0003
     17 C           1.1860   -0.3466   28.8084 C.ar    1  UNL1       -0.0026
     18 C           3.1133    0.2914   32.2185 C.ar    1  UNL1       -0.0000
     19 C           3.1921    1.3282   33.2995 C.ar    1  UNL1       -0.0001
     20 C           4.1202    1.1313   34.4614 C.ar    1  UNL1        0.0039
     21 C           4.9696   -0.1024   34.5421 C.ar    1  UNL1        0.0714
     22 C           4.8907   -1.1393   33.4610 C.ar    1  UNL1        0.0039
     23 C           3.9626   -0.9423   32.2992 C.ar    1  UNL1       -0.0001
     24 C           5.8977   -0.2993   35.7039 C.3     1  UNL1        0.4186
     25 F           6.8258   -0.4962   36.8657 F       1  UNL1       -0.1659
     26 F           7.0727   -0.0331   34.8103 F       1  UNL1       -0.1659
     27 F           4.7227   -0.5654   36.5974 F       1  UNL1       -0.1659
     28 C          -0.4189    3.5080   24.4380 C.3     1  UNL1        0.1934
     29 N          -1.2562    3.4833   23.1936 N.ar    1  UNL1       -0.2972
     30 C          -2.5928    4.1640   23.1754 C.ar    1  UNL1        0.0888
     31 C          -3.4301    4.1393   21.9311 C.ar    1  UNL1        0.1005
     32 C          -2.9308    3.4340   20.7050 C.ar    1  UNL1        0.2880
     33 O          -3.7681    3.4093   19.4607 O.2     1  UNL1       -0.2645
     34 N          -1.5943    2.7533   20.7233 N.ar    1  UNL1       -0.1840
     35 C          -0.7570    2.7780   21.9676 C.ar    1  UNL1        0.1751
     36 S          -4.7667    4.8199   21.9129 S.3     1  UNL1       -0.1066
     37 C          -6.0048    4.0511   22.2681 C.3     1  UNL1        0.0744
     38 S           0.5795    2.0974   21.9858 S.3     1  UNL1       -0.0724
     39 C           0.6804    0.6342   21.6713 C.3     1  UNL1        0.0913
     40 C           1.5726    0.1656   20.5603 C.ar    1  UNL1       -0.0108
     41 C           1.5862    0.8965   19.2505 C.ar    1  UNL1       -0.0011
     42 C           2.4784    0.4280   18.1394 C.ar    1  UNL1        0.0293
     43 C           3.3570   -0.7714   18.3381 C.ar    1  UNL1        0.1401
     44 F           4.2491   -1.2400   17.2271 F       1  UNL1       -0.2042
     45 C           3.3434   -1.5023   19.6480 C.ar    1  UNL1        0.0293
     46 C           2.4512   -1.0338   20.7591 C.ar    1  UNL1       -0.0011
@<TRIPOS>BOND
     1     7     8    1
     2     8     6    1
     3     6     9    1
     4     9    10    1
     5     6     5    1
     6     5     4    1
     7     4     1    1
     8     1    11    1
     9    11    12    1
    10    12    13   ar
    11    13    14   ar
    12    14    15   ar
    13    15    18    1
    14    18    19   ar
    15    19    20   ar
    16    20    21   ar
    17    21    24    1
    18    24    25    1
    19    24    26    1
    20    24    27    1
    21    21    22   ar
    22    22    23   ar
    23    15    16   ar
    24    16    17   ar
    25     1     2   am
    26     2     3    2
    27     2    28    1
    28    28    29    1
    29    29    30   ar
    30    30    31   ar
    31    31    36    1
    32    36    37    1
    33    31    32   ar
    34    32    33    2
    35    32    34   ar
    36    34    35   ar
    37    35    38    1
    38    38    39    1
    39    39    40    1
    40    40    41   ar
    41    41    42   ar
    42    42    43   ar
    43    43    44    1
    44    43    45   ar
    45    45    46   ar
    46    17    12   ar
    47    35    29   ar
    48    46    40   ar
    49    23    18   ar
@<TRIPOS>MOLECULE
*****
 46 49 0 0 0
SMALL
GASTEIGER

@<TRIPOS>ATOM
      1 N           7.1154   -3.6835   29.7381 N.am    1  UNL1       -0.2724
      2 C           6.8940   -2.5998   28.7249 C.2     1  UNL1        0.2491
      3 O           7.3534   -1.2008   29.0105 O.2     1  UNL1       -0.2727
      4 C           6.6559   -5.0825   29.4525 C.3     1  UNL1        0.1111
      5 C           7.6218   -6.2253   29.5573 C.3     1  UNL1        0.0939
      6 N           8.3012   -6.7483   28.3265 N.3     1  UNL1       -0.2712
      7 C           8.4418   -9.2461   27.6254 C.3     1  UNL1        0.0188
      8 C           9.0087   -8.0705   28.3648 C.3     1  UNL1        0.0722
      9 C           8.2733   -5.9491   27.0574 C.3     1  UNL1        0.0722
     10 C           7.2171   -6.2160   26.0262 C.3     1  UNL1        0.0188
     11 C           7.7964   -3.3682   31.0369 C.3     1  UNL1        0.1202
     12 C           7.1041   -2.5163   32.0593 C.ar    1  UNL1       -0.0023
     13 C           7.8647   -1.4437   32.7809 C.ar    1  UNL1       -0.0026
     14 C           7.1724   -0.5919   33.8032 C.ar    1  UNL1       -0.0003
     15 C           5.7196   -0.8127   34.1039 C.ar    1  UNL1       -0.0000
     16 C           4.9590   -1.8854   33.3822 C.ar    1  UNL1       -0.0003
     17 C           5.6512   -2.7372   32.3599 C.ar    1  UNL1       -0.0026
     18 C           5.0273    0.0391   35.1263 C.ar    1  UNL1       -0.0000
     19 C           4.0483    1.0883   34.6896 C.ar    1  UNL1       -0.0001
     20 C           3.3560    1.9401   35.7120 C.ar    1  UNL1        0.0039
     21 C           3.6429    1.7428   37.1710 C.ar    1  UNL1        0.0714
     22 C           4.6220    0.6936   37.6077 C.ar    1  UNL1        0.0039
     23 C           5.3142   -0.1582   36.5853 C.ar    1  UNL1       -0.0001
     24 C           2.9507    2.5946   38.1934 C.3     1  UNL1        0.4186
     25 F           2.2585    3.4464   39.2157 F       1  UNL1       -0.1659
     26 F           4.0223    2.2682   39.1908 F       1  UNL1       -0.1659
     27 F           1.8790    2.9209   37.1959 F       1  UNL1       -0.1659
     28 C           6.2130   -2.9151   27.4261 C.3     1  UNL1        0.1934
     29 N           5.1912   -1.9703   26.8663 N.ar    1  UNL1       -0.2972
     30 C           4.2584   -1.2422   27.7881 C.ar    1  UNL1        0.0888
     31 C           3.2366   -0.2974   27.2282 C.ar    1  UNL1        0.1005
     32 C           3.1477   -0.0808   25.7466 C.ar    1  UNL1        0.2880
     33 O           2.1260    0.8640   25.1867 O.2     1  UNL1       -0.2645
     34 N           4.0806   -0.8089   24.8248 N.ar    1  UNL1       -0.1840
     35 C           5.1023   -1.7537   25.3847 C.ar    1  UNL1        0.1751
     36 S           2.3038    0.4307   28.1500 S.3     1  UNL1       -0.1066
     37 C           1.2068   -0.3155   28.8498 C.3     1  UNL1        0.0744
     38 S           6.0351   -2.4818   24.4630 S.3     1  UNL1       -0.0724
     39 C           5.5118   -3.5687   23.5714 C.3     1  UNL1        0.0913
     40 C           5.4029   -3.3388   22.0932 C.ar    1  UNL1       -0.0108
     41 C           4.1215   -2.8253   21.5064 C.ar    1  UNL1       -0.0011
     42 C           4.0126   -2.5953   20.0281 C.ar    1  UNL1        0.0293
     43 C           5.1851   -2.8790   19.1366 C.ar    1  UNL1        0.1401
     44 F           5.0762   -2.6491   17.6584 F       1  UNL1       -0.2042
     45 C           6.4665   -3.3926   19.7234 C.ar    1  UNL1        0.0293
     46 C           6.5754   -3.6225   21.2016 C.ar    1  UNL1       -0.0011
@<TRIPOS>BOND
     1     7     8    1
     2     8     6    1
     3     6     9    1
     4     9    10    1
     5     6     5    1
     6     5     4    1
     7     4     1    1
     8     1    11    1
     9    11    12    1
    10    12    13   ar
    11    13    14   ar
    12    14    15   ar
    13    15    18    1
    14    18    19   ar
    15    19    20   ar
    16    20    21   ar
    17    21    24    1
    18    24    25    1
    19    24    26    1
    20    24    27    1
    21    21    22   ar
    22    22    23   ar
    23    15    16   ar
    24    16    17   ar
    25     1     2   am
    26     2     3    2
    27     2    28    1
    28    28    29    1
    29    29    30   ar
    30    30    31   ar
    31    31    36    1
    32    36    37    1
    33    31    32   ar
    34    32    33    2
    35    32    34   ar
    36    34    35   ar
    37    35    38    1
    38    38    39    1
    39    39    40    1
    40    40    41   ar
    41    41    42   ar
    42    42    43   ar
    43    43    44    1
    44    43    45   ar
    45    45    46   ar
    46    17    12   ar
    47    35    29   ar
    48    46    40   ar
    49    23    18   ar
@<TRIPOS>MOLECULE
*****
 46 49 0 0 0
SMALL
GASTEIGER

@<TRIPOS>ATOM
      1 N           3.4191    0.4287   26.4925 N.am    1  UNL1       -0.2724
      2 C           3.9368   -0.2969   25.2860 C.2     1  UNL1        0.2491
      3 O           4.0990    0.4317   23.9849 O.2     1  UNL1       -0.2727
      4 C           3.2569   -0.3000   27.7936 C.3     1  UNL1        0.1111
      5 C           1.8892   -0.4989   28.3763 C.3     1  UNL1        0.0939
      6 N           1.2980    0.5458   29.2757 N.3     1  UNL1       -0.2712
      7 C          -1.1134    0.5843   28.3095 C.3     1  UNL1        0.0188
      8 C          -0.1859    0.6000   29.4882 C.3     1  UNL1        0.0722
      9 C           2.1907    1.5363   29.9627 C.3     1  UNL1        0.0722
     10 C           1.6462    2.4013   31.0607 C.3     1  UNL1        0.0188
     11 C           3.0637    1.8828   26.3979 C.3     1  UNL1        0.1202
     12 C           1.6427    2.2929   26.1472 C.ar    1  UNL1       -0.0023
     13 C           1.0268    3.3962   26.9554 C.ar    1  UNL1       -0.0026
     14 C          -0.3941    3.8062   26.7047 C.ar    1  UNL1       -0.0003
     15 C          -1.1991    3.1128   25.6459 C.ar    1  UNL1       -0.0000
     16 C          -0.5832    2.0095   24.8377 C.ar    1  UNL1       -0.0003
     17 C           0.8377    1.5995   25.0884 C.ar    1  UNL1       -0.0026
     18 C          -2.6201    3.5228   25.3952 C.ar    1  UNL1       -0.0000
     19 C          -3.4688    4.0181   26.5285 C.ar    1  UNL1       -0.0001
     20 C          -4.8898    4.4281   26.2778 C.ar    1  UNL1        0.0039
     21 C          -5.4620    4.3429   24.8939 C.ar    1  UNL1        0.0714
     22 C          -4.6132    3.8475   23.7606 C.ar    1  UNL1        0.0039
     23 C          -3.1923    3.4375   24.0113 C.ar    1  UNL1       -0.0001
     24 C          -6.8829    4.7528   24.6432 C.3     1  UNL1        0.4186
     25 F          -8.3038    5.1628   24.3925 F       1  UNL1       -0.1659
     26 F          -6.8806    3.9760   23.3601 F       1  UNL1       -0.1659
     27 F          -6.8851    5.5297   25.9263 F       1  UNL1       -0.1659
     28 C           4.2922   -1.7512   25.3806 C.3     1  UNL1        0.1934
     29 N           4.9648   -2.4354   24.2276 N.ar    1  UNL1       -0.2972
     30 C           4.3280   -2.4170   22.8695 C.ar    1  UNL1        0.0888
     31 C           5.0005   -3.1012   21.7165 C.ar    1  UNL1        0.1005
     32 C           6.3098   -3.8040   21.9215 C.ar    1  UNL1        0.2880
     33 O           6.9823   -4.4882   20.7685 O.2     1  UNL1       -0.2645
     34 N           6.9465   -3.8224   23.2795 N.ar    1  UNL1       -0.1840
     35 C           6.2740   -3.1381   24.4325 C.ar    1  UNL1        0.1751
     36 S           4.3638   -3.0828   20.3585 S.3     1  UNL1       -0.1066
     37 C           3.7488   -4.3325   19.8014 C.3     1  UNL1        0.0744
     38 S           6.9107   -3.1566   25.7905 S.3     1  UNL1       -0.0724
     39 C           6.8515   -4.3984   26.6299 C.3     1  UNL1        0.0913
     40 C           6.7822   -4.2909   28.1244 C.ar    1  UNL1       -0.0108
     41 C           6.5441   -2.9581   28.7702 C.ar    1  UNL1       -0.0011
     42 C           6.4748   -2.8506   30.2648 C.ar    1  UNL1        0.0293
     43 C           6.6436   -4.0758   31.1135 C.ar    1  UNL1        0.1401
     44 F           6.5743   -3.9682   32.6080 F       1  UNL1       -0.2042
     45 C           6.8817   -5.4086   30.4676 C.ar    1  UNL1        0.0293
     46 C           6.9510   -5.5161   28.9731 C.ar    1  UNL1       -0.0011
@<TRIPOS>BOND
     1     7     8    1
     2     8     6    1
     3     6     9    1
     4     9    10    1
     5     6     5    1
     6     5     4    1
     7     4     1    1
     8     1    11    1
     9    11    12    1
    10    12    13   ar
    11    13    14   ar
    12    14    15   ar
    13    15    18    1
    14    18    19   ar
    15    19    20   ar
    16    20    21   ar
    17    21    24    1
    18    24    25    1
    19    24    26    1
    20    24    27    1
    21    21    22   ar
    22    22    23   ar
    23    15    16   ar
    24    16    17   ar
    25     1     2   am
    26     2     3    2
    27     2    28    1
    28    28    29    1
    29    29    30   ar
    30    30    31   ar
    31    31    36    1
    32    36    37    1
    33    31    32   ar
    34    32    33    2
    35    32    34   ar
    36    34    35   ar
    37    35    38    1
    38    38    39    1
    39    39    40    1
    40    40    41   ar
    41    41    42   ar
    42    42    43   ar
    43    43    44    1
    44    43    45   ar
    45    45    46   ar
    46    17    12   ar
    47    35    29   ar
    48    46    40   ar
    49    23    18   ar
@<TRIPOS>MOLECULE
*****
 46 49 0 0 0
SMALL
GASTEIGER

@<TRIPOS>ATOM
      1 N           6.5130   -3.0376   29.7586 N.am    1  UNL1       -0.2724
      2 C           6.5166   -4.0452   28.6473 C.2     1  UNL1        0.2491
      3 O           6.5908   -5.5097   28.9631 O.2     1  UNL1       -0.2727
      4 C           6.4387   -1.5731   29.4428 C.3     1  UNL1        0.1111
      5 C           5.1165   -0.9406   29.1243 C.3     1  UNL1        0.0939
      6 N           4.3501   -0.2243   30.1964 N.3     1  UNL1       -0.2712
      7 C           1.8523   -0.3299   29.4892 C.3     1  UNL1        0.0188
      8 C           2.9317   -0.6132   30.4916 C.3     1  UNL1        0.0722
      9 C           5.0020    0.8807   30.9734 C.3     1  UNL1        0.0722
     10 C           4.2254    1.6184   32.0237 C.3     1  UNL1        0.0188
     11 C           6.5836   -3.4946   31.1855 C.3     1  UNL1        0.1202
     12 C           6.2728   -2.5356   32.2964 C.ar    1  UNL1       -0.0023
     13 C           4.9024   -2.5125   32.9057 C.ar    1  UNL1       -0.0026
     14 C           4.5917   -1.5536   34.0165 C.ar    1  UNL1       -0.0003
     15 C           5.6514   -0.6179   34.5180 C.ar    1  UNL1       -0.0000
     16 C           7.0218   -0.6410   33.9086 C.ar    1  UNL1       -0.0003
     17 C           7.3325   -1.5999   32.7978 C.ar    1  UNL1       -0.0026
     18 C           5.3406    0.3411   35.6288 C.ar    1  UNL1       -0.0000
     19 C           6.0360    1.6687   35.6901 C.ar    1  UNL1       -0.0001
     20 C           5.7252    2.6276   36.8010 C.ar    1  UNL1        0.0039
     21 C           4.7190    2.2588   37.8505 C.ar    1  UNL1        0.0714
     22 C           4.0236    0.9311   37.7892 C.ar    1  UNL1        0.0039
     23 C           4.3344   -0.0277   36.6784 C.ar    1  UNL1       -0.0001
     24 C           4.4082    3.2177   38.9614 C.3     1  UNL1        0.4186
     25 F           4.0974    4.1765   40.0722 F       1  UNL1       -0.1659
     26 F           3.3140    3.8228   38.1328 F       1  UNL1       -0.1659
     27 F           5.5024    2.6125   39.7899 F       1  UNL1       -0.1659
     28 C           6.4460   -3.5882   27.2203 C.3     1  UNL1        0.1934
     29 N           6.9585   -4.4733   26.1231 N.ar    1  UNL1       -0.2972
     30 C           7.6583   -5.7567   26.4600 C.ar    1  UNL1        0.0888
     31 C           8.1709   -6.6418   25.3628 C.ar    1  UNL1        0.1005
     32 C           7.9837   -6.2435   23.9288 C.ar    1  UNL1        0.2880
     33 O           8.4963   -7.1287   22.8316 O.2     1  UNL1       -0.2645
     34 N           7.2839   -4.9603   23.5920 N.ar    1  UNL1       -0.1840
     35 C           6.7713   -4.0751   24.6892 C.ar    1  UNL1        0.1751
     36 S           8.8706   -7.9251   25.6996 S.3     1  UNL1       -0.1066
     37 C           8.5895   -8.6131   27.0026 C.3     1  UNL1        0.0744
     38 S           6.0716   -2.7919   24.3524 S.3     1  UNL1       -0.0724
     39 C           4.6649   -2.8188   23.8320 C.3     1  UNL1        0.0913
     40 C           4.4047   -2.6491   22.3646 C.ar    1  UNL1       -0.0108
     41 C           3.8657   -1.3498   21.8438 C.ar    1  UNL1       -0.0011
     42 C           3.6055   -1.1801   20.3763 C.ar    1  UNL1        0.0293
     43 C           3.8843   -2.3097   19.4296 C.ar    1  UNL1        0.1401
     44 F           3.6241   -2.1400   17.9621 F       1  UNL1       -0.2042
     45 C           4.4233   -3.6091   19.9504 C.ar    1  UNL1        0.0293
     46 C           4.6835   -3.7787   21.4179 C.ar    1  UNL1       -0.0011
@<TRIPOS>BOND
     1     7     8    1
     2     8     6    1
     3     6     9    1
     4     9    10    1
     5     6     5    1
     6     5     4    1
     7     4     1    1
     8     1    11    1
     9    11    12    1
    10    12    13   ar
    11    13    14   ar
    12    14    15   ar
    13    15    18    1
    14    18    19   ar
    15    19    20   ar
    16    20    21   ar
    17    21    24    1
    18    24    25    1
    19    24    26    1
    20    24    27    1
    21    21    22   ar
    22    22    23   ar
    23    15    16   ar
    24    16    17   ar
    25     1     2   am
    26     2     3    2
    27     2    28    1
    28    28    29    1
    29    29    30   ar
    30    30    31   ar
    31    31    36    1
    32    36    37    1
    33    31    32   ar
    34    32    33    2
    35    32    34   ar
    36    34    35   ar
    37    35    38    1
    38    38    39    1
    39    39    40    1
    40    40    41   ar
    41    41    42   ar
    42    42    43   ar
    43    43    44    1
    44    43    45   ar
    45    45    46   ar
    46    17    12   ar
    47    35    29   ar
    48    46    40   ar
    49    23    18   ar
@<TRIPOS>MOLECULE
*****
 46 49 0 0 0
SMALL
GASTEIGER

@<TRIPOS>ATOM
      1 N           3.7504   -0.0973   29.5759 N.am    1  UNL1       -0.2724
      2 C           4.1054   -0.9776   28.4144 C.2     1  UNL1        0.2491
      3 O           3.0246   -1.6841   27.6511 O.2     1  UNL1       -0.2727
      4 C           4.8312    0.6093   30.3393 C.3     1  UNL1        0.1111
      5 C           4.4709    1.5984   31.4078 C.3     1  UNL1        0.0939
      6 N           4.0512    1.1169   32.7649 N.3     1  UNL1       -0.2712
      7 C           4.2959   -1.2064   33.9019 C.3     1  UNL1        0.0188
      8 C           4.8892    0.1100   33.4958 C.3     1  UNL1        0.0722
      9 C           2.7935    1.6421   33.3913 C.3     1  UNL1        0.0722
     10 C           2.8162    2.1595   34.7991 C.3     1  UNL1        0.0188
     11 C           2.3147    0.0765   29.9741 C.3     1  UNL1        0.1202
     12 C           1.3538    0.7508   29.0403 C.ar    1  UNL1       -0.0023
     13 C           1.7736    1.9810   28.2918 C.ar    1  UNL1       -0.0026
     14 C           0.8127    2.6553   27.3581 C.ar    1  UNL1       -0.0003
     15 C          -0.5681    2.0993   27.1728 C.ar    1  UNL1       -0.0000
     16 C          -0.9879    0.8691   27.9212 C.ar    1  UNL1       -0.0003
     17 C          -0.0270    0.1949   28.8550 C.ar    1  UNL1       -0.0026
     18 C          -1.5290    2.7737   26.2390 C.ar    1  UNL1       -0.0000
     19 C          -2.8254    3.3182   26.7614 C.ar    1  UNL1       -0.0001
     20 C          -3.7863    3.9925   25.8276 C.ar    1  UNL1        0.0039
     21 C          -3.4508    4.1223   24.3713 C.ar    1  UNL1        0.0714
     22 C          -2.1544    3.5778   23.8489 C.ar    1  UNL1        0.0039
     23 C          -1.1936    2.9035   24.7827 C.ar    1  UNL1       -0.0001
     24 C          -4.4117    4.7966   23.4375 C.3     1  UNL1        0.4186
     25 F          -5.3726    5.4709   22.5037 F       1  UNL1       -0.1659
     26 F          -4.7522    3.4686   22.8290 F       1  UNL1       -0.1659
     27 F          -4.0712    6.1246   24.0461 F       1  UNL1       -0.1659
     28 C           5.5412   -1.1513   28.0163 C.3     1  UNL1        0.1934
     29 N           6.0340   -2.4898   27.5520 N.ar    1  UNL1       -0.2972
     30 C           6.4885   -3.5102   28.5532 C.ar    1  UNL1        0.0888
     31 C           6.9814   -4.8487   28.0889 C.ar    1  UNL1        0.1005
     32 C           7.0196   -5.1668   26.6234 C.ar    1  UNL1        0.2880
     33 O           7.5125   -6.5053   26.1591 O.2     1  UNL1       -0.2645
     34 N           6.5651   -4.1464   25.6224 N.ar    1  UNL1       -0.1840
     35 C           6.0723   -2.8079   26.0867 C.ar    1  UNL1        0.1751
     36 S           7.4359   -5.8691   29.0899 S.3     1  UNL1       -0.1066
     37 C           7.3928   -5.5529   30.5557 C.3     1  UNL1        0.0744
     38 S           5.6177   -1.7875   25.0856 S.3     1  UNL1       -0.0724
     39 C           4.5827   -2.1501   24.0622 C.3     1  UNL1        0.0913
     40 C           3.5879   -1.1245   23.6056 C.ar    1  UNL1       -0.0108
     41 C           2.9339   -0.2171   24.6051 C.ar    1  UNL1       -0.0011
     42 C           1.9391    0.8086   24.1485 C.ar    1  UNL1        0.0293
     43 C           1.5984    0.9269   22.6925 C.ar    1  UNL1        0.1401
     44 F           0.6036    1.9525   22.2359 F       1  UNL1       -0.2042
     45 C           2.2524    0.0194   21.6931 C.ar    1  UNL1        0.0293
     46 C           3.2472   -1.0062   22.1496 C.ar    1  UNL1       -0.0011
@<TRIPOS>BOND
     1     7     8    1
     2     8     6    1
     3     6     9    1
     4     9    10    1
     5     6     5    1
     6     5     4    1
     7     4     1    1
     8     1    11    1
     9    11    12    1
    10    12    13   ar
    11    13    14   ar
    12    14    15   ar
    13    15    18    1
    14    18    19   ar
    15    19    20   ar
    16    20    21   ar
    17    21    24    1
    18    24    25    1
    19    24    26    1
    20    24    27    1
    21    21    22   ar
    22    22    23   ar
    23    15    16   ar
    24    16    17   ar
    25     1     2   am
    26     2     3    2
    27     2    28    1
    28    28    29    1
    29    29    30   ar
    30    30    31   ar
    31    31    36    1
    32    36    37    1
    33    31    32   ar
    34    32    33    2
    35    32    34   ar
    36    34    35   ar
    37    35    38    1
    38    38    39    1
    39    39    40    1
    40    40    41   ar
    41    41    42   ar
    42    42    43   ar
    43    43    44    1
    44    43    45   ar
    45    45    46   ar
    46    17    12   ar
    47    35    29   ar
    48    46    40   ar
    49    23    18   ar
@<TRIPOS>MOLECULE
*****
 46 49 0 0 0
SMALL
GASTEIGER

@<TRIPOS>ATOM
      1 N           2.8006    0.5974   27.2894 N.am    1  UNL1       -0.2724
      2 C           3.9488   -0.0147   26.5431 C.2     1  UNL1        0.2491
      3 O           4.7698    0.8250   25.6100 O.2     1  UNL1       -0.2727
      4 C           1.9795   -0.2424   28.2226 C.3     1  UNL1        0.1111
      5 C           1.7203    0.2277   29.6232 C.3     1  UNL1        0.0939
      6 N           0.4372    0.9312   29.9527 N.3     1  UNL1       -0.2712
      7 C          -1.4206   -0.6103   28.9924 C.3     1  UNL1        0.0188
      8 C          -0.7692    0.7378   29.0825 C.3     1  UNL1        0.0722
      9 C           0.3605    1.8283   31.1525 C.3     1  UNL1        0.0722
     10 C           0.7245    3.2782   31.0294 C.3     1  UNL1        0.0188
     11 C           2.4734    2.0493   27.1026 C.3     1  UNL1        0.1202
     12 C           1.0834    2.4614   26.7176 C.ar    1  UNL1       -0.0023
     13 C           0.3730    1.7534   25.6023 C.ar    1  UNL1       -0.0026
     14 C          -1.0169    2.1655   25.2173 C.ar    1  UNL1       -0.0003
     15 C          -1.6964    3.2857   25.9477 C.ar    1  UNL1       -0.0000
     16 C          -0.9860    3.9937   27.0630 C.ar    1  UNL1       -0.0003
     17 C           0.4039    3.5816   27.4480 C.ar    1  UNL1       -0.0026
     18 C          -3.0864    3.6978   25.5627 C.ar    1  UNL1       -0.0000
     19 C          -3.9443    4.4463   26.5392 C.ar    1  UNL1       -0.0001
     20 C          -5.3343    4.8584   26.1542 C.ar    1  UNL1        0.0039
     21 C          -5.8663    4.5220   24.7927 C.ar    1  UNL1        0.0714
     22 C          -5.0083    3.7735   23.8161 C.ar    1  UNL1        0.0039
     23 C          -3.6184    3.3614   24.2012 C.ar    1  UNL1       -0.0001
     24 C          -7.2562    4.9341   24.4076 C.3     1  UNL1        0.4186
     25 F          -8.6461    5.3462   24.0226 F       1  UNL1       -0.1659
     26 F          -7.2932    5.8894   25.5635 F       1  UNL1       -0.1659
     27 F          -7.2192    3.9788   23.2518 F       1  UNL1       -0.1659
     28 C           4.2759   -1.4667   26.7300 C.3     1  UNL1        0.1934
     29 N           5.5909   -2.0069   26.2513 N.ar    1  UNL1       -0.2972
     30 C           6.7462   -2.1190   27.2015 C.ar    1  UNL1        0.0888
     31 C           8.0612   -2.6591   26.7228 C.ar    1  UNL1        0.1005
     32 C           8.2208   -3.0871   25.2940 C.ar    1  UNL1        0.2880
     33 O           9.5357   -3.6273   24.8153 O.2     1  UNL1       -0.2645
     34 N           7.0655   -2.9750   24.3440 N.ar    1  UNL1       -0.1840
     35 C           5.7505   -2.4349   24.8226 C.ar    1  UNL1        0.1751
     36 S           9.2165   -2.7713   27.6729 S.3     1  UNL1       -0.1066
     37 C           9.4561   -4.0530   28.4144 C.3     1  UNL1        0.0744
     38 S           4.5952   -2.3227   23.8726 S.3     1  UNL1       -0.0724
     39 C           4.8292   -2.4105   22.3935 C.3     1  UNL1        0.0913
     40 C           3.8945   -1.7214   21.4441 C.ar    1  UNL1       -0.0108
     41 C           4.0766   -1.8815   19.9638 C.ar    1  UNL1       -0.0011
     42 C           3.1418   -1.1924   19.0143 C.ar    1  UNL1        0.0293
     43 C           2.0251   -0.3432   19.5452 C.ar    1  UNL1        0.1401
     44 F           1.0904    0.3459   18.5958 F       1  UNL1       -0.2042
     45 C           1.8431   -0.1831   21.0255 C.ar    1  UNL1        0.0293
     46 C           2.7778   -0.8723   21.9749 C.ar    1  UNL1       -0.0011
@<TRIPOS>BOND
     1     7     8    1
     2     8     6    1
     3     6     9    1
     4     9    10    1
     5     6     5    1
     6     5     4    1
     7     4     1    1
     8     1    11    1
     9    11    12    1
    10    12    13   ar
    11    13    14   ar
    12    14    15   ar
    13    15    18    1
    14    18    19   ar
    15    19    20   ar
    16    20    21   ar
    17    21    24    1
    18    24    25    1
    19    24    26    1
    20    24    27    1
    21    21    22   ar
    22    22    23   ar
    23    15    16   ar
    24    16    17   ar
    25     1     2   am
    26     2     3    2
    27     2    28    1
    28    28    29    1
    29    29    30   ar
    30    30    31   ar
    31    31    36    1
    32    36    37    1
    33    31    32   ar
    34    32    33    2
    35    32    34   ar
    36    34    35   ar
    37    35    38    1
    38    38    39    1
    39    39    40    1
    40    40    41   ar
    41    41    42   ar
    42    42    43   ar
    43    43    44    1
    44    43    45   ar
    45    45    46   ar
    46    17    12   ar
    47    35    29   ar
    48    46    40   ar
    49    23    18   ar
