@<TRIPOS>MOLECULE
*****
 25 27 0 0 0
SMALL
GASTEIGER

@<TRIPOS>ATOM
      1 C          -9.8777  -17.8164   22.0150 C.ar    1  UNL1        0.1075
      2 C         -10.4894  -17.3838   23.3145 C.ar    1  UNL1        0.1278
      3 N         -11.9810  -17.4346   23.1643 N.ar    1  UNL1       -0.0772
      4 O         -12.2912  -17.8986   21.7720 O.2     1  UNL1       -0.3576
      5 C         -10.9913  -18.1346   21.0617 C.ar    1  UNL1        0.1591
      6 C         -10.8328  -18.6059   19.6465 C.3     1  UNL1        0.0755
      7 C          -9.7410  -16.9726   24.5476 C.ar    1  UNL1        0.0316
      8 C          -9.1463  -15.5986   24.6409 C.ar    1  UNL1        0.0024
      9 C          -8.3978  -15.1874   25.8740 C.ar    1  UNL1        0.0001
     10 C          -8.2440  -16.1501   27.0140 C.ar    1  UNL1        0.0009
     11 C          -8.8386  -17.5241   26.9208 C.ar    1  UNL1        0.0114
     12 C          -9.5871  -17.9352   25.6876 C.ar    1  UNL1        0.0592
     13 CL        -10.1818  -19.3092   25.5944 Cl      1  UNL1       -0.0822
     14 N          -7.6549  -19.1600   22.0760 N.am    1  UNL1       -0.2533
     15 C          -8.3672  -20.3089   22.7260 C.3     1  UNL1        0.1203
     16 C          -8.4101  -17.9138   21.7205 C.2     1  UNL1        0.2571
     17 O          -7.6978  -16.7648   21.0704 O.2     1  UNL1       -0.2694
     18 C          -1.7845  -19.5494   20.8981 C.3     1  UNL1        0.0319
     19 C          -3.2521  -19.4521   21.1926 C.ar    1  UNL1       -0.0112
     20 C          -4.2364  -20.2203   20.3614 C.ar    1  UNL1       -0.0021
     21 C          -5.7040  -20.1230   20.6559 C.ar    1  UNL1        0.0146
     22 C          -6.1873  -19.2573   21.7815 C.ar    1  UNL1        0.0550
     23 C          -5.2030  -18.4891   22.6127 C.ar    1  UNL1        0.0260
     24 C          -3.7354  -18.5864   22.3182 C.ar    1  UNL1        0.0549
     25 CL         -2.7511  -17.8181   23.1494 Cl      1  UNL1       -0.0825
@<TRIPOS>BOND
     1    18    19    1
     2    19    20   ar
     3    20    21   ar
     4    21    22   ar
     5    22    14    1
     6    14    15    1
     7    14    16   am
     8    16    17    2
     9    16     1    1
    10     1     2   ar
    11     2     7    1
    12     7     8   ar
    13     8     9   ar
    14     9    10   ar
    15    10    11   ar
    16    11    12   ar
    17    12    13    1
    18     2     3   ar
    19     3     4   ar
    20     4     5   ar
    21     5     6    1
    22    22    23   ar
    23    23    24   ar
    24    24    25    1
    25    24    19   ar
    26     5     1   ar
    27    12     7   ar
@<TRIPOS>MOLECULE
*****
 25 27 0 0 0
SMALL
GASTEIGER

@<TRIPOS>ATOM
      1 C          -9.6694  -18.2167   22.4071 C.ar    1  UNL1        0.1075
      2 C         -10.2009  -17.6923   23.7081 C.ar    1  UNL1        0.1278
      3 N         -11.6858  -17.9045   23.7213 N.ar    1  UNL1       -0.0772
      4 O         -12.0719  -18.5600   22.4285 O.2     1  UNL1       -0.3576
      5 C         -10.8257  -18.7529   21.6163 C.ar    1  UNL1        0.1591
      6 C         -10.7492  -19.3732   20.2527 C.3     1  UNL1        0.0755
      7 C          -9.3901  -17.0658   24.8035 C.ar    1  UNL1        0.0316
      8 C          -9.3133  -17.7231   26.1497 C.ar    1  UNL1        0.0024
      9 C          -8.5024  -17.0966   27.2451 C.ar    1  UNL1        0.0001
     10 C          -7.7682  -15.8128   26.9943 C.ar    1  UNL1        0.0009
     11 C          -7.8449  -15.1555   25.6482 C.ar    1  UNL1        0.0114
     12 C          -8.6558  -15.7821   24.5528 C.ar    1  UNL1        0.0592
     13 CL         -8.7326  -15.1248   23.2066 Cl      1  UNL1       -0.0822
     14 N          -7.3577  -19.3922   22.2508 N.am    1  UNL1       -0.2533
     15 C          -7.9177  -20.5879   22.9625 C.3     1  UNL1        0.1203
     16 C          -8.2335  -18.2065   21.9731 C.2     1  UNL1        0.2571
     17 O          -7.6736  -17.0107   21.2614 O.2     1  UNL1       -0.2694
     18 C          -1.6144  -19.3516   20.5150 C.3     1  UNL1        0.0319
     19 C          -3.0503  -19.3618   20.9489 C.ar    1  UNL1       -0.0112
     20 C          -4.0643  -20.1440   20.1681 C.ar    1  UNL1       -0.0021
     21 C          -5.5001  -20.1542   20.6021 C.ar    1  UNL1        0.0146
     22 C          -5.9219  -19.3820   21.8169 C.ar    1  UNL1        0.0550
     23 C          -4.9079  -18.5998   22.5977 C.ar    1  UNL1        0.0260
     24 C          -3.4721  -18.5896   22.1638 C.ar    1  UNL1        0.0549
     25 CL         -2.4580  -17.8073   22.9447 Cl      1  UNL1       -0.0825
@<TRIPOS>BOND
     1    18    19    1
     2    19    20   ar
     3    20    21   ar
     4    21    22   ar
     5    22    14    1
     6    14    15    1
     7    14    16   am
     8    16    17    2
     9    16     1    1
    10     1     2   ar
    11     2     7    1
    12     7     8   ar
    13     8     9   ar
    14     9    10   ar
    15    10    11   ar
    16    11    12   ar
    17    12    13    1
    18     2     3   ar
    19     3     4   ar
    20     4     5   ar
    21     5     6    1
    22    22    23   ar
    23    23    24   ar
    24    24    25    1
    25    24    19   ar
    26     5     1   ar
    27    12     7   ar
@<TRIPOS>MOLECULE
*****
 25 27 0 0 0
SMALL
GASTEIGER

@<TRIPOS>ATOM
      1 C          -9.1506  -18.5229   21.7136 C.ar    1  UNL1        0.1075
      2 C          -9.9947  -18.2190   22.9159 C.ar    1  UNL1        0.1278
      3 N         -11.3773  -18.7390   22.6549 N.ar    1  UNL1       -0.0772
      4 O         -11.3878  -19.3642   21.2914 O.2     1  UNL1       -0.3576
      5 C         -10.0116  -19.2306   20.7097 C.ar    1  UNL1        0.1591
      6 C          -9.5734  -19.7190   19.3608 C.3     1  UNL1        0.0755
      7 C          -9.5365  -17.5184   24.1605 C.ar    1  UNL1        0.0316
      8 C          -9.0593  -16.0980   24.0891 C.ar    1  UNL1        0.0024
      9 C          -8.6012  -15.3973   25.3337 C.ar    1  UNL1        0.0001
     10 C          -8.6202  -16.1169   26.6497 C.ar    1  UNL1        0.0009
     11 C          -9.0974  -17.5371   26.7212 C.ar    1  UNL1        0.0114
     12 C          -9.5556  -18.2378   25.4765 C.ar    1  UNL1        0.0592
     13 CL        -10.0328  -19.6582   25.5479 Cl      1  UNL1       -0.0822
     14 N          -6.6519  -19.2339   21.7419 N.am    1  UNL1       -0.2533
     15 C          -7.0539  -20.6320   22.1075 C.3     1  UNL1        0.1203
     16 C          -7.7003  -18.1794   21.5450 C.2     1  UNL1        0.2571
     17 O          -7.2983  -16.7812   21.1794 O.2     1  UNL1       -0.2694
     18 C          -0.8505  -17.8598   21.0672 C.3     1  UNL1        0.0319
     19 C          -2.3009  -18.2033   21.2359 C.ar    1  UNL1       -0.0112
     20 C          -2.9355  -18.1324   22.5931 C.ar    1  UNL1       -0.0021
     21 C          -4.3858  -18.4759   22.7618 C.ar    1  UNL1        0.0146
     22 C          -5.2016  -18.8904   21.5732 C.ar    1  UNL1        0.0550
     23 C          -4.5669  -18.9613   20.2160 C.ar    1  UNL1        0.0260
     24 C          -3.1166  -18.6178   20.0473 C.ar    1  UNL1        0.0549
     25 CL         -2.4819  -18.6887   18.6900 Cl      1  UNL1       -0.0825
@<TRIPOS>BOND
     1    18    19    1
     2    19    20   ar
     3    20    21   ar
     4    21    22   ar
     5    22    14    1
     6    14    15    1
     7    14    16   am
     8    16    17    2
     9    16     1    1
    10     1     2   ar
    11     2     7    1
    12     7     8   ar
    13     8     9   ar
    14     9    10   ar
    15    10    11   ar
    16    11    12   ar
    17    12    13    1
    18     2     3   ar
    19     3     4   ar
    20     4     5   ar
    21     5     6    1
    22    22    23   ar
    23    23    24   ar
    24    24    25    1
    25    24    19   ar
    26     5     1   ar
    27    12     7   ar
@<TRIPOS>MOLECULE
*****
 25 27 0 0 0
SMALL
GASTEIGER

@<TRIPOS>ATOM
      1 C         -12.8046   -3.4513   18.6087 C.ar    1  UNL1        0.1075
      2 C         -11.4538   -3.8914   18.1270 C.ar    1  UNL1        0.1278
      3 N         -10.7064   -2.6745   17.6679 N.ar    1  UNL1       -0.0772
      4 O         -11.5952   -1.4825   17.8658 O.2     1  UNL1       -0.3576
      5 C         -12.8919   -1.9626   18.4473 C.ar    1  UNL1        0.1591
      6 C         -14.0693   -1.1046   18.8046 C.3     1  UNL1        0.0755
      7 C         -10.9407   -5.3006   18.1078 C.ar    1  UNL1        0.0316
      8 C          -9.9294   -5.7445   19.1230 C.ar    1  UNL1        0.0024
      9 C          -9.4163   -7.1539   19.1038 C.ar    1  UNL1        0.0001
     10 C          -9.9142   -8.1194   18.0694 C.ar    1  UNL1        0.0009
     11 C         -10.9254   -7.6756   17.0543 C.ar    1  UNL1        0.0114
     12 C         -11.4386   -6.2662   17.0735 C.ar    1  UNL1        0.0592
     13 CL        -12.4498   -5.8223   16.0583 Cl      1  UNL1       -0.0822
     14 N         -15.0724   -4.6840   18.3130 N.am    1  UNL1       -0.2533
     15 C         -15.1909   -4.1325   16.9232 C.3     1  UNL1        0.1203
     16 C         -13.8792   -4.3434   19.1558 C.2     1  UNL1        0.2571
     17 O         -13.7606   -4.8950   20.5457 O.2     1  UNL1       -0.2694
     18 C         -19.3710   -8.2524   20.5013 C.3     1  UNL1        0.0319
     19 C         -18.2963   -7.3603   19.9542 C.ar    1  UNL1       -0.0112
     20 C         -18.6043   -5.9295   19.6261 C.ar    1  UNL1       -0.0021
     21 C         -17.5297   -5.0374   19.0790 C.ar    1  UNL1        0.0146
     22 C         -16.1470   -5.5761   18.8601 C.ar    1  UNL1        0.0550
     23 C         -15.8390   -7.0070   19.1882 C.ar    1  UNL1        0.0260
     24 C         -16.9137   -7.8991   19.7353 C.ar    1  UNL1        0.0549
     25 CL        -16.6056   -9.3300   20.0634 Cl      1  UNL1       -0.0825
@<TRIPOS>BOND
     1    18    19    1
     2    19    20   ar
     3    20    21   ar
     4    21    22   ar
     5    22    14    1
     6    14    15    1
     7    14    16   am
     8    16    17    2
     9    16     1    1
    10     1     2   ar
    11     2     7    1
    12     7     8   ar
    13     8     9   ar
    14     9    10   ar
    15    10    11   ar
    16    11    12   ar
    17    12    13    1
    18     2     3   ar
    19     3     4   ar
    20     4     5   ar
    21     5     6    1
    22    22    23   ar
    23    23    24   ar
    24    24    25    1
    25    24    19   ar
    26     5     1   ar
    27    12     7   ar
@<TRIPOS>MOLECULE
*****
 25 27 0 0 0
SMALL
GASTEIGER

@<TRIPOS>ATOM
      1 C         -11.8696   -5.2021   18.7791 C.ar    1  UNL1        0.1075
      2 C         -11.8499   -3.7082   18.6441 C.ar    1  UNL1        0.1278
      3 N         -10.4174   -3.2633   18.6273 N.ar    1  UNL1       -0.0772
      4 O          -9.5520   -4.4821   18.7518 O.2     1  UNL1       -0.3576
      5 C         -10.4495   -5.6803   18.8456 C.ar    1  UNL1        0.1591
      6 C         -10.0049   -7.1064   18.9820 C.3     1  UNL1        0.0755
      7 C         -13.0514   -2.8161   18.5437 C.ar    1  UNL1        0.0316
      8 C         -13.4173   -2.1960   17.2277 C.ar    1  UNL1        0.0024
      9 C         -14.6190   -1.3039   17.1273 C.ar    1  UNL1        0.0001
     10 C         -15.4547   -1.0317   18.3428 C.ar    1  UNL1        0.0009
     11 C         -15.0889   -1.6517   19.6587 C.ar    1  UNL1        0.0114
     12 C         -13.8873   -2.5439   19.7591 C.ar    1  UNL1        0.0592
     13 CL        -13.5214   -3.1639   21.0751 Cl      1  UNL1       -0.0822
     14 N         -13.5291   -6.8338   17.6242 N.am    1  UNL1       -0.2533
     15 C         -12.7387   -6.7378   16.3530 C.3     1  UNL1        0.1203
     16 C         -13.0945   -6.0660   18.8373 C.2     1  UNL1        0.2571
     17 O         -13.8849   -6.1620   20.1086 O.2     1  UNL1       -0.2694
     18 C         -18.4287  -10.2892   17.8570 C.3     1  UNL1        0.0319
     19 C         -17.2038   -9.4254   17.7988 C.ar    1  UNL1       -0.0112
     20 C         -15.8774   -9.9745   18.2336 C.ar    1  UNL1       -0.0021
     21 C         -14.6525   -9.1107   18.1754 C.ar    1  UNL1        0.0146
     22 C         -14.7540   -7.6977   17.6824 C.ar    1  UNL1        0.0550
     23 C         -16.0804   -7.1485   17.2476 C.ar    1  UNL1        0.0260
     24 C         -17.3053   -8.0124   17.3058 C.ar    1  UNL1        0.0549
     25 CL        -18.6317   -7.4632   16.8709 Cl      1  UNL1       -0.0825
@<TRIPOS>BOND
     1    18    19    1
     2    19    20   ar
     3    20    21   ar
     4    21    22   ar
     5    22    14    1
     6    14    15    1
     7    14    16   am
     8    16    17    2
     9    16     1    1
    10     1     2   ar
    11     2     7    1
    12     7     8   ar
    13     8     9   ar
    14     9    10   ar
    15    10    11   ar
    16    11    12   ar
    17    12    13    1
    18     2     3   ar
    19     3     4   ar
    20     4     5   ar
    21     5     6    1
    22    22    23   ar
    23    23    24   ar
    24    24    25    1
    25    24    19   ar
    26     5     1   ar
    27    12     7   ar
@<TRIPOS>MOLECULE
*****
 25 27 0 0 0
SMALL
GASTEIGER

@<TRIPOS>ATOM
      1 C          -8.4597  -18.8892   20.9291 C.ar    1  UNL1        0.1075
      2 C          -9.9211  -19.0454   20.6290 C.ar    1  UNL1        0.1278
      3 N         -10.0512  -19.6782   19.2752 N.ar    1  UNL1       -0.0772
      4 O          -8.6702  -19.9130   18.7386 O.2     1  UNL1       -0.3576
      5 C          -7.6867  -19.4254   19.7608 C.ar    1  UNL1        0.1591
      6 C          -6.1924  -19.4667   19.6364 C.3     1  UNL1        0.0755
      7 C         -11.0534  -18.6401   21.5252 C.ar    1  UNL1        0.0316
      8 C         -11.2122  -19.2837   22.8709 C.ar    1  UNL1        0.0024
      9 C         -12.3446  -18.8784   23.7672 C.ar    1  UNL1        0.0001
     10 C         -13.3183  -17.8295   23.3179 C.ar    1  UNL1        0.0009
     11 C         -13.1596  -17.1859   21.9724 C.ar    1  UNL1        0.0114
     12 C         -12.0271  -17.5913   21.0761 C.ar    1  UNL1        0.0592
     13 CL        -11.8684  -16.9477   19.7304 Cl      1  UNL1       -0.0822
     14 N          -8.0678  -16.8444   22.4831 N.am    1  UNL1       -0.2533
     15 C          -8.8469  -15.9776   21.5390 C.3     1  UNL1        0.1203
     16 C          -7.8742  -18.3002   22.1782 C.2     1  UNL1        0.2571
     17 O          -7.0950  -19.1671   23.1224 O.2     1  UNL1       -0.2694
     18 C          -5.7258  -14.4885   27.4796 C.3     1  UNL1        0.0319
     19 C          -6.3113  -15.0774   26.2305 C.ar    1  UNL1       -0.0112
     20 C          -5.4590  -15.2397   25.0069 C.ar    1  UNL1       -0.0021
     21 C          -6.0445  -15.8287   23.7578 C.ar    1  UNL1        0.0146
     22 C          -7.4823  -16.2554   23.7323 C.ar    1  UNL1        0.0550
     23 C          -8.3345  -16.0931   24.9559 C.ar    1  UNL1        0.0260
     24 C          -7.7490  -15.5041   26.2050 C.ar    1  UNL1        0.0549
     25 CL         -8.6014  -15.3418   27.4286 Cl      1  UNL1       -0.0825
@<TRIPOS>BOND
     1    18    19    1
     2    19    20   ar
     3    20    21   ar
     4    21    22   ar
     5    22    14    1
     6    14    15    1
     7    14    16   am
     8    16    17    2
     9    16     1    1
    10     1     2   ar
    11     2     7    1
    12     7     8   ar
    13     8     9   ar
    14     9    10   ar
    15    10    11   ar
    16    11    12   ar
    17    12    13    1
    18     2     3   ar
    19     3     4   ar
    20     4     5   ar
    21     5     6    1
    22    22    23   ar
    23    23    24   ar
    24    24    25    1
    25    24    19   ar
    26     5     1   ar
    27    12     7   ar
@<TRIPOS>MOLECULE
*****
 25 27 0 0 0
SMALL
GASTEIGER

@<TRIPOS>ATOM
      1 C          -8.3407  -19.0596   20.8652 C.ar    1  UNL1        0.1075
      2 C          -9.6289  -18.9176   20.1099 C.ar    1  UNL1        0.1278
      3 N          -9.4606  -19.5848   18.7770 N.ar    1  UNL1       -0.0772
      4 O          -8.0685  -20.1392   18.7086 O.2     1  UNL1       -0.3576
      5 C          -7.3764  -19.8145   19.9992 C.ar    1  UNL1        0.1591
      6 C          -5.9673  -20.1806   20.3603 C.3     1  UNL1        0.0755
      7 C         -10.8678  -18.2293   20.6012 C.ar    1  UNL1        0.0316
      8 C         -11.3424  -16.9725   19.9336 C.ar    1  UNL1        0.0024
      9 C         -12.5813  -16.2842   20.4249 C.ar    1  UNL1        0.0001
     10 C         -13.3456  -16.8526   21.5837 C.ar    1  UNL1        0.0009
     11 C         -12.8711  -18.1092   22.2512 C.ar    1  UNL1        0.0114
     12 C         -11.6322  -18.7975   21.7599 C.ar    1  UNL1        0.0592
     13 CL        -11.1576  -20.0543   22.4275 Cl      1  UNL1       -0.0822
     14 N          -8.0623  -17.0602   22.5008 N.am    1  UNL1       -0.2533
     15 C          -8.3348  -16.1038   21.3779 C.3     1  UNL1        0.1203
     16 C          -8.0653  -18.5381   22.2445 C.2     1  UNL1        0.2571
     17 O          -7.7928  -19.4947   23.3674 O.2     1  UNL1       -0.2694
     18 C          -6.9607  -14.9744   28.0177 C.3     1  UNL1        0.0319
     19 C          -7.2361  -15.4959   26.6384 C.ar    1  UNL1       -0.0112
     20 C          -8.5892  -16.0488   26.3020 C.ar    1  UNL1       -0.0021
     21 C          -8.8646  -16.5703   24.9228 C.ar    1  UNL1        0.0146
     22 C          -7.7869  -16.5388   23.8800 C.ar    1  UNL1        0.0550
     23 C          -6.4338  -15.9858   24.2164 C.ar    1  UNL1        0.0260
     24 C          -6.1584  -15.4644   25.5956 C.ar    1  UNL1        0.0549
     25 CL         -4.8051  -14.9114   25.9320 Cl      1  UNL1       -0.0825
@<TRIPOS>BOND
     1    18    19    1
     2    19    20   ar
     3    20    21   ar
     4    21    22   ar
     5    22    14    1
     6    14    15    1
     7    14    16   am
     8    16    17    2
     9    16     1    1
    10     1     2   ar
    11     2     7    1
    12     7     8   ar
    13     8     9   ar
    14     9    10   ar
    15    10    11   ar
    16    11    12   ar
    17    12    13    1
    18     2     3   ar
    19     3     4   ar
    20     4     5   ar
    21     5     6    1
    22    22    23   ar
    23    23    24   ar
    24    24    25    1
    25    24    19   ar
    26     5     1   ar
    27    12     7   ar
@<TRIPOS>MOLECULE
*****
 25 27 0 0 0
SMALL
GASTEIGER

@<TRIPOS>ATOM
      1 C          -8.6860  -18.4733   20.8314 C.ar    1  UNL1        0.1075
      2 C          -7.7422  -19.3135   20.0230 C.ar    1  UNL1        0.1278
      3 N          -8.5439  -20.0458   18.9880 N.ar    1  UNL1       -0.0772
      4 O          -9.9831  -19.6581   19.1567 O.2     1  UNL1       -0.3576
      5 C         -10.0709  -18.6862   20.2959 C.ar    1  UNL1        0.1591
      6 C         -11.3237  -18.0407   20.8095 C.3     1  UNL1        0.0755
      7 C          -6.2576  -19.4054   20.2159 C.ar    1  UNL1        0.0316
      8 C          -5.3319  -18.7435   19.2385 C.ar    1  UNL1        0.0024
      9 C          -3.8472  -18.8354   19.4314 C.ar    1  UNL1        0.0001
     10 C          -3.2881  -19.5891   20.6016 C.ar    1  UNL1        0.0009
     11 C          -4.2137  -20.2510   21.5789 C.ar    1  UNL1        0.0114
     12 C          -5.6984  -20.1591   21.3860 C.ar    1  UNL1        0.0592
     13 CL         -6.6241  -20.8210   22.3634 Cl      1  UNL1       -0.0822
     14 N          -8.5668  -18.0154   23.3860 N.am    1  UNL1       -0.2533
     15 C          -9.1981  -19.3493   23.6545 C.3     1  UNL1        0.1203
     16 C          -8.3108  -17.5774   21.9744 C.2     1  UNL1        0.2571
     17 O          -7.6795  -16.2434   21.7058 O.2     1  UNL1       -0.2694
     18 C          -7.0658  -14.4319   27.9582 C.3     1  UNL1        0.0319
     19 C          -7.4411  -15.3278   26.8151 C.ar    1  UNL1       -0.0112
     20 C          -8.7696  -16.0241   26.8128 C.ar    1  UNL1       -0.0021
     21 C          -9.1449  -16.9200   25.6698 C.ar    1  UNL1        0.0146
     22 C          -8.1916  -17.1195   24.5290 C.ar    1  UNL1        0.0550
     23 C          -6.8630  -16.4232   24.5313 C.ar    1  UNL1        0.0260
     24 C          -6.4878  -15.5273   25.6744 C.ar    1  UNL1        0.0549
     25 CL         -5.1591  -14.8310   25.6767 Cl      1  UNL1       -0.0825
@<TRIPOS>BOND
     1    18    19    1
     2    19    20   ar
     3    20    21   ar
     4    21    22   ar
     5    22    14    1
     6    14    15    1
     7    14    16   am
     8    16    17    2
     9    16     1    1
    10     1     2   ar
    11     2     7    1
    12     7     8   ar
    13     8     9   ar
    14     9    10   ar
    15    10    11   ar
    16    11    12   ar
    17    12    13    1
    18     2     3   ar
    19     3     4   ar
    20     4     5   ar
    21     5     6    1
    22    22    23   ar
    23    23    24   ar
    24    24    25    1
    25    24    19   ar
    26     5     1   ar
    27    12     7   ar
@<TRIPOS>MOLECULE
*****
 25 27 0 0 0
SMALL
GASTEIGER

@<TRIPOS>ATOM
      1 C         -12.3731   -3.9421   17.2250 C.ar    1  UNL1        0.1075
      2 C         -12.5892   -2.5068   17.6039 C.ar    1  UNL1        0.1278
      3 N         -11.3137   -1.7616   17.3432 N.ar    1  UNL1       -0.0772
      4 O         -10.3094   -2.7362   16.8033 O.2     1  UNL1       -0.3576
      5 C         -10.9641   -4.0838   16.7303 C.ar    1  UNL1        0.1591
      6 C         -10.3225   -5.3507   16.2473 C.3     1  UNL1        0.0755
      7 C         -13.8578   -1.9200   18.1478 C.ar    1  UNL1        0.0316
      8 C         -14.7499   -1.1063   17.2576 C.ar    1  UNL1        0.0024
      9 C         -16.0186   -0.5194   17.8015 C.ar    1  UNL1        0.0001
     10 C         -16.3954   -0.7461   19.2356 C.ar    1  UNL1        0.0009
     11 C         -15.5034   -1.5598   20.1258 C.ar    1  UNL1        0.0114
     12 C         -14.2347   -2.1466   19.5818 C.ar    1  UNL1        0.0592
     13 CL        -13.3427   -2.9603   20.4720 Cl      1  UNL1       -0.0822
     14 N         -13.2592   -6.0877   18.3916 N.am    1  UNL1       -0.2533
     15 C         -12.1159   -6.0328   19.3610 C.3     1  UNL1        0.1203
     16 C         -13.3878   -5.0424   17.3236 C.2     1  UNL1        0.2571
     17 O         -14.5311   -5.0973   16.3542 O.2     1  UNL1       -0.2694
     18 C         -17.3180  -10.4889   18.7861 C.3     1  UNL1        0.0319
     19 C         -16.3033   -9.3886   18.6875 C.ar    1  UNL1       -0.0112
     20 C         -15.0512   -9.5926   17.8872 C.ar    1  UNL1       -0.0021
     21 C         -14.0365   -8.4923   17.7886 C.ar    1  UNL1        0.0146
     22 C         -14.2739   -7.1880   18.4903 C.ar    1  UNL1        0.0550
     23 C         -15.5260   -6.9840   19.2905 C.ar    1  UNL1        0.0260
     24 C         -16.5407   -8.0843   19.3892 C.ar    1  UNL1        0.0549
     25 CL        -17.7929   -7.8802   20.1895 Cl      1  UNL1       -0.0825
@<TRIPOS>BOND
     1    18    19    1
     2    19    20   ar
     3    20    21   ar
     4    21    22   ar
     5    22    14    1
     6    14    15    1
     7    14    16   am
     8    16    17    2
     9    16     1    1
    10     1     2   ar
    11     2     7    1
    12     7     8   ar
    13     8     9   ar
    14     9    10   ar
    15    10    11   ar
    16    11    12   ar
    17    12    13    1
    18     2     3   ar
    19     3     4   ar
    20     4     5   ar
    21     5     6    1
    22    22    23   ar
    23    23    24   ar
    24    24    25    1
    25    24    19   ar
    26     5     1   ar
    27    12     7   ar
