@<TRIPOS>MOLECULE
*****
 56 61 0 0 0
SMALL
GASTEIGER

@<TRIPOS>ATOM
      1 C           4.8141   -1.8704   27.6307 C.3     1  UNL1        0.1269
      2 O           3.4345   -2.0015   27.0569 O.3     1  UNL1       -0.3830
      3 H           2.8776   -1.2783   27.3854 H       1  UNL1        0.2104
      4 C           5.8725   -2.8722   27.2753 C.3     1  UNL1        0.0401
      5 C           6.5670   -2.7907   25.9483 C.3     1  UNL1        0.0833
      6 O           6.4505   -0.8198   24.2594 O.2     1  UNL1       -0.2751
      7 C           5.8977   -2.1085   24.7921 C.2     1  UNL1        0.2226
      8 N           4.6756   -2.7150   24.1686 N.am    1  UNL1       -0.2999
      9 H           4.3128   -3.5608   24.5183 H       1  UNL1        0.1498
     10 C           4.0063   -2.0328   23.0125 C.3     1  UNL1        0.1278
     11 C           4.3170   -2.4589   21.6082 C.ar    1  UNL1        0.0320
     12 C           5.2969   -3.5671   21.3601 C.ar    1  UNL1        0.0004
     13 C           5.6075   -3.9931   19.9558 C.ar    1  UNL1       -0.0001
     14 C           4.9383   -3.3109   18.7997 C.ar    1  UNL1        0.0031
     15 C           3.9583   -2.2028   19.0478 C.ar    1  UNL1        0.0366
     16 C           3.6477   -1.7767   20.4521 C.ar    1  UNL1        0.1362
     17 O           2.6677   -0.6685   20.7002 O.3     1  UNL1       -0.4730
     18 C           2.3571   -0.2425   22.1045 C.3     1  UNL1        0.2364
     19 C           3.0264   -0.9247   23.2607 C.3     1  UNL1        0.1762
     20 O           2.7158   -0.4986   24.6650 O.3     1  UNL1       -0.3788
     21 H           2.0683    0.2234   24.6480 H       1  UNL1        0.2106
     22 C           7.9308   -3.3914   25.7774 C.3     1  UNL1        0.0371
     23 C           8.0807   -4.7447   25.1482 C.ar    1  UNL1       -0.0025
     24 C           8.1556   -5.9691   26.0115 C.ar    1  UNL1       -0.0011
     25 C           8.3055   -7.3225   25.3822 C.ar    1  UNL1        0.0204
     26 C           8.3807   -7.4515   23.8897 C.ar    1  UNL1        0.0989
     27 N           8.3058   -6.2271   23.0264 N.ar    1  UNL1       -0.2426
     28 C           8.1559   -4.8738   23.6556 C.ar    1  UNL1        0.0946
     29 C           5.1355   -0.7375   28.5599 C.3     1  UNL1        0.1021
     30 N           4.9732   -0.9131   30.0407 N.3     1  UNL1       -0.2621
     31 C           6.0602   -1.5660   30.8422 C.3     1  UNL1        0.0901
     32 C           5.8980   -1.7416   32.3230 C.3     1  UNL1        0.0899
     33 N           4.6487   -1.2643   33.0024 N.3     1  UNL1       -0.2661
     34 C           3.5617   -0.6114   32.2010 C.3     1  UNL1        0.0980
     35 C           3.7240   -0.4358   30.7202 C.3     1  UNL1        0.1510
     36 C           2.6371    0.2170   29.9188 C.2     1  UNL1        0.2386
     37 O           2.6087    1.7093   29.7692 O.2     1  UNL1       -0.2736
     38 N           1.5785   -0.6224   29.2669 N.am    1  UNL1       -0.2961
     39 H           1.5971   -1.6018   29.3651 H       1  UNL1        0.1497
     40 C           0.4915    0.0305   28.4655 C.3     1  UNL1        0.1939
     41 C          -0.9004    0.1148   29.0183 C.3     1  UNL1        0.4154
     42 F          -2.2923    0.1992   29.5710 F       1  UNL1       -0.1682
     43 F          -1.2920   -1.0908   28.2164 F       1  UNL1       -0.1682
     44 F          -0.5088    1.3204   29.8202 F       1  UNL1       -0.1682
     45 C           4.4864   -1.4399   34.4832 C.3     1  UNL1        0.1008
     46 C           5.1258   -0.4662   35.4284 C.ar    1  UNL1        0.0129
     47 C           6.5971   -0.2096   35.5681 C.ar    1  UNL1        0.0176
     48 C           6.7867    0.8369   36.6259 C.ar    1  UNL1        0.0799
     49 N           5.4326    1.2271   37.1399 N.ar    1  UNL1       -0.3038
     50 C           4.4061    0.4217   36.3999 C.ar    1  UNL1        0.0772
     51 C           5.1539    2.2441   38.2067 C.ar    1  UNL1        0.0641
     52 C           6.2832    2.8142   39.0127 C.ar    1  UNL1        0.0175
     53 C           6.0046    3.8312   40.0795 C.ar    1  UNL1        0.0015
     54 C           4.5967    4.2780   40.3403 C.ar    1  UNL1        0.0001
     55 C           3.4673    3.7078   39.5343 C.ar    1  UNL1        0.0015
     56 C           3.7460    2.6909   38.4676 C.ar    1  UNL1        0.0175
@<TRIPOS>BOND
     1     6     7    2
     2     7     8   am
     3    10     8    1
     4    10    11    1
     5    11    12   ar
     6    12    13   ar
     7    13    14   ar
     8    14    15   ar
     9    15    16   ar
    10    16    17    1
    11    17    18    1
    12    18    19    1
    13    19    20    1
    14     7     5    1
    15     5    22    1
    16    22    23    1
    17    23    24   ar
    18    24    25   ar
    19    25    26   ar
    20    26    27   ar
    21    27    28   ar
    22     5     4    1
    23     4     1    1
    24     1     2    1
    25     1    29    1
    26    29    30    1
    27    30    31    1
    28    31    32    1
    29    32    33    1
    30    33    45    1
    31    45    46    1
    32    46    47   ar
    33    47    48   ar
    34    48    49   ar
    35    49    51    1
    36    51    52   ar
    37    52    53   ar
    38    53    54   ar
    39    54    55   ar
    40    55    56   ar
    41    49    50   ar
    42    33    34    1
    43    34    35    1
    44    35    36    1
    45    36    37    2
    46    36    38   am
    47    38    40    1
    48    40    41    1
    49    41    42    1
    50    41    43    1
    51    41    44    1
    52    19    10    1
    53    28    23   ar
    54    35    30    1
    55    16    11   ar
    56    50    46   ar
    57    56    51   ar
    58     8     9    1
    59    20    21    1
    60     2     3    1
    61    38    39    1
@<TRIPOS>MOLECULE
*****
 56 61 0 0 0
SMALL
GASTEIGER

@<TRIPOS>ATOM
      1 C           4.6066   -1.4841   32.7316 C.3     1  UNL1        0.1269
      2 O           3.8678   -2.7715   32.9478 O.3     1  UNL1       -0.3830
      3 H           3.4102   -3.0229   32.1303 H       1  UNL1        0.2104
      4 C           5.3997   -0.8775   33.8509 C.3     1  UNL1        0.0401
      5 C           4.7424    0.0744   34.8058 C.3     1  UNL1        0.0833
      6 O           4.8431    2.4797   33.8288 O.2     1  UNL1       -0.2751
      7 C           4.0437    1.2956   34.2858 C.2     1  UNL1        0.2226
      8 N           2.5454    1.3327   34.2227 N.am    1  UNL1       -0.2999
      9 H           2.0208    0.5555   34.5226 H       1  UNL1        0.1498
     10 C           1.8467    2.5538   33.7026 C.3     1  UNL1        0.1278
     11 C           1.6540    3.7445   34.5942 C.ar    1  UNL1        0.0320
     12 C           2.1601    3.7142   36.0059 C.ar    1  UNL1        0.0004
     13 C           1.9675    4.9049   36.8975 C.ar    1  UNL1       -0.0001
     14 C           1.2687    6.1260   36.3775 C.ar    1  UNL1        0.0031
     15 C           0.7626    6.1564   34.9658 C.ar    1  UNL1        0.0366
     16 C           0.9552    4.9657   34.0742 C.ar    1  UNL1        0.1362
     17 O           0.4490    4.9961   32.6625 O.3     1  UNL1       -0.4730
     18 C           0.6417    3.8053   31.7708 C.3     1  UNL1        0.2364
     19 C           1.3405    2.5842   32.2909 C.3     1  UNL1        0.1762
     20 O           1.5332    1.3934   31.3993 O.3     1  UNL1       -0.3788
     21 H           1.1506    1.5773   30.5271 H       1  UNL1        0.2106
     22 C           4.7839   -0.1949   36.2809 C.3     1  UNL1        0.0371
     23 C           4.6569    0.9392   37.2542 C.ar    1  UNL1       -0.0025
     24 C           5.7145    2.0015   37.3102 C.ar    1  UNL1       -0.0011
     25 C           5.5874    3.1357   38.2836 C.ar    1  UNL1        0.0204
     26 C           4.4029    3.2077   39.2010 C.ar    1  UNL1        0.0989
     27 N           3.3453    2.1454   39.1450 N.ar    1  UNL1       -0.2426
     28 C           3.4723    1.0112   38.1716 C.ar    1  UNL1        0.0946
     29 C           4.5522   -0.8033   31.3960 C.3     1  UNL1        0.1021
     30 N           5.0903   -1.4955   30.1789 N.3     1  UNL1       -0.2621
     31 C           6.1724   -2.5249   30.3184 C.3     1  UNL1        0.0901
     32 C           6.7105   -3.2171   29.1013 C.3     1  UNL1        0.0899
     33 N           6.1664   -2.8799   27.7447 N.3     1  UNL1       -0.2661
     34 C           5.0843   -1.8506   27.6052 C.3     1  UNL1        0.0980
     35 C           4.5462   -1.1584   28.8223 C.3     1  UNL1        0.1510
     36 C           3.4641   -0.1291   28.6829 C.2     1  UNL1        0.2386
     37 O           3.7142    1.2853   29.1152 O.2     1  UNL1       -0.2736
     38 N           2.1319   -0.5142   28.1111 N.am    1  UNL1       -0.2961
     39 H           1.9677   -1.4425   27.8274 H       1  UNL1        0.1497
     40 C           1.0497    0.5151   27.9716 C.3     1  UNL1        0.1939
     41 C          -0.3641    0.1712   28.3363 C.3     1  UNL1        0.4154
     42 F          -1.7778   -0.1727   28.7010 F       1  UNL1       -0.1682
     43 F          -0.8630    1.0300   27.2123 F       1  UNL1       -0.1682
     44 F           0.1348   -0.6875   29.4604 F       1  UNL1       -0.1682
     45 C           6.7045   -3.5721   26.5276 C.3     1  UNL1        0.1008
     46 C           6.5435   -2.9441   25.1749 C.ar    1  UNL1        0.0129
     47 C           6.9547   -1.5527   24.7943 C.ar    1  UNL1        0.0176
     48 C           6.6083   -1.3458   23.3496 C.ar    1  UNL1        0.0799
     49 N           5.9831   -2.6094   22.8373 N.ar    1  UNL1       -0.3038
     50 C           5.9430   -3.5972   23.9654 C.ar    1  UNL1        0.0772
     51 C           5.4853   -2.8441   21.4419 C.ar    1  UNL1        0.0641
     52 C           6.0019   -2.0057   20.3104 C.ar    1  UNL1        0.0175
     53 C           5.5041   -2.2403   18.9150 C.ar    1  UNL1        0.0015
     54 C           4.4898   -3.3133   18.6511 C.ar    1  UNL1        0.0001
     55 C           3.9732   -4.1518   19.7826 C.ar    1  UNL1        0.0015
     56 C           4.4710   -3.9171   21.1779 C.ar    1  UNL1        0.0175
@<TRIPOS>BOND
     1     6     7    2
     2     7     8   am
     3    10     8    1
     4    10    11    1
     5    11    12   ar
     6    12    13   ar
     7    13    14   ar
     8    14    15   ar
     9    15    16   ar
    10    16    17    1
    11    17    18    1
    12    18    19    1
    13    19    20    1
    14     7     5    1
    15     5    22    1
    16    22    23    1
    17    23    24   ar
    18    24    25   ar
    19    25    26   ar
    20    26    27   ar
    21    27    28   ar
    22     5     4    1
    23     4     1    1
    24     1     2    1
    25     1    29    1
    26    29    30    1
    27    30    31    1
    28    31    32    1
    29    32    33    1
    30    33    45    1
    31    45    46    1
    32    46    47   ar
    33    47    48   ar
    34    48    49   ar
    35    49    51    1
    36    51    52   ar
    37    52    53   ar
    38    53    54   ar
    39    54    55   ar
    40    55    56   ar
    41    49    50   ar
    42    33    34    1
    43    34    35    1
    44    35    36    1
    45    36    37    2
    46    36    38   am
    47    38    40    1
    48    40    41    1
    49    41    42    1
    50    41    43    1
    51    41    44    1
    52    19    10    1
    53    28    23   ar
    54    35    30    1
    55    16    11   ar
    56    50    46   ar
    57    56    51   ar
    58     8     9    1
    59    20    21    1
    60     2     3    1
    61    38    39    1
@<TRIPOS>MOLECULE
*****
 56 61 0 0 0
SMALL
GASTEIGER

@<TRIPOS>ATOM
      1 C           4.7443   -1.2118   26.8238 C.3     1  UNL1        0.1269
      2 O           3.3512   -1.6096   26.4351 O.3     1  UNL1       -0.3830
      3 H           2.7699   -0.8343   26.4771 H       1  UNL1        0.2104
      4 C           5.8400   -2.2361   26.8395 C.3     1  UNL1        0.0401
      5 C           6.5732   -2.5694   25.5741 C.3     1  UNL1        0.0833
      6 O           6.6269   -1.1193   23.4190 O.2     1  UNL1       -0.2751
      7 C           5.9859   -2.1942   24.2458 C.2     1  UNL1        0.2226
      8 N           4.7574   -2.8939   23.7444 N.am    1  UNL1       -0.2999
      9 H           4.3367   -3.5993   24.2871 H       1  UNL1        0.1498
     10 C           4.1701   -2.5187   22.4162 C.3     1  UNL1        0.1278
     11 C           3.2154   -1.3660   22.3170 C.ar    1  UNL1        0.0320
     12 C           2.8480   -0.5885   23.5460 C.ar    1  UNL1        0.0004
     13 C           1.8933    0.5642   23.4467 C.ar    1  UNL1       -0.0001
     14 C           1.3060    0.9394   22.1185 C.ar    1  UNL1        0.0031
     15 C           1.6733    0.1618   20.8895 C.ar    1  UNL1        0.0366
     16 C           2.6280   -0.9909   20.9888 C.ar    1  UNL1        0.1362
     17 O           2.9953   -1.7684   19.7597 O.3     1  UNL1       -0.4730
     18 C           3.9500   -2.9211   19.8589 C.3     1  UNL1        0.2364
     19 C           4.5374   -3.2962   21.1872 C.3     1  UNL1        0.1762
     20 O           5.4921   -4.4489   21.2864 O.3     1  UNL1       -0.3788
     21 H           5.6204   -4.8390   20.4077 H       1  UNL1        0.2106
     22 C           7.8939   -3.2779   25.6369 C.3     1  UNL1        0.0371
     23 C           7.9750   -4.7424   25.3227 C.ar    1  UNL1       -0.0025
     24 C           7.9243   -5.7513   26.4315 C.ar    1  UNL1       -0.0011
     25 C           8.0055   -7.2158   26.1172 C.ar    1  UNL1        0.0204
     26 C           8.1372   -7.6713   24.6941 C.ar    1  UNL1        0.0989
     27 N           8.1878   -6.6624   23.5853 N.ar    1  UNL1       -0.2426
     28 C           8.1067   -5.1979   23.8996 C.ar    1  UNL1        0.0946
     29 C           5.0416    0.2104   27.1968 C.3     1  UNL1        0.1021
     30 N           4.4951    1.3335   26.3663 N.3     1  UNL1       -0.2621
     31 C           5.2797    1.8531   25.1980 C.3     1  UNL1        0.0901
     32 C           4.7331    2.9762   24.3675 C.3     1  UNL1        0.0899
     33 N           3.4020    3.5799   24.7052 N.3     1  UNL1       -0.2661
     34 C           2.6176    3.0603   25.8733 C.3     1  UNL1        0.0980
     35 C           3.1641    1.9372   26.7039 C.3     1  UNL1        0.1510
     36 C           2.3796    1.4176   27.8720 C.2     1  UNL1        0.2386
     37 O           2.6324    1.9618   29.2468 O.2     1  UNL1       -0.2736
     38 N           1.3424    0.3539   27.6654 N.am    1  UNL1       -0.2961
     39 H           1.1765   -0.0033   26.7631 H       1  UNL1        0.1497
     40 C           0.5579   -0.1657   28.8336 C.3     1  UNL1        0.1939
     41 C          -0.8907    0.1937   28.9837 C.3     1  UNL1        0.4154
     42 F          -2.3393    0.5531   29.1338 F       1  UNL1       -0.1682
     43 F          -0.5420    1.6480   28.8678 F       1  UNL1       -0.1682
     44 F          -1.2395   -1.2605   29.0996 F       1  UNL1       -0.1682
     45 C           2.8555    4.7030   23.8746 C.3     1  UNL1        0.1008
     46 C           1.6049    4.5019   23.0710 C.ar    1  UNL1        0.0129
     47 C           1.4936    4.5859   21.5775 C.ar    1  UNL1        0.0176
     48 C           0.0660    4.3174   21.2033 C.ar    1  UNL1        0.0799
     49 N          -0.7049    4.0675   22.4656 N.ar    1  UNL1       -0.3038
     50 C           0.2462    4.1815   23.6199 C.ar    1  UNL1        0.0772
     51 C          -2.1697    3.7579   22.5574 C.ar    1  UNL1        0.0641
     52 C          -2.9647    3.5150   21.3088 C.ar    1  UNL1        0.0175
     53 C          -4.4295    3.2054   21.4006 C.ar    1  UNL1        0.0015
     54 C          -5.0993    3.1387   22.7410 C.ar    1  UNL1        0.0001
     55 C          -4.3043    3.3815   23.9897 C.ar    1  UNL1        0.0015
     56 C          -2.8396    3.6911   23.8978 C.ar    1  UNL1        0.0175
@<TRIPOS>BOND
     1     6     7    2
     2     7     8   am
     3    10     8    1
     4    10    11    1
     5    11    12   ar
     6    12    13   ar
     7    13    14   ar
     8    14    15   ar
     9    15    16   ar
    10    16    17    1
    11    17    18    1
    12    18    19    1
    13    19    20    1
    14     7     5    1
    15     5    22    1
    16    22    23    1
    17    23    24   ar
    18    24    25   ar
    19    25    26   ar
    20    26    27   ar
    21    27    28   ar
    22     5     4    1
    23     4     1    1
    24     1     2    1
    25     1    29    1
    26    29    30    1
    27    30    31    1
    28    31    32    1
    29    32    33    1
    30    33    45    1
    31    45    46    1
    32    46    47   ar
    33    47    48   ar
    34    48    49   ar
    35    49    51    1
    36    51    52   ar
    37    52    53   ar
    38    53    54   ar
    39    54    55   ar
    40    55    56   ar
    41    49    50   ar
    42    33    34    1
    43    34    35    1
    44    35    36    1
    45    36    37    2
    46    36    38   am
    47    38    40    1
    48    40    41    1
    49    41    42    1
    50    41    43    1
    51    41    44    1
    52    19    10    1
    53    28    23   ar
    54    35    30    1
    55    16    11   ar
    56    50    46   ar
    57    56    51   ar
    58     8     9    1
    59    20    21    1
    60     2     3    1
    61    38    39    1
@<TRIPOS>MOLECULE
*****
 56 61 0 0 0
SMALL
GASTEIGER

@<TRIPOS>ATOM
      1 C           4.7451   -1.5301   27.0279 C.3     1  UNL1        0.1269
      2 O           3.3355   -2.0369   27.1053 O.3     1  UNL1       -0.3830
      3 H           2.8663   -1.5797   27.8207 H       1  UNL1        0.2104
      4 C           5.6848   -2.0812   25.9967 C.3     1  UNL1        0.0401
      5 C           5.3184   -2.0275   24.5432 C.3     1  UNL1        0.0833
      6 O           5.2525    0.2859   23.3624 O.2     1  UNL1       -0.2751
      7 C           4.5376   -0.8633   24.0090 C.2     1  UNL1        0.2226
      8 N           3.0419   -0.8485   24.1216 N.am    1  UNL1       -0.2999
      9 H           2.5727   -1.6028   24.5461 H       1  UNL1        0.1498
     10 C           2.2611    0.3155   23.5875 C.3     1  UNL1        0.1278
     11 C           1.8616    0.3508   22.1421 C.ar    1  UNL1        0.0320
     12 C           2.2429   -0.7779   21.2308 C.ar    1  UNL1        0.0004
     13 C           1.8435   -0.7426   19.7854 C.ar    1  UNL1       -0.0001
     14 C           1.0626    0.4214   19.2513 C.ar    1  UNL1        0.0031
     15 C           0.6813    1.5501   20.1626 C.ar    1  UNL1        0.0366
     16 C           1.0808    1.5148   21.6080 C.ar    1  UNL1        0.1362
     17 O           0.6994    2.6436   22.5193 O.3     1  UNL1       -0.4730
     18 C           1.0989    2.6083   23.9647 C.3     1  UNL1        0.2364
     19 C           1.8797    1.4442   24.4988 C.3     1  UNL1        0.1762
     20 O           2.2792    1.4089   25.9442 O.3     1  UNL1       -0.3788
     21 H           1.9562    2.2084   26.3885 H       1  UNL1        0.2106
     22 C           5.7329   -3.1378   23.6237 C.3     1  UNL1        0.0371
     23 C           5.4932   -3.0182   22.1478 C.ar    1  UNL1       -0.0025
     24 C           6.3572   -2.1151   21.3184 C.ar    1  UNL1       -0.0011
     25 C           6.1175   -1.9956   19.8425 C.ar    1  UNL1        0.0204
     26 C           5.0139   -2.7792   19.1960 C.ar    1  UNL1        0.0989
     27 N           4.1499   -3.6823   20.0254 N.ar    1  UNL1       -0.2426
     28 C           4.3896   -3.8019   21.5013 C.ar    1  UNL1        0.0946
     29 C           5.2152   -0.4721   27.9818 C.3     1  UNL1        0.1021
     30 N           5.1381   -0.7082   29.4611 N.3     1  UNL1       -0.2621
     31 C           6.3157   -1.2831   30.1911 C.3     1  UNL1        0.0901
     32 C           6.2387   -1.5192   31.6704 C.3     1  UNL1        0.0899
     33 N           4.9841   -1.1805   32.4196 N.3     1  UNL1       -0.2661
     34 C           3.8066   -0.6057   31.6896 C.3     1  UNL1        0.0980
     35 C           3.8836   -0.3695   30.2103 C.3     1  UNL1        0.1510
     36 C           2.7061    0.2053   29.4802 C.2     1  UNL1        0.2386
     37 O           2.7256    1.6378   29.0358 O.2     1  UNL1       -0.2736
     38 N           1.5091   -0.6524   29.1945 N.am    1  UNL1       -0.2961
     39 H           1.4963   -1.5926   29.4862 H       1  UNL1        0.1497
     40 C           0.3316   -0.0776   28.4644 C.3     1  UNL1        0.1939
     41 C          -0.9828    0.0823   29.1693 C.3     1  UNL1        0.4154
     42 F          -2.2972    0.2421   29.8741 F       1  UNL1       -0.1682
     43 F          -0.4330    1.2528   29.9293 F       1  UNL1       -0.1682
     44 F          -1.5327   -1.0882   28.4094 F       1  UNL1       -0.1682
     45 C           4.9070   -1.4166   33.8989 C.3     1  UNL1        0.1008
     46 C           4.4906   -0.3044   34.8153 C.ar    1  UNL1        0.0129
     47 C           4.8113   -0.1993   36.2768 C.ar    1  UNL1        0.0176
     48 C           4.1993    1.0680   36.7958 C.ar    1  UNL1        0.0799
     49 N           3.5003    1.7462   35.6550 N.ar    1  UNL1       -0.3038
     50 C           3.6803    0.8980   34.4310 C.ar    1  UNL1        0.0772
     51 C           2.7526    3.0446   35.7257 C.ar    1  UNL1        0.0641
     52 C           2.6521    3.9194   34.5114 C.ar    1  UNL1        0.0175
     53 C           1.9044    5.2179   34.5822 C.ar    1  UNL1        0.0015
     54 C           1.2572    5.6414   35.8673 C.ar    1  UNL1        0.0001
     55 C           1.3576    4.7666   37.0817 C.ar    1  UNL1        0.0015
     56 C           2.1053    3.4683   37.0108 C.ar    1  UNL1        0.0175
@<TRIPOS>BOND
     1     6     7    2
     2     7     8   am
     3    10     8    1
     4    10    11    1
     5    11    12   ar
     6    12    13   ar
     7    13    14   ar
     8    14    15   ar
     9    15    16   ar
    10    16    17    1
    11    17    18    1
    12    18    19    1
    13    19    20    1
    14     7     5    1
    15     5    22    1
    16    22    23    1
    17    23    24   ar
    18    24    25   ar
    19    25    26   ar
    20    26    27   ar
    21    27    28   ar
    22     5     4    1
    23     4     1    1
    24     1     2    1
    25     1    29    1
    26    29    30    1
    27    30    31    1
    28    31    32    1
    29    32    33    1
    30    33    45    1
    31    45    46    1
    32    46    47   ar
    33    47    48   ar
    34    48    49   ar
    35    49    51    1
    36    51    52   ar
    37    52    53   ar
    38    53    54   ar
    39    54    55   ar
    40    55    56   ar
    41    49    50   ar
    42    33    34    1
    43    34    35    1
    44    35    36    1
    45    36    37    2
    46    36    38   am
    47    38    40    1
    48    40    41    1
    49    41    42    1
    50    41    43    1
    51    41    44    1
    52    19    10    1
    53    28    23   ar
    54    35    30    1
    55    16    11   ar
    56    50    46   ar
    57    56    51   ar
    58     8     9    1
    59    20    21    1
    60     2     3    1
    61    38    39    1
@<TRIPOS>MOLECULE
*****
 56 61 0 0 0
SMALL
GASTEIGER

@<TRIPOS>ATOM
      1 C           4.5184   -0.4210   23.5822 C.3     1  UNL1        0.1269
      2 O           3.3145   -1.2893   23.7979 O.3     1  UNL1       -0.3830
      3 H           3.5957   -2.2118   23.9021 H       1  UNL1        0.2104
      4 C           4.3523    1.0577   23.3924 C.3     1  UNL1        0.0401
      5 C           3.0593    1.7210   23.7639 C.3     1  UNL1        0.0833
      6 O           2.9873    2.9075   26.0741 O.2     1  UNL1       -0.2751
      7 C           2.6154    1.7493   25.1965 C.2     1  UNL1        0.2226
      8 N           1.7996    0.6195   25.7513 N.am    1  UNL1       -0.2999
      9 H           1.5555   -0.1407   25.1753 H       1  UNL1        0.1498
     10 C           1.3556    0.6478   27.1838 C.3     1  UNL1        0.1278
     11 C           2.2923    0.2041   28.2682 C.ar    1  UNL1        0.0320
     12 C           3.6729   -0.2678   27.9201 C.ar    1  UNL1        0.0004
     13 C           4.6095   -0.7115   29.0045 C.ar    1  UNL1       -0.0001
     14 C           4.1656   -0.6831   30.4369 C.ar    1  UNL1        0.0031
     15 C           2.7850   -0.2112   30.7851 C.ar    1  UNL1        0.0366
     16 C           1.8484    0.2324   29.7007 C.ar    1  UNL1        0.1362
     17 O           0.4677    0.7044   30.0489 O.3     1  UNL1       -0.4730
     18 C          -0.4689    1.1480   28.9645 C.3     1  UNL1        0.2364
     19 C          -0.0249    1.1197   27.5319 C.3     1  UNL1        0.1762
     20 O          -0.9616    1.5634   26.4475 O.3     1  UNL1       -0.3788
     21 H          -1.8057    1.8351   26.8406 H       1  UNL1        0.2106
     22 C           2.2102    2.3560   22.7029 C.3     1  UNL1        0.0371
     23 C           1.9710    1.6411   21.4061 C.ar    1  UNL1       -0.0025
     24 C           1.1493    0.3864   21.3819 C.ar    1  UNL1       -0.0011
     25 C           0.9101   -0.3286   20.0851 C.ar    1  UNL1        0.0204
     26 C           1.4925    0.2112   18.8126 C.ar    1  UNL1        0.0989
     27 N           2.3142    1.4659   18.8368 N.ar    1  UNL1       -0.2426
     28 C           2.5534    2.1808   20.1335 C.ar    1  UNL1        0.0946
     29 C           5.8884   -1.0313   23.5564 C.3     1  UNL1        0.1021
     30 N           6.2571   -2.0893   24.5538 N.3     1  UNL1       -0.2621
     31 C           6.5925   -1.7057   25.9647 C.3     1  UNL1        0.0901
     32 C           6.9611   -2.7636   26.9621 C.3     1  UNL1        0.0899
     33 N           6.9944   -4.2052   26.5486 N.3     1  UNL1       -0.2661
     34 C           6.6590   -4.5887   25.1378 C.3     1  UNL1        0.0980
     35 C           6.2904   -3.5307   24.1404 C.3     1  UNL1        0.1510
     36 C           5.9550   -3.9143   22.7296 C.2     1  UNL1        0.2386
     37 O           7.0403   -4.3616   21.7958 O.2     1  UNL1       -0.2736
     38 N           4.5342   -3.8504   22.2525 N.am    1  UNL1       -0.2961
     39 H           3.8219   -3.5568   22.8654 H       1  UNL1        0.1497
     40 C           4.1989   -4.2339   20.8418 C.3     1  UNL1        0.1939
     41 C           3.9934   -3.1704   19.8040 C.3     1  UNL1        0.4154
     42 F           3.7879   -2.1069   18.7664 F       1  UNL1       -0.1682
     43 F           4.4528   -4.1211   18.7387 F       1  UNL1       -0.1682
     44 F           3.5340   -2.2197   20.8694 F       1  UNL1       -0.1682
     45 C           7.3630   -5.2632   27.5460 C.3     1  UNL1        0.1008
     46 C           7.1283   -5.0291   29.0089 C.ar    1  UNL1        0.0129
     47 C           7.2865   -6.0453   30.1009 C.ar    1  UNL1        0.0176
     48 C           6.9502   -5.3821   31.4036 C.ar    1  UNL1        0.0799
     49 N           6.5841   -3.9559   31.1167 N.ar    1  UNL1       -0.3038
     50 C           6.6942   -3.7378   29.6368 C.ar    1  UNL1        0.0772
     51 C           6.1791   -2.9284   32.1316 C.ar    1  UNL1        0.0641
     52 C           4.8749   -3.0666   32.8595 C.ar    1  UNL1        0.0175
     53 C           4.4698   -2.0390   33.8745 C.ar    1  UNL1        0.0015
     54 C           5.3690   -0.8733   34.1614 C.ar    1  UNL1        0.0001
     55 C           6.6733   -0.7350   33.4335 C.ar    1  UNL1        0.0015
     56 C           7.0783   -1.7626   32.4187 C.ar    1  UNL1        0.0175
@<TRIPOS>BOND
     1     6     7    2
     2     7     8   am
     3    10     8    1
     4    10    11    1
     5    11    12   ar
     6    12    13   ar
     7    13    14   ar
     8    14    15   ar
     9    15    16   ar
    10    16    17    1
    11    17    18    1
    12    18    19    1
    13    19    20    1
    14     7     5    1
    15     5    22    1
    16    22    23    1
    17    23    24   ar
    18    24    25   ar
    19    25    26   ar
    20    26    27   ar
    21    27    28   ar
    22     5     4    1
    23     4     1    1
    24     1     2    1
    25     1    29    1
    26    29    30    1
    27    30    31    1
    28    31    32    1
    29    32    33    1
    30    33    45    1
    31    45    46    1
    32    46    47   ar
    33    47    48   ar
    34    48    49   ar
    35    49    51    1
    36    51    52   ar
    37    52    53   ar
    38    53    54   ar
    39    54    55   ar
    40    55    56   ar
    41    49    50   ar
    42    33    34    1
    43    34    35    1
    44    35    36    1
    45    36    37    2
    46    36    38   am
    47    38    40    1
    48    40    41    1
    49    41    42    1
    50    41    43    1
    51    41    44    1
    52    19    10    1
    53    28    23   ar
    54    35    30    1
    55    16    11   ar
    56    50    46   ar
    57    56    51   ar
    58     8     9    1
    59    20    21    1
    60     2     3    1
    61    38    39    1
@<TRIPOS>MOLECULE
*****
 56 61 0 0 0
SMALL
GASTEIGER

@<TRIPOS>ATOM
      1 C           2.9416   -0.4938   27.6608 C.3     1  UNL1        0.1269
      2 O           3.2291   -1.9396   27.3836 O.3     1  UNL1       -0.3830
      3 H           2.5691   -2.4921   27.8310 H       1  UNL1        0.2104
      4 C           3.8234    0.5711   27.0790 C.3     1  UNL1        0.0401
      5 C           3.8339    0.8098   25.5982 C.3     1  UNL1        0.0833
      6 O           5.8474    0.2716   24.0470 O.2     1  UNL1       -0.2751
      7 C           4.5567   -0.1408   24.6904 C.2     1  UNL1        0.2226
      8 N           3.9888   -1.5037   24.4260 N.am    1  UNL1       -0.2999
      9 H           3.1416   -1.7743   24.8483 H       1  UNL1        0.1498
     10 C           4.7115   -2.4542   23.5183 C.3     1  UNL1        0.1278
     11 C           4.3768   -2.4965   22.0567 C.ar    1  UNL1        0.0320
     12 C           3.3193   -1.5883   21.5029 C.ar    1  UNL1        0.0004
     13 C           2.9845   -1.6306   20.0414 C.ar    1  UNL1       -0.0001
     14 C           3.7073   -2.5811   19.1336 C.ar    1  UNL1        0.0031
     15 C           4.7648   -3.4894   19.6874 C.ar    1  UNL1        0.0366
     16 C           5.0995   -3.4471   21.1490 C.ar    1  UNL1        0.1362
     17 O           6.1571   -4.3554   21.7028 O.3     1  UNL1       -0.4730
     18 C           6.4918   -4.3131   23.1643 C.3     1  UNL1        0.2364
     19 C           5.7690   -3.3625   24.0721 C.3     1  UNL1        0.1762
     20 O           6.1037   -3.3202   25.5337 O.3     1  UNL1       -0.3788
     21 H           6.8025   -3.9654   25.7241 H       1  UNL1        0.2106
     22 C           3.1216    1.9990   25.0251 C.3     1  UNL1        0.0371
     23 C           2.5216    1.9241   23.6524 C.ar    1  UNL1       -0.0025
     24 C           1.2782    1.1177   23.4204 C.ar    1  UNL1       -0.0011
     25 C           0.6782    1.0428   22.0476 C.ar    1  UNL1        0.0204
     26 C           1.3214    1.7743   20.9070 C.ar    1  UNL1        0.0989
     27 N           2.5647    2.5807   21.1390 N.ar    1  UNL1       -0.2426
     28 C           3.1648    2.6557   22.5117 C.ar    1  UNL1        0.0946
     29 C           1.7724   -0.1128   28.5198 C.3     1  UNL1        0.1021
     30 N           0.9047    1.0482   28.1335 N.3     1  UNL1       -0.2621
     31 C           0.0450    0.9666   26.9070 C.3     1  UNL1        0.0901
     32 C          -0.8226    2.1276   26.5207 C.3     1  UNL1        0.0899
     33 N          -0.8306    3.3702   27.3610 N.3     1  UNL1       -0.2661
     34 C           0.0291    3.4517   28.5874 C.3     1  UNL1        0.0980
     35 C           0.8968    2.2907   28.9737 C.3     1  UNL1        0.1510
     36 C           1.7564    2.3723   30.2002 C.2     1  UNL1        0.2386
     37 O           3.1567    2.9008   30.1008 O.2     1  UNL1       -0.2736
     38 N           1.2158    1.9253   31.5261 N.am    1  UNL1       -0.2961
     39 H           0.2968    1.5784   31.5914 H       1  UNL1        0.1497
     40 C           2.0755    2.0068   32.7526 C.3     1  UNL1        0.1939
     41 C           1.7563    3.0033   33.8274 C.3     1  UNL1        0.4154
     42 F           1.4370    3.9998   34.9021 F       1  UNL1       -0.1682
     43 F           2.9115    2.4976   34.6395 F       1  UNL1       -0.1682
     44 F           0.6010    3.5091   33.0153 F       1  UNL1       -0.1682
     45 C          -1.6982    4.5312   26.9747 C.3     1  UNL1        0.1008
     46 C          -2.8632    4.3229   26.0529 C.ar    1  UNL1        0.0129
     47 C          -4.2916    4.1283   26.4673 C.ar    1  UNL1        0.0176
     48 C          -5.1154    3.9578   25.2254 C.ar    1  UNL1        0.0799
     49 N          -4.1961    4.0470   24.0435 N.ar    1  UNL1       -0.3038
     50 C          -2.8041    4.2727   24.5549 C.ar    1  UNL1        0.0772
     51 C          -4.5981    3.9310   22.6030 C.ar    1  UNL1        0.0641
     52 C          -6.0098    4.2279   22.1921 C.ar    1  UNL1        0.0175
     53 C          -6.4119    4.1119   20.7516 C.ar    1  UNL1        0.0015
     54 C          -5.4022    3.6989   19.7222 C.ar    1  UNL1        0.0001
     55 C          -3.9904    3.4019   20.1330 C.ar    1  UNL1        0.0015
     56 C          -3.5884    3.5180   21.5734 C.ar    1  UNL1        0.0175
@<TRIPOS>BOND
     1     6     7    2
     2     7     8   am
     3    10     8    1
     4    10    11    1
     5    11    12   ar
     6    12    13   ar
     7    13    14   ar
     8    14    15   ar
     9    15    16   ar
    10    16    17    1
    11    17    18    1
    12    18    19    1
    13    19    20    1
    14     7     5    1
    15     5    22    1
    16    22    23    1
    17    23    24   ar
    18    24    25   ar
    19    25    26   ar
    20    26    27   ar
    21    27    28   ar
    22     5     4    1
    23     4     1    1
    24     1     2    1
    25     1    29    1
    26    29    30    1
    27    30    31    1
    28    31    32    1
    29    32    33    1
    30    33    45    1
    31    45    46    1
    32    46    47   ar
    33    47    48   ar
    34    48    49   ar
    35    49    51    1
    36    51    52   ar
    37    52    53   ar
    38    53    54   ar
    39    54    55   ar
    40    55    56   ar
    41    49    50   ar
    42    33    34    1
    43    34    35    1
    44    35    36    1
    45    36    37    2
    46    36    38   am
    47    38    40    1
    48    40    41    1
    49    41    42    1
    50    41    43    1
    51    41    44    1
    52    19    10    1
    53    28    23   ar
    54    35    30    1
    55    16    11   ar
    56    50    46   ar
    57    56    51   ar
    58     8     9    1
    59    20    21    1
    60     2     3    1
    61    38    39    1
@<TRIPOS>MOLECULE
*****
 56 61 0 0 0
SMALL
GASTEIGER

@<TRIPOS>ATOM
      1 C           4.5343   -1.4130   27.6768 C.3     1  UNL1        0.1269
      2 O           3.1773   -1.9389   27.3138 O.3     1  UNL1       -0.3830
      3 H           2.5359   -1.2113   27.3212 H       1  UNL1        0.2104
      4 C           5.7084   -2.3446   27.7367 C.3     1  UNL1        0.0401
      5 C           6.5379   -2.5856   26.5104 C.3     1  UNL1        0.0833
      6 O           6.7735   -1.1159   24.3809 O.2     1  UNL1       -0.2751
      7 C           6.0307   -2.1564   25.1655 C.2     1  UNL1        0.2226
      8 N           4.7807   -2.7677   24.6053 N.am    1  UNL1       -0.2999
      9 H           4.2932   -3.4506   25.1203 H       1  UNL1        0.1498
     10 C           4.2735   -2.3386   23.2605 C.3     1  UNL1        0.1278
     11 C           3.3499   -1.1620   23.1478 C.ar    1  UNL1        0.0320
     12 C           2.9335   -0.4146   24.3799 C.ar    1  UNL1        0.0004
     13 C           2.0100    0.7619   24.2671 C.ar    1  UNL1       -0.0001
     14 C           1.5027    1.1911   22.9223 C.ar    1  UNL1        0.0031
     15 C           1.9191    0.4437   21.6903 C.ar    1  UNL1        0.0366
     16 C           2.8427   -0.7329   21.8030 C.ar    1  UNL1        0.1362
     17 O           3.2590   -1.4803   20.5709 O.3     1  UNL1       -0.4730
     18 C           4.1826   -2.6568   20.6836 C.3     1  UNL1        0.2364
     19 C           4.6899   -3.0860   22.0285 C.3     1  UNL1        0.1762
     20 O           5.6134   -4.2625   22.1412 O.3     1  UNL1       -0.3788
     21 H           5.7805   -4.6282   21.2585 H       1  UNL1        0.2106
     22 C           7.8746   -3.2558   26.6289 C.3     1  UNL1        0.0371
     23 C           7.9536   -4.7323   26.8809 C.ar    1  UNL1       -0.0025
     24 C           8.9766   -5.2770   27.8332 C.ar    1  UNL1       -0.0011
     25 C           9.0556   -6.7536   28.0852 C.ar    1  UNL1        0.0204
     26 C           8.1115   -7.6855   27.3851 C.ar    1  UNL1        0.0989
     27 N           7.0885   -7.1408   26.4328 N.ar    1  UNL1       -0.2426
     28 C           7.0095   -5.6643   26.1807 C.ar    1  UNL1        0.0946
     29 C           4.7173    0.0447   27.9800 C.3     1  UNL1        0.1021
     30 N           5.1135    0.4797   29.3598 N.3     1  UNL1       -0.2621
     31 C           6.5637    0.6386   29.7086 C.3     1  UNL1        0.0901
     32 C           6.9599    1.0737   31.0884 C.3     1  UNL1        0.0899
     33 N           5.9058    1.3499   32.1193 N.3     1  UNL1       -0.2661
     34 C           4.4557    1.1910   31.7704 C.3     1  UNL1        0.0980
     35 C           4.0595    0.7559   30.3907 C.3     1  UNL1        0.1510
     36 C           2.6093    0.5971   30.0418 C.2     1  UNL1        0.2386
     37 O           1.9592   -0.7516   30.1338 O.2     1  UNL1       -0.2736
     38 N           1.8093    1.7869   29.6008 N.am    1  UNL1       -0.2961
     39 H           2.2360    2.6720   29.5404 H       1  UNL1        0.1497
     40 C           0.3591    1.6280   29.2519 C.3     1  UNL1        0.1939
     41 C          -0.0369    1.1904   27.8729 C.3     1  UNL1        0.4154
     42 F          -0.4330    0.7529   26.4939 F       1  UNL1       -0.1682
     43 F          -0.6677   -0.0441   28.4457 F       1  UNL1       -0.1682
     44 F           0.5938    2.4249   27.3001 F       1  UNL1       -0.1682
     45 C           6.3020    1.7850   33.4991 C.3     1  UNL1        0.1008
     46 C           5.5152    1.3176   34.6877 C.ar    1  UNL1        0.0129
     47 C           5.6951    0.0135   35.4067 C.ar    1  UNL1        0.0176
     48 C           4.7016   -0.0378   36.5293 C.ar    1  UNL1        0.0799
     49 N           3.9077    1.2347   36.5041 N.ar    1  UNL1       -0.3038
     50 C           4.4106    2.0723   35.3660 C.ar    1  UNL1        0.0772
     51 C           2.8046    1.6045   37.4509 C.ar    1  UNL1        0.0641
     52 C           2.1766    2.9646   37.3762 C.ar    1  UNL1        0.0175
     53 C           1.0735    3.3344   38.3230 C.ar    1  UNL1        0.0015
     54 C           0.5984    2.3441   39.3444 C.ar    1  UNL1        0.0001
     55 C           1.2265    0.9839   39.4192 C.ar    1  UNL1        0.0015
     56 C           2.3295    0.6142   38.4725 C.ar    1  UNL1        0.0175
@<TRIPOS>BOND
     1     6     7    2
     2     7     8   am
     3    10     8    1
     4    10    11    1
     5    11    12   ar
     6    12    13   ar
     7    13    14   ar
     8    14    15   ar
     9    15    16   ar
    10    16    17    1
    11    17    18    1
    12    18    19    1
    13    19    20    1
    14     7     5    1
    15     5    22    1
    16    22    23    1
    17    23    24   ar
    18    24    25   ar
    19    25    26   ar
    20    26    27   ar
    21    27    28   ar
    22     5     4    1
    23     4     1    1
    24     1     2    1
    25     1    29    1
    26    29    30    1
    27    30    31    1
    28    31    32    1
    29    32    33    1
    30    33    45    1
    31    45    46    1
    32    46    47   ar
    33    47    48   ar
    34    48    49   ar
    35    49    51    1
    36    51    52   ar
    37    52    53   ar
    38    53    54   ar
    39    54    55   ar
    40    55    56   ar
    41    49    50   ar
    42    33    34    1
    43    34    35    1
    44    35    36    1
    45    36    37    2
    46    36    38   am
    47    38    40    1
    48    40    41    1
    49    41    42    1
    50    41    43    1
    51    41    44    1
    52    19    10    1
    53    28    23   ar
    54    35    30    1
    55    16    11   ar
    56    50    46   ar
    57    56    51   ar
    58     8     9    1
    59    20    21    1
    60     2     3    1
    61    38    39    1
@<TRIPOS>MOLECULE
*****
 56 61 0 0 0
SMALL
GASTEIGER

@<TRIPOS>ATOM
      1 C           4.8614   -1.6503   27.4194 C.3     1  UNL1        0.1269
      2 O           3.4655   -2.0318   27.0245 O.3     1  UNL1       -0.3830
      3 H           2.8540   -1.3201   27.2704 H       1  UNL1        0.2104
      4 C           6.0005   -2.5873   27.1467 C.3     1  UNL1        0.0401
      5 C           6.6374   -2.6185   25.7890 C.3     1  UNL1        0.0833
      6 O           6.4586   -0.7301   24.0137 O.2     1  UNL1       -0.2751
      7 C           5.9351   -1.9998   24.6168 C.2     1  UNL1        0.2226
      8 N           4.7094   -2.6508   24.0477 N.am    1  UNL1       -0.2999
      9 H           4.3659   -3.4842   24.4435 H       1  UNL1        0.1498
     10 C           4.0072   -2.0321   22.8755 C.3     1  UNL1        0.1278
     11 C           4.3038   -2.5110   21.4853 C.ar    1  UNL1        0.0320
     12 C           5.3027   -3.6085   21.2673 C.ar    1  UNL1        0.0004
     13 C           5.5994   -4.0874   19.8770 C.ar    1  UNL1       -0.0001
     14 C           4.8971   -3.4687   18.7049 C.ar    1  UNL1        0.0031
     15 C           3.8982   -2.3712   18.9229 C.ar    1  UNL1        0.0366
     16 C           3.6016   -1.8923   20.3131 C.ar    1  UNL1        0.1362
     17 O           2.6027   -0.7947   20.5311 O.3     1  UNL1       -0.4730
     18 C           2.3060   -0.3158   21.9213 C.3     1  UNL1        0.2364
     19 C           3.0083   -0.9346   23.0936 C.3     1  UNL1        0.1762
     20 O           2.7117   -0.4557   24.4838 O.3     1  UNL1       -0.3788
     21 H           2.0489    0.2516   24.4476 H       1  UNL1        0.2106
     22 C           7.9764   -3.2685   25.6035 C.3     1  UNL1        0.0371
     23 C           8.0611   -4.6920   25.1381 C.ar    1  UNL1       -0.0025
     24 C           8.0489   -5.8099   26.1381 C.ar    1  UNL1       -0.0011
     25 C           8.1336   -7.2335   25.6727 C.ar    1  UNL1        0.0204
     26 C           8.2306   -7.5389   24.2074 C.ar    1  UNL1        0.0989
     27 N           8.2427   -6.4210   23.2074 N.ar    1  UNL1       -0.2426
     28 C           8.1580   -4.9975   23.6727 C.ar    1  UNL1        0.0946
     29 C           5.1181   -0.3318   28.0871 C.3     1  UNL1        0.1021
     30 N           4.8197   -0.1597   29.5470 N.3     1  UNL1       -0.2621
     31 C           5.8962   -0.3934   30.5652 C.3     1  UNL1        0.0901
     32 C           5.5977   -0.2213   32.0251 C.3     1  UNL1        0.0899
     33 N           4.2228    0.1845   32.4668 N.3     1  UNL1       -0.2661
     34 C           3.1464    0.4181   31.4486 C.3     1  UNL1        0.0980
     35 C           3.4448    0.2460   29.9887 C.3     1  UNL1        0.1510
     36 C           2.3684    0.4796   28.9706 C.2     1  UNL1        0.2386
     37 O           1.3900   -0.6111   28.6498 O.2     1  UNL1       -0.2736
     38 N           2.2705    1.8041   28.2731 N.am    1  UNL1       -0.2961
     39 H           2.9127    2.5199   28.4836 H       1  UNL1        0.1497
     40 C           1.1941    2.0377   27.2549 C.3     1  UNL1        0.1939
     41 C          -0.2372    1.7456   27.5961 C.3     1  UNL1        0.4154
     42 F          -1.6684    1.4536   27.9372 F       1  UNL1       -0.1682
     43 F          -0.3378    0.8435   26.4019 F       1  UNL1       -0.1682
     44 F          -0.1366    2.6477   28.7902 F       1  UNL1       -0.1682
     45 C           3.9244    0.3565   33.9267 C.3     1  UNL1        0.1008
     46 C           3.6058    1.7173   34.4718 C.ar    1  UNL1        0.0129
     47 C           4.5485    2.6081   35.2253 C.ar    1  UNL1        0.0176
     48 C           3.8140    3.8674   35.5783 C.ar    1  UNL1        0.0799
     49 N           2.4173    3.7548   35.0429 N.ar    1  UNL1       -0.3038
     50 C           2.2886    2.4260   34.3591 C.ar    1  UNL1        0.0772
     51 C           1.3386    4.7895   35.1692 C.ar    1  UNL1        0.0641
     52 C           1.0628    5.4270   36.4986 C.ar    1  UNL1        0.0175
     53 C          -0.0159    6.4617   36.6249 C.ar    1  UNL1        0.0015
     54 C          -0.8187    6.8588   35.4217 C.ar    1  UNL1        0.0001
     55 C          -0.5428    6.2214   34.0922 C.ar    1  UNL1        0.0015
     56 C           0.5358    5.1868   33.9660 C.ar    1  UNL1        0.0175
@<TRIPOS>BOND
     1     6     7    2
     2     7     8   am
     3    10     8    1
     4    10    11    1
     5    11    12   ar
     6    12    13   ar
     7    13    14   ar
     8    14    15   ar
     9    15    16   ar
    10    16    17    1
    11    17    18    1
    12    18    19    1
    13    19    20    1
    14     7     5    1
    15     5    22    1
    16    22    23    1
    17    23    24   ar
    18    24    25   ar
    19    25    26   ar
    20    26    27   ar
    21    27    28   ar
    22     5     4    1
    23     4     1    1
    24     1     2    1
    25     1    29    1
    26    29    30    1
    27    30    31    1
    28    31    32    1
    29    32    33    1
    30    33    45    1
    31    45    46    1
    32    46    47   ar
    33    47    48   ar
    34    48    49   ar
    35    49    51    1
    36    51    52   ar
    37    52    53   ar
    38    53    54   ar
    39    54    55   ar
    40    55    56   ar
    41    49    50   ar
    42    33    34    1
    43    34    35    1
    44    35    36    1
    45    36    37    2
    46    36    38   am
    47    38    40    1
    48    40    41    1
    49    41    42    1
    50    41    43    1
    51    41    44    1
    52    19    10    1
    53    28    23   ar
    54    35    30    1
    55    16    11   ar
    56    50    46   ar
    57    56    51   ar
    58     8     9    1
    59    20    21    1
    60     2     3    1
    61    38    39    1
@<TRIPOS>MOLECULE
*****
 56 61 0 0 0
SMALL
GASTEIGER

@<TRIPOS>ATOM
      1 C           3.6059    0.6852   23.2554 C.3     1  UNL1        0.1269
      2 O           4.1988    1.8851   23.9325 O.3     1  UNL1       -0.3830
      3 H           4.2258    1.7353   24.8905 H       1  UNL1        0.2104
      4 C           3.4525    0.6654   21.7633 C.3     1  UNL1        0.0401
      5 C           2.2620   -0.0015   21.1406 C.3     1  UNL1        0.0833
      6 O          -0.2580    0.0282   20.5089 O.2     1  UNL1       -0.2751
      7 C           0.9446    0.7138   21.0864 C.2     1  UNL1        0.2226
      8 N           0.8299    2.1149   21.6098 N.am    1  UNL1       -0.2999
      9 H           1.6192    2.5649   21.9889 H       1  UNL1        0.1498
     10 C          -0.4874    2.8302   21.5557 C.3     1  UNL1        0.1278
     11 C          -1.2361    3.1199   22.8228 C.ar    1  UNL1        0.0320
     12 C          -0.6676    2.6943   24.1439 C.ar    1  UNL1        0.0004
     13 C          -1.4163    2.9840   25.4110 C.ar    1  UNL1       -0.0001
     14 C          -2.7336    3.6994   25.3569 C.ar    1  UNL1        0.0031
     15 C          -3.3022    4.1250   24.0357 C.ar    1  UNL1        0.0366
     16 C          -2.5534    3.8353   22.7687 C.ar    1  UNL1        0.1362
     17 O          -3.1220    4.2609   21.4475 O.3     1  UNL1       -0.4730
     18 C          -2.3733    3.9712   20.1804 C.3     1  UNL1        0.2364
     19 C          -1.0559    3.2559   20.2345 C.3     1  UNL1        0.1762
     20 O          -0.3072    2.9661   18.9675 O.3     1  UNL1       -0.3788
     21 H          -0.8096    3.3053   18.2102 H       1  UNL1        0.2106
     22 C           2.3888   -1.3837   20.5719 C.3     1  UNL1        0.0371
     23 C           3.5873   -1.7482   19.7469 C.ar    1  UNL1       -0.0025
     24 C           4.6117   -2.6991   20.2915 C.ar    1  UNL1       -0.0011
     25 C           5.8102   -3.0636   19.4664 C.ar    1  UNL1        0.0204
     26 C           5.9843   -2.4773   18.0968 C.ar    1  UNL1        0.0989
     27 N           4.9600   -1.5265   17.5522 N.ar    1  UNL1       -0.2426
     28 C           3.7615   -1.1620   18.3772 C.ar    1  UNL1        0.0946
     29 C           3.1663   -0.4951   24.0702 C.3     1  UNL1        0.1021
     30 N           4.1554   -1.2205   24.9336 N.3     1  UNL1       -0.2621
     31 C           5.0190   -2.2959   24.3437 C.3     1  UNL1        0.0901
     32 C           6.0081   -3.0213   25.2071 C.3     1  UNL1        0.0899
     33 N           6.1336   -2.6714   26.6604 N.3     1  UNL1       -0.2661
     34 C           5.2700   -1.5961   27.2502 C.3     1  UNL1        0.0980
     35 C           4.2809   -0.8707   26.3868 C.3     1  UNL1        0.1510
     36 C           3.4173    0.2046   26.9766 C.2     1  UNL1        0.2386
     37 O           3.8808    1.6312   26.9618 O.2     1  UNL1       -0.2736
     38 N           2.0902   -0.1466   27.5812 N.am    1  UNL1       -0.2961
     39 H           1.7860   -1.0829   27.5910 H       1  UNL1        0.1497
     40 C           1.2266    0.9287   28.1710 C.3     1  UNL1        0.1939
     41 C          -0.2191    0.6543   28.4620 C.3     1  UNL1        0.4154
     42 F          -1.6648    0.3799   28.7529 F       1  UNL1       -0.1682
     43 F           0.0929   -0.8022   28.6385 F       1  UNL1       -0.1682
     44 F          -0.5311    2.1108   28.2855 F       1  UNL1       -0.1682
     45 C           7.1227   -3.3968   27.5238 C.3     1  UNL1        0.1008
     46 C           6.8936   -3.4999   29.0027 C.ar    1  UNL1        0.0129
     47 C           6.9978   -4.7493   29.8261 C.ar    1  UNL1        0.0176
     48 C           6.6887   -4.3932   31.2500 C.ar    1  UNL1        0.0799
     49 N           6.3934   -2.9236   31.3067 N.ar    1  UNL1       -0.3038
     50 C           6.5200   -2.3715   29.9177 C.ar    1  UNL1        0.0772
     51 C           6.0345   -2.1432   32.5364 C.ar    1  UNL1        0.0641
     52 C           7.0353   -1.2103   33.1512 C.ar    1  UNL1        0.0175
     53 C           6.6764   -0.4298   34.3809 C.ar    1  UNL1        0.0015
     54 C           5.3168   -0.5823   34.9957 C.ar    1  UNL1        0.0001
     55 C           4.3159   -1.5153   34.3808 C.ar    1  UNL1        0.0015
     56 C           4.6749   -2.2956   33.1512 C.ar    1  UNL1        0.0175
@<TRIPOS>BOND
     1     6     7    2
     2     7     8   am
     3    10     8    1
     4    10    11    1
     5    11    12   ar
     6    12    13   ar
     7    13    14   ar
     8    14    15   ar
     9    15    16   ar
    10    16    17    1
    11    17    18    1
    12    18    19    1
    13    19    20    1
    14     7     5    1
    15     5    22    1
    16    22    23    1
    17    23    24   ar
    18    24    25   ar
    19    25    26   ar
    20    26    27   ar
    21    27    28   ar
    22     5     4    1
    23     4     1    1
    24     1     2    1
    25     1    29    1
    26    29    30    1
    27    30    31    1
    28    31    32    1
    29    32    33    1
    30    33    45    1
    31    45    46    1
    32    46    47   ar
    33    47    48   ar
    34    48    49   ar
    35    49    51    1
    36    51    52   ar
    37    52    53   ar
    38    53    54   ar
    39    54    55   ar
    40    55    56   ar
    41    49    50   ar
    42    33    34    1
    43    34    35    1
    44    35    36    1
    45    36    37    2
    46    36    38   am
    47    38    40    1
    48    40    41    1
    49    41    42    1
    50    41    43    1
    51    41    44    1
    52    19    10    1
    53    28    23   ar
    54    35    30    1
    55    16    11   ar
    56    50    46   ar
    57    56    51   ar
    58     8     9    1
    59    20    21    1
    60     2     3    1
    61    38    39    1
