@<TRIPOS>MOLECULE
*****
 35 39 0 0 0
SMALL
GASTEIGER

@<TRIPOS>ATOM
      1 O          -1.9401    3.0639   21.0149 O.2     1  UNL1       -0.2522
      2 C          -1.3352    2.8889   22.3763 C.2     1  UNL1        0.3081
      3 N          -0.0057    2.2104   22.5248 N.am    1  UNL1       -0.2681
      4 N          -2.0600    3.3924   23.5893 N.am    1  UNL1       -0.2576
      5 C          -1.4551    3.2175   24.9508 C.3     1  UNL1        0.1018
      6 C          -2.1798    3.7210   26.1637 C.3     1  UNL1        0.0671
      7 C          -3.5094    4.3995   26.0153 C.ar    1  UNL1        0.0586
      8 N          -4.2340    4.9030   27.2282 N.ar    1  UNL1       -0.2483
      9 C          -5.5635    5.5814   27.0798 C.ar    1  UNL1        0.0984
     10 C          -6.1683    5.7564   25.7183 C.ar    1  UNL1        0.0204
     11 C          -5.4437    5.2529   24.5053 C.ar    1  UNL1        0.0004
     12 C          -4.1142    4.5744   24.6538 C.ar    1  UNL1        0.0136
     13 C          -3.3895    4.0709   23.4408 C.3     1  UNL1        0.1231
     14 H           0.3912    2.0956   23.4184 H       1  UNL1        0.1564
     15 C          -3.9943    4.2458   22.0794 C.ar    1  UNL1        0.0000
     16 C          -4.8566    3.1652   21.4973 C.ar    1  UNL1       -0.0015
     17 C          -5.4614    3.3402   20.1358 C.ar    1  UNL1        0.0111
     18 C          -5.2040    4.5958   19.3565 C.ar    1  UNL1        0.0577
     19 CL         -5.8088    4.7707   17.9950 Cl      1  UNL1       -0.0822
     20 C          -4.3417    5.6763   19.9386 C.ar    1  UNL1        0.0111
     21 C          -3.7369    5.5014   21.3001 C.ar    1  UNL1       -0.0015
     22 C           0.7189    1.7069   21.3119 C.ar    1  UNL1        0.0518
     23 C           1.6546    2.6127   20.5674 C.ar    1  UNL1        0.0178
     24 C           2.3793    2.1091   19.3544 C.ar    1  UNL1        0.0388
     25 C           2.1683    0.6999   18.8859 C.ar    1  UNL1        0.1454
     26 C           1.2326   -0.2058   19.6303 C.ar    1  UNL1        0.0388
     27 C           0.5079    0.2977   20.8433 C.ar    1  UNL1        0.0178
     28 O           2.8929    0.1964   17.6729 O.3     1  UNL1       -0.4535
     29 C           4.2124   -0.5010   17.8232 C.ar    1  UNL1        0.1454
     30 C           4.2544   -1.9614   18.1629 C.ar    1  UNL1        0.0398
     31 C           5.5738   -2.6589   18.3132 C.ar    1  UNL1        0.0328
     32 C           6.8513   -1.8959   18.1238 C.ar    1  UNL1        0.1403
     33 F           8.1708   -2.5934   18.2741 F       1  UNL1       -0.2042
     34 C           6.8094   -0.4354   17.7842 C.ar    1  UNL1        0.0328
     35 C           5.4899    0.2620   17.6339 C.ar    1  UNL1        0.0398
@<TRIPOS>BOND
     1     1     2    2
     2     2     3   am
     3     3    22    1
     4    22    23   ar
     5    23    24   ar
     6    24    25   ar
     7    25    28    1
     8    28    29    1
     9    29    30   ar
    10    30    31   ar
    11    31    32   ar
    12    32    33    1
    13    32    34   ar
    14    34    35   ar
    15    25    26   ar
    16    26    27   ar
    17     2     4   am
    18     4     5    1
    19     5     6    1
    20     6     7    1
    21     7     8   ar
    22     8     9   ar
    23     9    10   ar
    24    10    11   ar
    25    11    12   ar
    26    12    13    1
    27    13    15    1
    28    15    16   ar
    29    16    17   ar
    30    17    18   ar
    31    18    19    1
    32    18    20   ar
    33    20    21   ar
    34    27    22   ar
    35    13     4    1
    36    21    15   ar
    37    35    29   ar
    38    12     7   ar
    39     3    14    1
@<TRIPOS>MOLECULE
*****
 35 39 0 0 0
SMALL
GASTEIGER

@<TRIPOS>ATOM
      1 O          -1.0473    3.2243   22.9020 O.2     1  UNL1       -0.2522
      2 C          -2.0327    3.1105   21.7768 C.2     1  UNL1        0.3081
      3 N          -1.6233    2.4713   20.4831 N.am    1  UNL1       -0.2681
      4 N          -3.4275    3.6361   21.9453 N.am    1  UNL1       -0.2576
      5 C          -4.4129    3.5223   20.8201 C.3     1  UNL1        0.1018
      6 C          -5.8076    4.0478   20.9886 C.3     1  UNL1        0.0671
      7 C          -6.2171    4.6871   22.2823 C.ar    1  UNL1        0.0586
      8 N          -7.6119    5.2126   22.4508 N.ar    1  UNL1       -0.2483
      9 C          -8.0213    5.8518   23.7445 C.ar    1  UNL1        0.0984
     10 C          -7.0359    5.9656   24.8697 C.ar    1  UNL1        0.0204
     11 C          -5.6412    5.4401   24.7013 C.ar    1  UNL1        0.0004
     12 C          -5.2318    4.8008   23.4076 C.ar    1  UNL1        0.0136
     13 C          -3.8369    4.2753   23.2390 C.3     1  UNL1        0.1231
     14 H          -2.2700    2.3966   19.7446 H       1  UNL1        0.1564
     15 C          -2.8516    4.3890   24.3643 C.ar    1  UNL1        0.0000
     16 C          -2.7279    3.2809   25.3678 C.ar    1  UNL1       -0.0015
     17 C          -1.7425    3.3947   26.4930 C.ar    1  UNL1        0.0111
     18 C          -0.8809    4.6165   26.6147 C.ar    1  UNL1        0.0577
     19 CL          0.1045    4.7303   27.7400 Cl      1  UNL1       -0.0822
     20 C          -1.0046    5.7245   25.6113 C.ar    1  UNL1        0.0111
     21 C          -1.9899    5.6108   24.4860 C.ar    1  UNL1       -0.0015
     22 C          -0.2285    1.9458   20.3146 C.ar    1  UNL1        0.0518
     23 C           0.4063    1.1393   21.4085 C.ar    1  UNL1        0.0178
     24 C           1.8012    0.6138   21.2400 C.ar    1  UNL1        0.0388
     25 C           2.5611    0.8948   19.9776 C.ar    1  UNL1        0.1454
     26 C           1.9263    1.7013   18.8838 C.ar    1  UNL1        0.0388
     27 C           0.5315    2.2268   19.0523 C.ar    1  UNL1        0.0178
     28 O           3.9559    0.3693   19.8092 O.3     1  UNL1       -0.4535
     29 C           4.1761   -1.0640   19.4254 C.ar    1  UNL1        0.1454
     30 C           3.1527   -2.1013   19.7808 C.ar    1  UNL1        0.0398
     31 C           3.3729   -3.5346   19.3971 C.ar    1  UNL1        0.0328
     32 C           4.6166   -3.9305   18.6578 C.ar    1  UNL1        0.1403
     33 F           4.8368   -5.3637   18.2741 F       1  UNL1       -0.2042
     34 C           5.6401   -2.8931   18.3024 C.ar    1  UNL1        0.0328
     35 C           5.4199   -1.4598   18.6861 C.ar    1  UNL1        0.0398
@<TRIPOS>BOND
     1     1     2    2
     2     2     3   am
     3     3    22    1
     4    22    23   ar
     5    23    24   ar
     6    24    25   ar
     7    25    28    1
     8    28    29    1
     9    29    30   ar
    10    30    31   ar
    11    31    32   ar
    12    32    33    1
    13    32    34   ar
    14    34    35   ar
    15    25    26   ar
    16    26    27   ar
    17     2     4   am
    18     4     5    1
    19     5     6    1
    20     6     7    1
    21     7     8   ar
    22     8     9   ar
    23     9    10   ar
    24    10    11   ar
    25    11    12   ar
    26    12    13    1
    27    13    15    1
    28    15    16   ar
    29    16    17   ar
    30    17    18   ar
    31    18    19    1
    32    18    20   ar
    33    20    21   ar
    34    27    22   ar
    35    13     4    1
    36    21    15   ar
    37    35    29   ar
    38    12     7   ar
    39     3    14    1
@<TRIPOS>MOLECULE
*****
 35 39 0 0 0
SMALL
GASTEIGER

@<TRIPOS>ATOM
      1 O           1.5589    1.0377   22.9385 O.2     1  UNL1       -0.2522
      2 C           2.3006    0.1992   23.9369 C.2     1  UNL1        0.3081
      3 N           2.0568    0.3896   25.4046 N.am    1  UNL1       -0.2681
      4 N           3.2860   -0.8297   23.4675 N.am    1  UNL1       -0.2576
      5 C           4.0277   -1.6682   24.4659 C.3     1  UNL1        0.1018
      6 C           5.0132   -2.6970   23.9966 C.3     1  UNL1        0.0671
      7 C           5.2570   -2.8874   22.5288 C.ar    1  UNL1        0.0586
      8 N           6.2424   -3.9163   22.0594 N.ar    1  UNL1       -0.2483
      9 C           6.4862   -4.1067   20.5917 C.ar    1  UNL1        0.0984
     10 C           5.7445   -3.2682   19.5933 C.ar    1  UNL1        0.0204
     11 C           4.7590   -2.2393   20.0626 C.ar    1  UNL1        0.0004
     12 C           4.5153   -2.0489   21.5304 C.ar    1  UNL1        0.0136
     13 C           3.5298   -1.0200   21.9998 C.3     1  UNL1        0.1231
     14 H           2.5436   -0.1607   26.0599 H       1  UNL1        0.1564
     15 C           2.7881   -0.1816   21.0013 C.ar    1  UNL1        0.0000
     16 C           1.4571   -0.6371   20.4808 C.ar    1  UNL1       -0.0015
     17 C           0.7154    0.2014   19.4824 C.ar    1  UNL1        0.0111
     18 C           1.3047    1.4954   19.0045 C.ar    1  UNL1        0.0577
     19 CL          0.5630    2.3339   18.0061 Cl      1  UNL1       -0.0822
     20 C           2.6357    1.9509   19.5251 C.ar    1  UNL1        0.0111
     21 C           3.3774    1.1124   20.5235 C.ar    1  UNL1       -0.0015
     22 C           1.0714    1.4184   25.8739 C.ar    1  UNL1        0.0518
     23 C           1.1980    2.8416   25.4171 C.ar    1  UNL1        0.0178
     24 C           0.2125    3.8705   25.8865 C.ar    1  UNL1        0.0388
     25 C          -0.8996    3.4762   26.8126 C.ar    1  UNL1        0.1454
     26 C          -1.0262    2.0531   27.2695 C.ar    1  UNL1        0.0388
     27 C          -0.0408    1.0242   26.8001 C.ar    1  UNL1        0.0178
     28 O          -1.8850    4.5050   27.2820 O.3     1  UNL1       -0.4535
     29 C          -3.2391    4.5933   26.6426 C.ar    1  UNL1        0.1454
     30 C          -3.5493    3.7715   25.4267 C.ar    1  UNL1        0.0398
     31 C          -4.9033    3.8597   24.7873 C.ar    1  UNL1        0.0328
     32 C          -5.9471    4.7697   25.3638 C.ar    1  UNL1        0.1403
     33 F          -7.3012    4.8579   24.7244 F       1  UNL1       -0.2042
     34 C          -5.6369    5.5915   26.5798 C.ar    1  UNL1        0.0328
     35 C          -4.2829    5.5033   27.2191 C.ar    1  UNL1        0.0398
@<TRIPOS>BOND
     1     1     2    2
     2     2     3   am
     3     3    22    1
     4    22    23   ar
     5    23    24   ar
     6    24    25   ar
     7    25    28    1
     8    28    29    1
     9    29    30   ar
    10    30    31   ar
    11    31    32   ar
    12    32    33    1
    13    32    34   ar
    14    34    35   ar
    15    25    26   ar
    16    26    27   ar
    17     2     4   am
    18     4     5    1
    19     5     6    1
    20     6     7    1
    21     7     8   ar
    22     8     9   ar
    23     9    10   ar
    24    10    11   ar
    25    11    12   ar
    26    12    13    1
    27    13    15    1
    28    15    16   ar
    29    16    17   ar
    30    17    18   ar
    31    18    19    1
    32    18    20   ar
    33    20    21   ar
    34    27    22   ar
    35    13     4    1
    36    21    15   ar
    37    35    29   ar
    38    12     7   ar
    39     3    14    1
@<TRIPOS>MOLECULE
*****
 35 39 0 0 0
SMALL
GASTEIGER

@<TRIPOS>ATOM
      1 O           1.9000    1.0763   23.3470 O.2     1  UNL1       -0.2522
      2 C           2.7018    0.0126   24.0368 C.2     1  UNL1        0.3081
      3 N           2.8617    0.0425   25.5279 N.am    1  UNL1       -0.2681
      4 N           3.3437   -1.0809   23.2353 N.am    1  UNL1       -0.2576
      5 C           4.1455   -2.1446   23.9251 C.3     1  UNL1        0.1018
      6 C           4.7873   -3.2381   23.1238 C.3     1  UNL1        0.0671
      7 C           4.6274   -3.2680   21.6326 C.ar    1  UNL1        0.0586
      8 N           5.2693   -4.3615   20.8312 N.ar    1  UNL1       -0.2483
      9 C           5.1094   -4.3913   19.3401 C.ar    1  UNL1        0.0984
     10 C           4.3076   -3.3277   18.6503 C.ar    1  UNL1        0.0204
     11 C           3.6657   -2.2342   19.4517 C.ar    1  UNL1        0.0004
     12 C           3.8256   -2.2043   20.9428 C.ar    1  UNL1        0.0136
     13 C           3.1838   -1.1108   21.7442 C.3     1  UNL1        0.1231
     14 H           3.3879   -0.6556   25.9806 H       1  UNL1        0.1564
     15 C           2.3820   -0.0471   21.0544 C.ar    1  UNL1        0.0000
     16 C           0.9167   -0.2535   20.8085 C.ar    1  UNL1       -0.0015
     17 C           0.1149    0.8102   20.1187 C.ar    1  UNL1        0.0111
     18 C           0.7784    2.0802   19.6749 C.ar    1  UNL1        0.0577
     19 CL         -0.0233    3.1438   18.9851 Cl      1  UNL1       -0.0822
     20 C           2.2436    2.2865   19.9209 C.ar    1  UNL1        0.0111
     21 C           3.0454    1.2228   20.6107 C.ar    1  UNL1       -0.0015
     22 C           2.2199    1.1360   26.3292 C.ar    1  UNL1        0.0518
     23 C           3.0349    2.3105   26.7832 C.ar    1  UNL1        0.0178
     24 C           2.3930    3.4041   27.5846 C.ar    1  UNL1        0.0388
     25 C           0.9361    3.3231   27.9320 C.ar    1  UNL1        0.1454
     26 C           0.1210    2.1485   27.4780 C.ar    1  UNL1        0.0388
     27 C           0.7628    1.0550   26.6766 C.ar    1  UNL1        0.0178
     28 O           0.2942    4.4166   28.7333 O.3     1  UNL1       -0.4535
     29 C           0.4418    4.4382   30.2259 C.ar    1  UNL1        0.1454
     30 C           0.1467    5.6944   30.9906 C.ar    1  UNL1        0.0398
     31 C           0.2943    5.7161   32.4831 C.ar    1  UNL1        0.0328
     32 C           0.7370    4.4815   33.2110 C.ar    1  UNL1        0.1403
     33 F           0.8846    4.5032   34.7036 F       1  UNL1       -0.2042
     34 C           1.0321    3.2252   32.4463 C.ar    1  UNL1        0.0328
     35 C           0.8845    3.2036   30.9537 C.ar    1  UNL1        0.0398
@<TRIPOS>BOND
     1     1     2    2
     2     2     3   am
     3     3    22    1
     4    22    23   ar
     5    23    24   ar
     6    24    25   ar
     7    25    28    1
     8    28    29    1
     9    29    30   ar
    10    30    31   ar
    11    31    32   ar
    12    32    33    1
    13    32    34   ar
    14    34    35   ar
    15    25    26   ar
    16    26    27   ar
    17     2     4   am
    18     4     5    1
    19     5     6    1
    20     6     7    1
    21     7     8   ar
    22     8     9   ar
    23     9    10   ar
    24    10    11   ar
    25    11    12   ar
    26    12    13    1
    27    13    15    1
    28    15    16   ar
    29    16    17   ar
    30    17    18   ar
    31    18    19    1
    32    18    20   ar
    33    20    21   ar
    34    27    22   ar
    35    13     4    1
    36    21    15   ar
    37    35    29   ar
    38    12     7   ar
    39     3    14    1
@<TRIPOS>MOLECULE
*****
 35 39 0 0 0
SMALL
GASTEIGER

@<TRIPOS>ATOM
      1 O           0.1367    2.5955   22.9057 O.2     1  UNL1       -0.2522
      2 C          -1.0967    2.8664   22.0962 C.2     1  UNL1        0.3081
      3 N          -1.1054    2.5802   20.6238 N.am    1  UNL1       -0.2681
      4 N          -2.3216    3.4234   22.7592 N.am    1  UNL1       -0.2576
      5 C          -3.5551    3.6942   21.9498 C.3     1  UNL1        0.1018
      6 C          -4.7799    4.2512   22.6127 C.3     1  UNL1        0.0671
      7 C          -4.7713    4.5373   24.0852 C.ar    1  UNL1        0.0586
      8 N          -5.9961    5.0943   24.7481 N.ar    1  UNL1       -0.2483
      9 C          -5.9875    5.3804   26.2205 C.ar    1  UNL1        0.0984
     10 C          -4.7540    5.1096   27.0300 C.ar    1  UNL1        0.0204
     11 C          -3.5292    4.5526   26.3671 C.ar    1  UNL1        0.0004
     12 C          -3.5379    4.2665   24.8947 C.ar    1  UNL1        0.0136
     13 C          -2.3130    3.7095   24.2316 C.3     1  UNL1        0.1231
     14 H          -1.9149    2.7580   20.0925 H       1  UNL1        0.1564
     15 C          -1.0795    3.4387   25.0411 C.ar    1  UNL1        0.0000
     16 C          -0.8804    2.0952   25.6780 C.ar    1  UNL1       -0.0015
     17 C           0.3531    1.8244   26.4874 C.ar    1  UNL1        0.0111
     18 C           1.3874    2.8970   26.6600 C.ar    1  UNL1        0.0577
     19 CL          2.6209    2.6261   27.4695 Cl      1  UNL1       -0.0822
     20 C           1.1882    4.2404   26.0232 C.ar    1  UNL1        0.0111
     21 C          -0.0452    4.5112   25.2137 C.ar    1  UNL1       -0.0015
     22 C           0.1195    2.0233   19.9609 C.ar    1  UNL1        0.0518
     23 C           0.4039    0.5519   20.0256 C.ar    1  UNL1        0.0178
     24 C           1.6288   -0.0050   19.3626 C.ar    1  UNL1        0.0388
     25 C           2.5692    0.9094   18.6349 C.ar    1  UNL1        0.1454
     26 C           2.2848    2.3807   18.5702 C.ar    1  UNL1        0.0388
     27 C           1.0599    2.9377   19.2332 C.ar    1  UNL1        0.0178
     28 O           3.7940    0.3524   17.9720 O.3     1  UNL1       -0.4535
     29 C           4.5195   -0.8065   18.5890 C.ar    1  UNL1        0.1454
     30 C           4.5300   -2.1381   17.8987 C.ar    1  UNL1        0.0398
     31 C           5.2555   -3.2970   18.5157 C.ar    1  UNL1        0.0328
     32 C           5.9704   -3.1242   19.8230 C.ar    1  UNL1        0.1403
     33 F           6.6959   -4.2831   20.4400 F       1  UNL1       -0.2042
     34 C           5.9599   -1.7925   20.5133 C.ar    1  UNL1        0.0328
     35 C           5.2345   -0.6336   19.8963 C.ar    1  UNL1        0.0398
@<TRIPOS>BOND
     1     1     2    2
     2     2     3   am
     3     3    22    1
     4    22    23   ar
     5    23    24   ar
     6    24    25   ar
     7    25    28    1
     8    28    29    1
     9    29    30   ar
    10    30    31   ar
    11    31    32   ar
    12    32    33    1
    13    32    34   ar
    14    34    35   ar
    15    25    26   ar
    16    26    27   ar
    17     2     4   am
    18     4     5    1
    19     5     6    1
    20     6     7    1
    21     7     8   ar
    22     8     9   ar
    23     9    10   ar
    24    10    11   ar
    25    11    12   ar
    26    12    13    1
    27    13    15    1
    28    15    16   ar
    29    16    17   ar
    30    17    18   ar
    31    18    19    1
    32    18    20   ar
    33    20    21   ar
    34    27    22   ar
    35    13     4    1
    36    21    15   ar
    37    35    29   ar
    38    12     7   ar
    39     3    14    1
@<TRIPOS>MOLECULE
*****
 35 39 0 0 0
SMALL
GASTEIGER

@<TRIPOS>ATOM
      1 O           3.6007   -0.5919   26.5273 O.2     1  UNL1       -0.2522
      2 C           4.7204   -1.4648   27.0114 C.2     1  UNL1        0.3081
      3 N           5.5615   -2.2210   26.0263 N.am    1  UNL1       -0.2681
      4 N           4.9990   -1.5813   28.4808 N.am    1  UNL1       -0.2576
      5 C           6.1187   -2.4542   28.9649 C.3     1  UNL1        0.1018
      6 C           6.3974   -2.5708   30.4341 C.3     1  UNL1        0.0671
      7 C           5.5562   -1.8145   31.4194 C.ar    1  UNL1        0.0586
      8 N           5.8349   -1.9310   32.8886 N.ar    1  UNL1       -0.2483
      9 C           4.9938   -1.1748   33.8737 C.ar    1  UNL1        0.0984
     10 C           3.8740   -0.3019   33.3896 C.ar    1  UNL1        0.0204
     11 C           3.5954   -0.1854   31.9204 C.ar    1  UNL1        0.0004
     12 C           4.4365   -0.9416   30.9353 C.ar    1  UNL1        0.0136
     13 C           4.1579   -0.8251   29.4659 C.3     1  UNL1        0.1231
     14 H           6.2964   -2.7939   26.3440 H       1  UNL1        0.1564
     15 C           3.0382    0.0478   28.9818 C.ar    1  UNL1        0.0000
     16 C           3.3033    1.4817   28.6301 C.ar    1  UNL1       -0.0015
     17 C           2.1836    2.3546   28.1460 C.ar    1  UNL1        0.0111
     18 C           0.7987    1.7935   28.0136 C.ar    1  UNL1        0.0577
     19 CL         -0.3210    2.6663   27.5295 Cl      1  UNL1       -0.0822
     20 C           0.5337    0.3596   28.3654 C.ar    1  UNL1        0.0111
     21 C           1.6534   -0.5132   28.8495 C.ar    1  UNL1       -0.0015
     22 C           5.2829   -2.1045   24.5570 C.ar    1  UNL1        0.0518
     23 C           5.2774   -0.7563   23.8994 C.ar    1  UNL1        0.0178
     24 C           4.9987   -0.6398   22.4300 C.ar    1  UNL1        0.0388
     25 C           4.7256   -1.8713   21.6185 C.ar    1  UNL1        0.1454
     26 C           4.7312   -3.2195   22.2762 C.ar    1  UNL1        0.0388
     27 C           5.0098   -3.3360   23.7454 C.ar    1  UNL1        0.0178
     28 O           4.4470   -1.7548   20.1492 O.3     1  UNL1       -0.4535
     29 C           3.3826   -0.8181   19.6597 C.ar    1  UNL1        0.1454
     30 C           3.7253    0.2548   18.6692 C.ar    1  UNL1        0.0398
     31 C           2.6609    1.1915   18.1796 C.ar    1  UNL1        0.0328
     32 C           1.2536    1.0552   18.6807 C.ar    1  UNL1        0.1403
     33 F           0.1892    1.9918   18.1911 F       1  UNL1       -0.2042
     34 C           0.9108   -0.0178   19.6713 C.ar    1  UNL1        0.0328
     35 C           1.9753   -0.9545   20.1608 C.ar    1  UNL1        0.0398
@<TRIPOS>BOND
     1     1     2    2
     2     2     3   am
     3     3    22    1
     4    22    23   ar
     5    23    24   ar
     6    24    25   ar
     7    25    28    1
     8    28    29    1
     9    29    30   ar
    10    30    31   ar
    11    31    32   ar
    12    32    33    1
    13    32    34   ar
    14    34    35   ar
    15    25    26   ar
    16    26    27   ar
    17     2     4   am
    18     4     5    1
    19     5     6    1
    20     6     7    1
    21     7     8   ar
    22     8     9   ar
    23     9    10   ar
    24    10    11   ar
    25    11    12   ar
    26    12    13    1
    27    13    15    1
    28    15    16   ar
    29    16    17   ar
    30    17    18   ar
    31    18    19    1
    32    18    20   ar
    33    20    21   ar
    34    27    22   ar
    35    13     4    1
    36    21    15   ar
    37    35    29   ar
    38    12     7   ar
    39     3    14    1
@<TRIPOS>MOLECULE
*****
 35 39 0 0 0
SMALL
GASTEIGER

@<TRIPOS>ATOM
      1 O           5.7541   -1.0446   30.3008 O.2     1  UNL1       -0.2522
      2 C           6.1321   -2.3310   30.9733 C.2     1  UNL1        0.3081
      3 N           6.1196   -2.4267   32.4701 N.am    1  UNL1       -0.2681
      4 N           6.5226   -3.5218   30.1488 N.am    1  UNL1       -0.2576
      5 C           6.9006   -4.8082   30.8213 C.3     1  UNL1        0.1018
      6 C           7.2911   -5.9989   29.9969 C.3     1  UNL1        0.0671
      7 C           7.3036   -5.9033   28.5000 C.ar    1  UNL1        0.0586
      8 N           7.6941   -7.0940   27.6756 N.ar    1  UNL1       -0.2483
      9 C           7.7066   -6.9983   26.1787 C.ar    1  UNL1        0.0984
     10 C           7.3286   -5.7119   25.5063 C.ar    1  UNL1        0.0204
     11 C           6.9381   -4.5212   26.3306 C.ar    1  UNL1        0.0004
     12 C           6.9256   -4.6169   27.8275 C.ar    1  UNL1        0.0136
     13 C           6.5351   -3.4261   28.6520 C.3     1  UNL1        0.1231
     14 H           6.3677   -3.2710   32.9115 H       1  UNL1        0.1564
     15 C           6.1571   -2.1397   27.9795 C.ar    1  UNL1        0.0000
     16 C           7.2061   -1.1060   27.6944 C.ar    1  UNL1       -0.0015
     17 C           6.8280    0.1805   27.0219 C.ar    1  UNL1        0.0111
     18 C           5.4011    0.4332   26.6345 C.ar    1  UNL1        0.0577
     19 CL          5.0231    1.7196   25.9620 Cl      1  UNL1       -0.0822
     20 C           4.3522   -0.6005   26.9196 C.ar    1  UNL1        0.0111
     21 C           4.7302   -1.8869   27.5921 C.ar    1  UNL1       -0.0015
     22 C           5.7291   -1.2360   33.2945 C.ar    1  UNL1        0.0518
     23 C           6.7783   -0.4567   34.0306 C.ar    1  UNL1        0.0178
     24 C           6.3878    0.7341   34.8550 C.ar    1  UNL1        0.0388
     25 C           4.9480    1.1455   34.9433 C.ar    1  UNL1        0.1454
     26 C           3.8988    0.3662   34.2072 C.ar    1  UNL1        0.0388
     27 C           4.2893   -0.8245   33.3828 C.ar    1  UNL1        0.0178
     28 O           4.5575    2.3363   35.7677 O.3     1  UNL1       -0.4535
     29 C           3.5430    2.1901   36.8628 C.ar    1  UNL1        0.1454
     30 C           2.4921    3.2427   37.0570 C.ar    1  UNL1        0.0398
     31 C           1.4776    3.0966   38.1521 C.ar    1  UNL1        0.0328
     32 C           1.5139    1.8979   39.0531 C.ar    1  UNL1        0.1403
     33 F           0.4994    1.7518   40.1483 F       1  UNL1       -0.2042
     34 C           2.5649    0.8453   38.8590 C.ar    1  UNL1        0.0328
     35 C           3.5794    0.9914   37.7638 C.ar    1  UNL1        0.0398
@<TRIPOS>BOND
     1     1     2    2
     2     2     3   am
     3     3    22    1
     4    22    23   ar
     5    23    24   ar
     6    24    25   ar
     7    25    28    1
     8    28    29    1
     9    29    30   ar
    10    30    31   ar
    11    31    32   ar
    12    32    33    1
    13    32    34   ar
    14    34    35   ar
    15    25    26   ar
    16    26    27   ar
    17     2     4   am
    18     4     5    1
    19     5     6    1
    20     6     7    1
    21     7     8   ar
    22     8     9   ar
    23     9    10   ar
    24    10    11   ar
    25    11    12   ar
    26    12    13    1
    27    13    15    1
    28    15    16   ar
    29    16    17   ar
    30    17    18   ar
    31    18    19    1
    32    18    20   ar
    33    20    21   ar
    34    27    22   ar
    35    13     4    1
    36    21    15   ar
    37    35    29   ar
    38    12     7   ar
    39     3    14    1
@<TRIPOS>MOLECULE
*****
 35 39 0 0 0
SMALL
GASTEIGER

@<TRIPOS>ATOM
      1 O           5.7639   -2.0881   24.8112 O.2     1  UNL1       -0.2522
      2 C           6.2283   -3.5144   24.8178 C.2     1  UNL1        0.3081
      3 N           6.3661   -4.2643   23.5261 N.am    1  UNL1       -0.2681
      4 N           6.5550   -4.1907   26.1163 N.am    1  UNL1       -0.2576
      5 C           7.0195   -5.6170   26.1229 C.3     1  UNL1        0.1018
      6 C           7.3462   -6.2934   27.4212 C.3     1  UNL1        0.0671
      7 C           7.2084   -5.5434   28.7131 C.ar    1  UNL1        0.0586
      8 N           7.5352   -6.2198   30.0114 N.ar    1  UNL1       -0.2483
      9 C           7.3974   -5.4699   31.3031 C.ar    1  UNL1        0.0984
     10 C           6.9330   -4.0436   31.2965 C.ar    1  UNL1        0.0204
     11 C           6.6063   -3.3673   29.9982 C.ar    1  UNL1        0.0004
     12 C           6.7440   -4.1172   28.7064 C.ar    1  UNL1        0.0136
     13 C           6.4173   -3.4408   27.4080 C.3     1  UNL1        0.1231
     14 H           6.6709   -5.2004   23.5304 H       1  UNL1        0.1564
     15 C           5.9528   -2.0145   27.4014 C.ar    1  UNL1        0.0000
     16 C           4.4892   -1.7019   27.5029 C.ar    1  UNL1       -0.0015
     17 C           4.0248   -0.2756   27.4963 C.ar    1  UNL1        0.0111
     18 C           5.0239    0.8380   27.3881 C.ar    1  UNL1        0.0577
     19 CL          4.5595    2.2643   27.3815 Cl      1  UNL1       -0.0822
     20 C           6.4874    0.5253   27.2866 C.ar    1  UNL1        0.0111
     21 C           6.9519   -0.9009   27.2932 C.ar    1  UNL1       -0.0015
     22 C           6.0393   -3.5879   22.2277 C.ar    1  UNL1        0.0518
     23 C           7.1360   -2.9921   21.3957 C.ar    1  UNL1        0.0178
     24 C           6.8092   -2.3157   20.0973 C.ar    1  UNL1        0.0388
     25 C           5.3859   -2.2352   19.6310 C.ar    1  UNL1        0.1454
     26 C           4.2892   -2.8310   20.4630 C.ar    1  UNL1        0.0388
     27 C           4.6159   -3.5074   21.7614 C.ar    1  UNL1        0.0178
     28 O           5.0592   -1.5588   18.3326 O.3     1  UNL1       -0.4535
     29 C           4.3872   -0.2178   18.3339 C.ar    1  UNL1        0.1454
     30 C           2.8900   -0.1291   18.3560 C.ar    1  UNL1        0.0398
     31 C           2.2180    1.2119   18.3572 C.ar    1  UNL1        0.0328
     32 C           3.0432    2.4643   18.3363 C.ar    1  UNL1        0.1403
     33 F           2.3712    3.8054   18.3375 F       1  UNL1       -0.2042
     34 C           4.5404    2.3757   18.3141 C.ar    1  UNL1        0.0328
     35 C           5.2124    1.0347   18.3129 C.ar    1  UNL1        0.0398
@<TRIPOS>BOND
     1     1     2    2
     2     2     3   am
     3     3    22    1
     4    22    23   ar
     5    23    24   ar
     6    24    25   ar
     7    25    28    1
     8    28    29    1
     9    29    30   ar
    10    30    31   ar
    11    31    32   ar
    12    32    33    1
    13    32    34   ar
    14    34    35   ar
    15    25    26   ar
    16    26    27   ar
    17     2     4   am
    18     4     5    1
    19     5     6    1
    20     6     7    1
    21     7     8   ar
    22     8     9   ar
    23     9    10   ar
    24    10    11   ar
    25    11    12   ar
    26    12    13    1
    27    13    15    1
    28    15    16   ar
    29    16    17   ar
    30    17    18   ar
    31    18    19    1
    32    18    20   ar
    33    20    21   ar
    34    27    22   ar
    35    13     4    1
    36    21    15   ar
    37    35    29   ar
    38    12     7   ar
    39     3    14    1
@<TRIPOS>MOLECULE
*****
 35 39 0 0 0
SMALL
GASTEIGER

@<TRIPOS>ATOM
      1 O           5.7540   -2.1330   24.2838 O.2     1  UNL1       -0.2522
      2 C           6.2917   -3.0274   23.2063 C.2     1  UNL1        0.3081
      3 N           7.1979   -4.1686   23.5616 N.am    1  UNL1       -0.2681
      4 N           5.9230   -2.7805   21.7733 N.am    1  UNL1       -0.2576
      5 C           6.4607   -3.6749   20.6958 C.3     1  UNL1        0.1018
      6 C           6.0921   -3.4280   19.2629 C.3     1  UNL1        0.0671
      7 C           5.1858   -2.2868   18.9075 C.ar    1  UNL1        0.0586
      8 N           4.8172   -2.0400   17.4746 N.ar    1  UNL1       -0.2483
      9 C           3.9109   -0.8988   17.1193 C.ar    1  UNL1        0.0984
     10 C           3.3732   -0.0045   18.1968 C.ar    1  UNL1        0.0204
     11 C           3.7418   -0.2513   19.6297 C.ar    1  UNL1        0.0004
     12 C           4.6481   -1.3925   19.9850 C.ar    1  UNL1        0.0136
     13 C           5.0167   -1.6393   21.4180 C.3     1  UNL1        0.1231
     14 H           7.5509   -4.7555   22.8544 H       1  UNL1        0.1564
     15 C           4.4790   -0.7450   22.4955 C.ar    1  UNL1        0.0000
     16 C           5.2577    0.4629   22.9256 C.ar    1  UNL1       -0.0015
     17 C           4.7200    1.3572   24.0031 C.ar    1  UNL1        0.0111
     18 C           3.4036    1.0437   24.6505 C.ar    1  UNL1        0.0577
     19 CL          2.8659    1.9380   25.7280 Cl      1  UNL1       -0.0822
     20 C           2.6251   -0.1641   24.2204 C.ar    1  UNL1        0.0111
     21 C           3.1628   -1.0584   23.1429 C.ar    1  UNL1       -0.0015
     22 C           7.5665   -4.4154   24.9945 C.ar    1  UNL1        0.0518
     23 C           6.9110   -5.5287   25.7565 C.ar    1  UNL1        0.0178
     24 C           7.2796   -5.7755   27.1894 C.ar    1  UNL1        0.0388
     25 C           8.3038   -4.9090   27.8603 C.ar    1  UNL1        0.1454
     26 C           8.9593   -3.7956   27.0983 C.ar    1  UNL1        0.0388
     27 C           8.5908   -3.5488   25.6655 C.ar    1  UNL1        0.0178
     28 O           8.6724   -5.1558   29.2932 O.3     1  UNL1       -0.4535
     29 C           8.1468   -4.2524   30.3691 C.ar    1  UNL1        0.1454
     30 C           6.6872   -3.9100   30.4143 C.ar    1  UNL1        0.0398
     31 C           6.1616   -3.0066   31.4902 C.ar    1  UNL1        0.0328
     32 C           7.0958   -2.4456   32.5210 C.ar    1  UNL1        0.1403
     33 F           6.5702   -1.5421   33.5970 F       1  UNL1       -0.2042
     34 C           8.5555   -2.7880   32.4759 C.ar    1  UNL1        0.0328
     35 C           9.0811   -3.6914   31.4000 C.ar    1  UNL1        0.0398
@<TRIPOS>BOND
     1     1     2    2
     2     2     3   am
     3     3    22    1
     4    22    23   ar
     5    23    24   ar
     6    24    25   ar
     7    25    28    1
     8    28    29    1
     9    29    30   ar
    10    30    31   ar
    11    31    32   ar
    12    32    33    1
    13    32    34   ar
    14    34    35   ar
    15    25    26   ar
    16    26    27   ar
    17     2     4   am
    18     4     5    1
    19     5     6    1
    20     6     7    1
    21     7     8   ar
    22     8     9   ar
    23     9    10   ar
    24    10    11   ar
    25    11    12   ar
    26    12    13    1
    27    13    15    1
    28    15    16   ar
    29    16    17   ar
    30    17    18   ar
    31    18    19    1
    32    18    20   ar
    33    20    21   ar
    34    27    22   ar
    35    13     4    1
    36    21    15   ar
    37    35    29   ar
    38    12     7   ar
    39     3    14    1
