@<TRIPOS>MOLECULE
*****
 41 46 0 0 0
SMALL
GASTEIGER

@<TRIPOS>ATOM
      1 C           7.5091   -5.6810   26.6374 C.ar    1  UNL1        0.2219
      2 N           8.7741   -6.0035   25.8987 N.ar    1  UNL1       -0.2096
      3 C           9.0256   -5.4064   24.5458 C.ar    1  UNL1        0.1329
      4 C           8.0121   -4.4868   23.9318 C.ar    1  UNL1        0.1768
      5 F           8.2635   -3.8897   22.5789 F       1  UNL1       -0.2009
      6 C           6.7471   -4.1643   24.6706 C.ar    1  UNL1        0.1132
      7 N           6.4956   -4.7614   26.0234 N.ar    1  UNL1       -0.2112
      8 C           5.7335   -3.2447   24.0564 C.ar    1  UNL1        0.0238
      9 C           5.1209   -2.1486   24.8770 C.ar    1  UNL1        0.0329
     10 C           4.1075   -1.2289   24.2629 C.ar    1  UNL1        0.1591
     11 F           3.4949   -0.1328   25.0835 F       1  UNL1       -0.2025
     12 C           3.7066   -1.4054   22.8284 C.ar    1  UNL1        0.1256
     13 N           2.7406   -0.6586   21.9570 N.ar    1  UNL1       -0.2287
     14 C           2.7562   -1.2932   20.5979 C.ar    1  UNL1        0.1207
     15 C           1.9396   -0.8641   19.4151 C.3     1  UNL1        0.0718
     16 N           3.7318   -2.4321   20.6293 N.ar    1  UNL1       -0.3167
     17 C           4.3192   -2.5015   22.0078 C.ar    1  UNL1        0.0808
     18 C           5.3327   -3.4211   22.6219 C.ar    1  UNL1        0.0205
     19 C           4.0621   -3.3420   19.4834 C.3     1  UNL1        0.0867
     20 C           3.4246   -4.6968   19.3937 C.3     1  UNL1        0.0245
     21 C           5.0297   -2.8970   18.4271 C.3     1  UNL1        0.0245
     22 N           7.2576   -6.2781   27.9903 N.pl3   1  UNL1       -0.2680
     23 H           7.2546   -7.2561   28.1039 H       1  UNL1        0.1565
     24 N           5.8529   -1.2818   32.4973 N.3     1  UNL1       -0.2698
     25 C           5.6823   -0.7496   31.1054 C.3     1  UNL1        0.0786
     26 C           5.9291   -1.6424   29.9256 C.3     1  UNL1        0.0629
     27 C           6.3466   -3.0675   30.1378 C.ar    1  UNL1        0.0591
     28 N           6.5934   -3.9603   28.9579 N.ar    1  UNL1       -0.2351
     29 C           7.0108   -5.3853   29.1701 C.ar    1  UNL1        0.1339
     30 C           7.1814   -5.9175   30.5622 C.ar    1  UNL1        0.0342
     31 C           6.9346   -5.0247   31.7419 C.ar    1  UNL1        0.0011
     32 C           6.5172   -3.5997   31.5298 C.ar    1  UNL1        0.0076
     33 C           6.2704   -2.7069   32.7095 C.3     1  UNL1        0.1003
     34 N           5.1125    1.3966   36.0369 N.3     1  UNL1       -0.2726
     35 C           5.8040    1.9359   34.8200 C.3     1  UNL1        0.0735
     36 C           6.0509    1.0430   33.6401 C.3     1  UNL1        0.0333
     37 C           5.6061   -0.3890   33.6772 C.3     1  UNL1        0.0606
     38 C           4.9146   -0.9283   34.8941 C.3     1  UNL1        0.0333
     39 C           4.6678   -0.0356   36.0740 C.3     1  UNL1        0.0735
     40 C           4.2964    1.7196   38.4822 C.3     1  UNL1        0.0188
     41 C           4.8657    2.2893   37.2167 C.3     1  UNL1        0.0721
@<TRIPOS>BOND
     1    40    41    1
     2    41    34    1
     3    34    35    1
     4    35    36    1
     5    36    37    1
     6    37    24    1
     7    24    25    1
     8    25    26    1
     9    26    27    1
    10    27    28   ar
    11    28    29   ar
    12    29    22    1
    13    22     1    1
    14     1     2   ar
    15     2     3   ar
    16     3     4   ar
    17     4     5    1
    18     4     6   ar
    19     6     8    1
    20     8     9   ar
    21     9    10   ar
    22    10    11    1
    23    10    12   ar
    24    12    13   ar
    25    13    14   ar
    26    14    15    1
    27    14    16   ar
    28    16    19    1
    29    19    20    1
    30    19    21    1
    31    16    17   ar
    32    17    18   ar
    33     6     7   ar
    34    29    30   ar
    35    30    31   ar
    36    31    32   ar
    37    32    33    1
    38    37    38    1
    39    38    39    1
    40    39    34    1
    41    33    24    1
    42    32    27   ar
    43     7     1   ar
    44    18     8   ar
    45    17    12   ar
    46    22    23    1
@<TRIPOS>MOLECULE
*****
 41 46 0 0 0
SMALL
GASTEIGER

@<TRIPOS>ATOM
      1 C           8.0133   -5.4490   24.0756 C.ar    1  UNL1        0.2219
      2 N           9.3798   -5.1135   23.5558 N.ar    1  UNL1       -0.2096
      3 C           9.5294   -4.2088   22.3688 C.ar    1  UNL1        0.1329
      4 C           8.3126   -3.6398   21.7014 C.ar    1  UNL1        0.1768
      5 F           8.4622   -2.7351   20.5143 F       1  UNL1       -0.2009
      6 C           6.9461   -3.9753   22.2212 C.ar    1  UNL1        0.1132
      7 N           6.7964   -4.8800   23.4082 N.ar    1  UNL1       -0.2112
      8 C           5.7292   -3.4062   21.5538 C.ar    1  UNL1        0.0238
      9 C           5.2188   -4.0137   20.2808 C.ar    1  UNL1        0.0329
     10 C           4.0019   -3.4446   19.6134 C.ar    1  UNL1        0.1591
     11 F           3.4915   -4.0521   18.3404 F       1  UNL1       -0.2025
     12 C           3.2956   -2.2681   20.2189 C.ar    1  UNL1        0.1256
     13 N           2.0818   -1.4973   19.7916 N.ar    1  UNL1       -0.2287
     14 C           1.8420   -0.4134   20.8005 C.ar    1  UNL1        0.1207
     15 C           0.7316    0.5944   20.7647 C.3     1  UNL1        0.0718
     16 N           2.9076   -0.5144   21.8513 N.ar    1  UNL1       -0.3167
     17 C           3.8060   -1.6606   21.4919 C.ar    1  UNL1        0.0808
     18 C           5.0228   -2.2297   22.1593 C.ar    1  UNL1        0.0205
     19 C           3.0499    0.3749   23.0509 C.3     1  UNL1        0.0867
     20 C           3.4872    1.7995   22.8807 C.3     1  UNL1        0.0245
     21 C           2.7549   -0.1605   24.4207 C.3     1  UNL1        0.0245
     22 N           7.8637   -6.3537   25.2627 N.pl3   1  UNL1       -0.2680
     23 H           7.9593   -7.3276   25.1546 H       1  UNL1        0.1565
     24 N           6.1730   -2.6315   30.7887 N.3     1  UNL1       -0.2698
     25 C           5.9587   -1.8048   29.5555 C.3     1  UNL1        0.0786
     26 C           6.2540   -2.3839   28.2038 C.3     1  UNL1        0.0629
     27 C           6.7636   -3.7897   28.0851 C.ar    1  UNL1        0.0591
     28 N           7.0589   -4.3688   26.7332 N.ar    1  UNL1       -0.2351
     29 C           7.5684   -5.7746   26.6145 C.ar    1  UNL1        0.1339
     30 C           7.7827   -6.6013   27.8477 C.ar    1  UNL1        0.0342
     31 C           7.4874   -6.0222   29.1995 C.ar    1  UNL1        0.0011
     32 C           6.9779   -4.6164   29.3182 C.ar    1  UNL1        0.0076
     33 C           6.6826   -4.0373   30.6700 C.3     1  UNL1        0.1003
     34 N           5.2871   -0.8942   34.8443 N.3     1  UNL1       -0.2726
     35 C           6.5707   -0.5538   34.1466 C.3     1  UNL1        0.0735
     36 C           6.8660   -1.1329   32.7947 C.3     1  UNL1        0.0333
     37 C           5.8777   -2.0523   32.1406 C.3     1  UNL1        0.0606
     38 C           4.5942   -2.3927   32.8382 C.3     1  UNL1        0.0333
     39 C           4.2989   -1.8137   34.1900 C.3     1  UNL1        0.0735
     40 C           5.9812    0.6022   36.8514 C.3     1  UNL1        0.0188
     41 C           4.9918   -0.3151   36.1961 C.3     1  UNL1        0.0721
@<TRIPOS>BOND
     1    40    41    1
     2    41    34    1
     3    34    35    1
     4    35    36    1
     5    36    37    1
     6    37    24    1
     7    24    25    1
     8    25    26    1
     9    26    27    1
    10    27    28   ar
    11    28    29   ar
    12    29    22    1
    13    22     1    1
    14     1     2   ar
    15     2     3   ar
    16     3     4   ar
    17     4     5    1
    18     4     6   ar
    19     6     8    1
    20     8     9   ar
    21     9    10   ar
    22    10    11    1
    23    10    12   ar
    24    12    13   ar
    25    13    14   ar
    26    14    15    1
    27    14    16   ar
    28    16    19    1
    29    19    20    1
    30    19    21    1
    31    16    17   ar
    32    17    18   ar
    33     6     7   ar
    34    29    30   ar
    35    30    31   ar
    36    31    32   ar
    37    32    33    1
    38    37    38    1
    39    38    39    1
    40    39    34    1
    41    33    24    1
    42    32    27   ar
    43     7     1   ar
    44    18     8   ar
    45    17    12   ar
    46    22    23    1
@<TRIPOS>MOLECULE
*****
 41 46 0 0 0
SMALL
GASTEIGER

@<TRIPOS>ATOM
      1 C           7.7416   -5.4253   23.8765 C.ar    1  UNL1        0.2219
      2 N           9.1560   -5.5208   23.3864 N.ar    1  UNL1       -0.2096
      3 C           9.5360   -4.9123   22.0691 C.ar    1  UNL1        0.1329
      4 C           8.5015   -4.2082   21.2420 C.ar    1  UNL1        0.1768
      5 F           8.8814   -3.5996   19.9246 F       1  UNL1       -0.2009
      6 C           7.0871   -4.1128   21.7321 C.ar    1  UNL1        0.1132
      7 N           6.7071   -4.7213   23.0494 N.ar    1  UNL1       -0.2112
      8 C           6.0526   -3.4087   20.9050 C.ar    1  UNL1        0.0238
      9 C           4.9988   -4.2004   20.1889 C.ar    1  UNL1        0.0329
     10 C           3.9643   -3.4964   19.3618 C.ar    1  UNL1        0.1591
     11 F           2.9105   -4.2882   18.6457 F       1  UNL1       -0.2025
     12 C           3.9836   -2.0007   19.2506 C.ar    1  UNL1        0.1256
     13 N           3.1006   -1.0375   18.5142 N.ar    1  UNL1       -0.2287
     14 C           3.6086    0.3496   18.7750 C.ar    1  UNL1        0.1207
     15 C           3.0225    1.6196   18.2333 C.3     1  UNL1        0.0718
     16 N           4.8056    0.2436   19.6727 N.ar    1  UNL1       -0.3167
     17 C           5.0374   -1.2090   19.9667 C.ar    1  UNL1        0.0808
     18 C           6.0719   -1.9130   20.7938 C.ar    1  UNL1        0.0205
     19 C           5.6267    1.3891   20.1863 C.3     1  UNL1        0.0867
     20 C           5.0883    2.2687   21.2755 C.3     1  UNL1        0.0245
     21 C           6.9861    1.6550   19.6107 C.3     1  UNL1        0.0245
     22 N           7.3616   -6.0340   25.1939 N.pl3   1  UNL1       -0.2680
     23 H           7.2629   -7.0101   25.2749 H       1  UNL1        0.1565
     24 N           6.4740   -3.1058   31.3492 N.3     1  UNL1       -0.2698
     25 C           6.7338   -4.5713   31.5355 C.3     1  UNL1        0.0786
     26 C           6.9633   -5.4500   30.3417 C.3     1  UNL1        0.0629
     27 C           6.9330   -4.8632   28.9616 C.ar    1  UNL1        0.0591
     28 N           7.1625   -5.7420   27.7678 N.ar    1  UNL1       -0.2351
     29 C           7.1322   -5.1552   26.3877 C.ar    1  UNL1        0.1339
     30 C           6.8724   -3.6897   26.2013 C.ar    1  UNL1        0.0342
     31 C           6.6429   -2.8109   27.3951 C.ar    1  UNL1        0.0011
     32 C           6.6732   -3.3977   28.7753 C.ar    1  UNL1        0.0076
     33 C           6.4437   -2.5190   29.9690 C.3     1  UNL1        0.1003
     34 N           5.7855   -0.4695   34.9306 N.3     1  UNL1       -0.2726
     35 C           7.1415   -0.5279   34.2918 C.3     1  UNL1        0.0735
     36 C           7.3710   -1.4067   33.0980 C.3     1  UNL1        0.0333
     37 C           6.2445   -2.2270   32.5430 C.3     1  UNL1        0.0606
     38 C           4.8886   -2.1687   33.1817 C.3     1  UNL1        0.0333
     39 C           4.6591   -1.2900   34.3755 C.3     1  UNL1        0.0735
     40 C           4.3366    0.2142   36.9757 C.3     1  UNL1        0.0188
     41 C           5.5560    0.4092   36.1243 C.3     1  UNL1        0.0721
@<TRIPOS>BOND
     1    40    41    1
     2    41    34    1
     3    34    35    1
     4    35    36    1
     5    36    37    1
     6    37    24    1
     7    24    25    1
     8    25    26    1
     9    26    27    1
    10    27    28   ar
    11    28    29   ar
    12    29    22    1
    13    22     1    1
    14     1     2   ar
    15     2     3   ar
    16     3     4   ar
    17     4     5    1
    18     4     6   ar
    19     6     8    1
    20     8     9   ar
    21     9    10   ar
    22    10    11    1
    23    10    12   ar
    24    12    13   ar
    25    13    14   ar
    26    14    15    1
    27    14    16   ar
    28    16    19    1
    29    19    20    1
    30    19    21    1
    31    16    17   ar
    32    17    18   ar
    33     6     7   ar
    34    29    30   ar
    35    30    31   ar
    36    31    32   ar
    37    32    33    1
    38    37    38    1
    39    38    39    1
    40    39    34    1
    41    33    24    1
    42    32    27   ar
    43     7     1   ar
    44    18     8   ar
    45    17    12   ar
    46    22    23    1
@<TRIPOS>MOLECULE
*****
 41 46 0 0 0
SMALL
GASTEIGER

@<TRIPOS>ATOM
      1 C           4.4524    2.0971   37.7838 C.ar    1  UNL1        0.2219
      2 N           3.7349    1.5876   38.9986 N.ar    1  UNL1       -0.2096
      3 C           2.3091    1.9811   39.2476 C.ar    1  UNL1        0.1329
      4 C           1.6006    2.8840   38.2818 C.ar    1  UNL1        0.1768
      5 F           0.1747    3.2775   38.5308 F       1  UNL1       -0.2009
      6 C           2.3181    3.3935   37.0670 C.ar    1  UNL1        0.1132
      7 N           3.7439    3.0000   36.8180 N.ar    1  UNL1       -0.2112
      8 C           1.6095    4.2964   36.1012 C.ar    1  UNL1        0.0238
      9 C           0.9493    5.5503   36.5930 C.ar    1  UNL1        0.0329
     10 C           0.2409    6.4532   35.6272 C.ar    1  UNL1        0.1591
     11 F          -0.4193    7.7072   36.1190 F       1  UNL1       -0.2025
     12 C           0.1926    6.1023   34.1697 C.ar    1  UNL1        0.1256
     13 N          -0.4270    6.7928   32.9910 N.ar    1  UNL1       -0.2287
     14 C          -0.1497    5.9657   31.7707 C.ar    1  UNL1        0.1207
     15 C          -0.5867    6.2844   30.3716 C.3     1  UNL1        0.0718
     16 N           0.6412    4.7640   32.1953 N.ar    1  UNL1       -0.3167
     17 C           0.8528    4.8484   33.6779 C.ar    1  UNL1        0.0808
     18 C           1.5612    3.9454   34.6436 C.ar    1  UNL1        0.0205
     19 C           1.1340    3.6699   31.2952 C.3     1  UNL1        0.0867
     20 C           2.2893    3.9216   30.3721 C.3     1  UNL1        0.0245
     21 C           0.4717    2.3243   31.3181 C.3     1  UNL1        0.0245
     22 N           5.8783    1.7036   37.5349 N.pl3   1  UNL1       -0.2680
     23 H           6.5882    2.0161   38.1411 H       1  UNL1        0.1565
     24 N           6.2032   -2.6422   32.2190 N.3     1  UNL1       -0.2698
     25 C           4.8068   -2.6398   32.7666 C.3     1  UNL1        0.0786
     26 C           4.4625   -1.7702   33.9393 C.3     1  UNL1        0.0629
     27 C           5.5147   -0.9029   34.5644 C.ar    1  UNL1        0.0591
     28 N           5.1704   -0.0333   35.7371 N.ar    1  UNL1       -0.2351
     29 C           6.2226    0.8340   36.3622 C.ar    1  UNL1        0.1339
     30 C           7.6191    0.8317   35.8145 C.ar    1  UNL1        0.0342
     31 C           7.9633   -0.0380   34.6418 C.ar    1  UNL1        0.0011
     32 C           6.9112   -0.9052   34.0168 C.ar    1  UNL1        0.0076
     33 C           7.2554   -1.7749   32.8441 C.3     1  UNL1        0.1003
     34 N           7.2362   -5.2511   28.7009 N.3     1  UNL1       -0.2726
     35 C           6.8888   -3.8075   28.4877 C.3     1  UNL1        0.0735
     36 C           6.5445   -2.9379   29.6605 C.3     1  UNL1        0.0333
     37 C           6.5476   -3.5118   31.0463 C.3     1  UNL1        0.0606
     38 C           6.8950   -4.9554   31.2595 C.3     1  UNL1        0.0333
     39 C           7.2393   -5.8250   30.0868 C.3     1  UNL1        0.0735
     40 C           6.9539   -5.8589   26.1908 C.3     1  UNL1        0.0188
     41 C           7.5805   -6.1207   27.5283 C.3     1  UNL1        0.0721
@<TRIPOS>BOND
     1    40    41    1
     2    41    34    1
     3    34    35    1
     4    35    36    1
     5    36    37    1
     6    37    24    1
     7    24    25    1
     8    25    26    1
     9    26    27    1
    10    27    28   ar
    11    28    29   ar
    12    29    22    1
    13    22     1    1
    14     1     2   ar
    15     2     3   ar
    16     3     4   ar
    17     4     5    1
    18     4     6   ar
    19     6     8    1
    20     8     9   ar
    21     9    10   ar
    22    10    11    1
    23    10    12   ar
    24    12    13   ar
    25    13    14   ar
    26    14    15    1
    27    14    16   ar
    28    16    19    1
    29    19    20    1
    30    19    21    1
    31    16    17   ar
    32    17    18   ar
    33     6     7   ar
    34    29    30   ar
    35    30    31   ar
    36    31    32   ar
    37    32    33    1
    38    37    38    1
    39    38    39    1
    40    39    34    1
    41    33    24    1
    42    32    27   ar
    43     7     1   ar
    44    18     8   ar
    45    17    12   ar
    46    22    23    1
@<TRIPOS>MOLECULE
*****
 41 46 0 0 0
SMALL
GASTEIGER

@<TRIPOS>ATOM
      1 C           0.1539    2.0754   21.7128 C.ar    1  UNL1        0.2219
      2 N          -0.1370    2.6432   20.3553 N.ar    1  UNL1       -0.2096
      3 C           0.4997    2.0406   19.1381 C.ar    1  UNL1        0.1329
      4 C           1.4272    0.8702   19.2785 C.ar    1  UNL1        0.1768
      5 F           2.0639    0.2675   18.0613 F       1  UNL1       -0.2009
      6 C           1.7181    0.3024   20.6361 C.ar    1  UNL1        0.1132
      7 N           1.0815    0.9050   21.8532 N.ar    1  UNL1       -0.2112
      8 C           2.6457   -0.8681   20.7764 C.ar    1  UNL1        0.0238
      9 C           2.6937   -1.9194   19.7076 C.ar    1  UNL1        0.0329
     10 C           3.6212   -3.0898   19.8479 C.ar    1  UNL1        0.1591
     11 F           3.6692   -4.1411   18.7790 F       1  UNL1       -0.2025
     12 C           4.5008   -3.2089   21.0570 C.ar    1  UNL1        0.1256
     13 N           5.5079   -4.2419   21.4678 N.ar    1  UNL1       -0.2287
     14 C           6.0824   -3.8290   22.7905 C.ar    1  UNL1        0.1207
     15 C           7.1258   -4.5736   23.5696 C.3     1  UNL1        0.0718
     16 N           5.4303   -2.5409   23.1972 N.ar    1  UNL1       -0.3167
     17 C           4.4528   -2.1576   22.1259 C.ar    1  UNL1        0.0808
     18 C           3.5253   -0.9872   21.9856 C.ar    1  UNL1        0.0205
     19 C           5.7071   -1.7711   24.4546 C.3     1  UNL1        0.0867
     20 C           7.0289   -1.0864   24.6390 C.3     1  UNL1        0.0245
     21 C           4.6623   -1.6862   25.5274 C.3     1  UNL1        0.0245
     22 N          -0.4828    2.6780   22.9300 N.pl3   1  UNL1       -0.2680
     23 H          -1.3237    3.1832   22.8467 H       1  UNL1        0.1565
     24 N           1.4268    1.1781   29.3607 N.3     1  UNL1       -0.2698
     25 C           0.1138    0.5133   29.0707 C.3     1  UNL1        0.0786
     26 C          -0.5307    0.6804   27.7266 C.3     1  UNL1        0.0629
     27 C           0.1378    1.5122   26.6725 C.ar    1  UNL1        0.0591
     28 N          -0.5068    1.6792   25.3283 N.ar    1  UNL1       -0.2351
     29 C           0.1617    2.5110   24.2741 C.ar    1  UNL1        0.1339
     30 C           1.4747    3.1758   24.5642 C.ar    1  UNL1        0.0342
     31 C           2.1192    3.0088   25.9083 C.ar    1  UNL1        0.0011
     32 C           1.4508    2.1769   26.9624 C.ar    1  UNL1        0.0076
     33 C           2.0952    2.0099   28.3065 C.3     1  UNL1        0.1003
     34 N           3.3605    0.6771   33.3931 N.3     1  UNL1       -0.2726
     35 C           2.4528    1.8433   33.1363 C.3     1  UNL1        0.0735
     36 C           1.8082    2.0103   31.7922 C.3     1  UNL1        0.0333
     37 C           2.0713    1.0111   30.7049 C.3     1  UNL1        0.0606
     38 C           2.9791   -0.1551   30.9616 C.3     1  UNL1        0.0333
     39 C           3.6236   -0.3222   32.3057 C.3     1  UNL1        0.0735
     40 C           4.7812   -0.7355   35.0471 C.3     1  UNL1        0.0188
     41 C           4.0050    0.5100   34.7372 C.3     1  UNL1        0.0721
@<TRIPOS>BOND
     1    40    41    1
     2    41    34    1
     3    34    35    1
     4    35    36    1
     5    36    37    1
     6    37    24    1
     7    24    25    1
     8    25    26    1
     9    26    27    1
    10    27    28   ar
    11    28    29   ar
    12    29    22    1
    13    22     1    1
    14     1     2   ar
    15     2     3   ar
    16     3     4   ar
    17     4     5    1
    18     4     6   ar
    19     6     8    1
    20     8     9   ar
    21     9    10   ar
    22    10    11    1
    23    10    12   ar
    24    12    13   ar
    25    13    14   ar
    26    14    15    1
    27    14    16   ar
    28    16    19    1
    29    19    20    1
    30    19    21    1
    31    16    17   ar
    32    17    18   ar
    33     6     7   ar
    34    29    30   ar
    35    30    31   ar
    36    31    32   ar
    37    32    33    1
    38    37    38    1
    39    38    39    1
    40    39    34    1
    41    33    24    1
    42    32    27   ar
    43     7     1   ar
    44    18     8   ar
    45    17    12   ar
    46    22    23    1
@<TRIPOS>MOLECULE
*****
 41 46 0 0 0
SMALL
GASTEIGER

@<TRIPOS>ATOM
      1 C           1.0620    0.9705   19.6775 C.ar    1  UNL1        0.2219
      2 N           1.9924    2.0487   19.2065 N.ar    1  UNL1       -0.2096
      3 C           1.6996    3.4846   19.5264 C.ar    1  UNL1        0.1329
      4 C           0.4764    3.8424   20.3174 C.ar    1  UNL1        0.1768
      5 F           0.1835    5.2783   20.6373 F       1  UNL1       -0.2009
      6 C          -0.4541    2.7642   20.7884 C.ar    1  UNL1        0.1132
      7 N          -0.1613    1.3283   20.4685 N.ar    1  UNL1       -0.2112
      8 C          -1.6774    3.1220   21.5794 C.ar    1  UNL1        0.0238
      9 C          -3.0111    3.2112   20.8988 C.ar    1  UNL1        0.0329
     10 C          -4.2343    3.5690   21.6897 C.ar    1  UNL1        0.1591
     11 F          -5.5680    3.6581   21.0090 F       1  UNL1       -0.2025
     12 C          -4.1238    3.8377   23.1612 C.ar    1  UNL1        0.1256
     13 N          -5.1470    4.2092   24.1933 N.ar    1  UNL1       -0.2287
     14 C          -4.4457    4.3497   25.5118 C.ar    1  UNL1        0.1207
     15 C          -5.0882    4.7115   26.8180 C.3     1  UNL1        0.0718
     16 N          -2.9891    4.0650   25.2946 N.ar    1  UNL1       -0.3167
     17 C          -2.7901    3.7485   23.8419 C.ar    1  UNL1        0.0808
     18 C          -1.5669    3.3907   23.0510 C.ar    1  UNL1        0.0205
     19 C          -1.9192    4.0921   26.3456 C.3     1  UNL1        0.0867
     20 C          -1.4369    5.4034   26.8912 C.3     1  UNL1        0.0245
     21 C          -1.3316    2.8078   26.8511 C.3     1  UNL1        0.0245
     22 N           1.3548   -0.4654   19.3576 N.pl3   1  UNL1       -0.2680
     23 H           0.8953   -0.9060   18.6066 H       1  UNL1        0.1565
     24 N           5.5426   -3.1627   24.0943 N.3     1  UNL1       -0.2698
     25 C           4.7659   -2.0366   24.7097 C.3     1  UNL1        0.0786
     26 C           3.7730   -1.2720   23.8855 C.3     1  UNL1        0.0629
     27 C           3.5568   -1.6334   22.4458 C.ar    1  UNL1        0.0591
     28 N           2.5639   -0.8687   21.6215 N.ar    1  UNL1       -0.2351
     29 C           2.3477   -1.2301   20.1818 C.ar    1  UNL1        0.1339
     30 C           3.1244   -2.3562   19.5664 C.ar    1  UNL1        0.0342
     31 C           4.1173   -3.1208   20.3907 C.ar    1  UNL1        0.0011
     32 C           4.3335   -2.7594   21.8304 C.ar    1  UNL1        0.0076
     33 C           5.3264   -3.5241   22.6547 C.3     1  UNL1        0.1003
     34 N           8.5213   -5.4567   26.5672 N.3     1  UNL1       -0.2726
     35 C           8.3101   -5.8136   25.1256 C.3     1  UNL1        0.0735
     36 C           7.3172   -5.0489   24.3013 C.3     1  UNL1        0.0333
     37 C           6.5355   -3.9274   24.9186 C.3     1  UNL1        0.0606
     38 C           6.7467   -3.5705   26.3601 C.3     1  UNL1        0.0333
     39 C           7.7396   -4.3351   27.1844 C.3     1  UNL1        0.0735
     40 C           9.0531   -7.3515   28.2633 C.3     1  UNL1        0.0188
     41 C           9.5142   -6.2214   27.3914 C.3     1  UNL1        0.0721
@<TRIPOS>BOND
     1    40    41    1
     2    41    34    1
     3    34    35    1
     4    35    36    1
     5    36    37    1
     6    37    24    1
     7    24    25    1
     8    25    26    1
     9    26    27    1
    10    27    28   ar
    11    28    29   ar
    12    29    22    1
    13    22     1    1
    14     1     2   ar
    15     2     3   ar
    16     3     4   ar
    17     4     5    1
    18     4     6   ar
    19     6     8    1
    20     8     9   ar
    21     9    10   ar
    22    10    11    1
    23    10    12   ar
    24    12    13   ar
    25    13    14   ar
    26    14    15    1
    27    14    16   ar
    28    16    19    1
    29    19    20    1
    30    19    21    1
    31    16    17   ar
    32    17    18   ar
    33     6     7   ar
    34    29    30   ar
    35    30    31   ar
    36    31    32   ar
    37    32    33    1
    38    37    38    1
    39    38    39    1
    40    39    34    1
    41    33    24    1
    42    32    27   ar
    43     7     1   ar
    44    18     8   ar
    45    17    12   ar
    46    22    23    1
@<TRIPOS>MOLECULE
*****
 41 46 0 0 0
SMALL
GASTEIGER

@<TRIPOS>ATOM
      1 C           4.2959   -1.2949   27.7792 C.ar    1  UNL1        0.2219
      2 N           5.6288   -1.8617   28.1692 N.ar    1  UNL1       -0.2096
      3 C           6.5342   -2.4381   27.1214 C.ar    1  UNL1        0.1329
      4 C           6.1068   -2.4476   25.6836 C.ar    1  UNL1        0.1768
      5 F           7.0123   -3.0240   24.6358 F       1  UNL1       -0.2009
      6 C           4.7739   -1.8807   25.2937 C.ar    1  UNL1        0.1132
      7 N           3.8685   -1.3044   26.3414 N.ar    1  UNL1       -0.2112
      8 C           4.3465   -1.8902   23.8558 C.ar    1  UNL1        0.0238
      9 C           4.7112   -3.0466   22.9727 C.ar    1  UNL1        0.0329
     10 C           4.2838   -3.0561   21.5349 C.ar    1  UNL1        0.1591
     11 F           4.6485   -4.2125   20.6517 F       1  UNL1       -0.2025
     12 C           3.4918   -1.9094   20.9803 C.ar    1  UNL1        0.1256
     13 N           2.9349   -1.6423   19.6133 N.ar    1  UNL1       -0.2287
     14 C           2.2261   -0.3209   19.6516 C.ar    1  UNL1        0.1207
     15 C           1.5221    0.3357   18.5013 C.3     1  UNL1        0.0718
     16 N           2.3449    0.2287   21.0423 N.ar    1  UNL1       -0.3167
     17 C           3.1271   -0.7531   21.8634 C.ar    1  UNL1        0.0808
     18 C           3.5545   -0.7435   23.3012 C.ar    1  UNL1        0.0205
     19 C           1.7805    1.5313   21.5267 C.3     1  UNL1        0.0867
     20 C           0.3015    1.6790   21.7286 C.3     1  UNL1        0.0245
     21 C           2.6950    2.6862   21.8091 C.3     1  UNL1        0.0245
     22 N           3.3904   -0.7185   28.8271 N.pl3   1  UNL1       -0.2680
     23 H           3.6279   -0.7956   29.7794 H       1  UNL1        0.1565
     24 N          -1.7137    2.8902   25.9678 N.3     1  UNL1       -0.2698
     25 C          -0.4814    3.0295   25.1241 C.3     1  UNL1        0.0786
     26 C           0.7859    2.3356   25.5272 C.3     1  UNL1        0.0629
     27 C           0.8208    1.5025   26.7740 C.ar    1  UNL1        0.0591
     28 N           2.0882    0.8086   27.1771 N.ar    1  UNL1       -0.2351
     29 C           2.1231   -0.0246   28.4240 C.ar    1  UNL1        0.1339
     30 C           0.8907   -0.1638   29.2677 C.ar    1  UNL1        0.0342
     31 C          -0.3765    0.5300   28.8646 C.ar    1  UNL1        0.0011
     32 C          -0.4115    1.3632   27.6178 C.ar    1  UNL1        0.0076
     33 C          -1.6787    2.0571   27.2147 C.3     1  UNL1        0.1003
     34 N          -5.5156    4.9719   24.7586 N.3     1  UNL1       -0.2726
     35 C          -5.2198    4.7340   26.2097 C.3     1  UNL1        0.0735
     36 C          -3.9524    4.0401   26.6128 C.3     1  UNL1        0.0333
     37 C          -2.9810    3.5841   25.5648 C.3     1  UNL1        0.0606
     38 C          -3.2769    3.8221   24.1136 C.3     1  UNL1        0.0333
     39 C          -4.5442    4.5159   23.7105 C.3     1  UNL1        0.0735
     40 C          -7.9499    4.8660   23.8570 C.3     1  UNL1        0.0188
     41 C          -6.7829    5.6658   24.3555 C.3     1  UNL1        0.0721
@<TRIPOS>BOND
     1    40    41    1
     2    41    34    1
     3    34    35    1
     4    35    36    1
     5    36    37    1
     6    37    24    1
     7    24    25    1
     8    25    26    1
     9    26    27    1
    10    27    28   ar
    11    28    29   ar
    12    29    22    1
    13    22     1    1
    14     1     2   ar
    15     2     3   ar
    16     3     4   ar
    17     4     5    1
    18     4     6   ar
    19     6     8    1
    20     8     9   ar
    21     9    10   ar
    22    10    11    1
    23    10    12   ar
    24    12    13   ar
    25    13    14   ar
    26    14    15    1
    27    14    16   ar
    28    16    19    1
    29    19    20    1
    30    19    21    1
    31    16    17   ar
    32    17    18   ar
    33     6     7   ar
    34    29    30   ar
    35    30    31   ar
    36    31    32   ar
    37    32    33    1
    38    37    38    1
    39    38    39    1
    40    39    34    1
    41    33    24    1
    42    32    27   ar
    43     7     1   ar
    44    18     8   ar
    45    17    12   ar
    46    22    23    1
@<TRIPOS>MOLECULE
*****
 41 46 0 0 0
SMALL
GASTEIGER

@<TRIPOS>ATOM
      1 C           7.5399   -3.0213   32.4488 C.ar    1  UNL1        0.2219
      2 N           8.9193   -2.5442   32.7948 N.ar    1  UNL1       -0.2096
      3 C           9.1103   -1.1987   33.4295 C.ar    1  UNL1        0.1329
      4 C           7.9219   -0.3302   33.7183 C.ar    1  UNL1        0.1768
      5 F           8.1128    1.0154   34.3531 F       1  UNL1       -0.2009
      6 C           6.5425   -0.8073   33.3723 C.ar    1  UNL1        0.1132
      7 N           6.3515   -2.1529   32.7376 N.ar    1  UNL1       -0.2112
      8 C           5.3540    0.0612   33.6611 C.ar    1  UNL1        0.0238
      9 C           4.2488    0.1792   32.6538 C.ar    1  UNL1        0.0329
     10 C           3.0605    1.0476   32.9425 C.ar    1  UNL1        0.1591
     11 F           1.9552    1.1656   31.9352 F       1  UNL1       -0.2025
     12 C           2.9773    1.7982   34.2385 C.ar    1  UNL1        0.1256
     13 N           1.9375    2.7237   34.7975 N.ar    1  UNL1       -0.2287
     14 C           2.4001    3.1778   36.1502 C.ar    1  UNL1        0.1207
     15 C           1.6659    4.1125   37.0652 C.3     1  UNL1        0.0718
     16 N           3.7257    2.5329   36.4273 N.ar    1  UNL1       -0.3167
     17 C           4.0825    1.6803   35.2458 C.ar    1  UNL1        0.0808
     18 C           5.2709    0.8118   34.9571 C.ar    1  UNL1        0.0205
     19 C           4.5499    2.7096   37.6681 C.3     1  UNL1        0.0867
     20 C           5.6443    3.7349   37.7016 C.3     1  UNL1        0.0245
     21 C           4.2798    1.8612   38.8752 C.3     1  UNL1        0.0245
     22 N           7.3490   -4.3670   31.8140 N.pl3   1  UNL1       -0.2680
     23 H           7.3416   -5.1780   32.3722 H       1  UNL1        0.1565
     24 N           6.2831   -3.5903   25.0679 N.3     1  UNL1       -0.2698
     25 C           6.1158   -2.2635   25.7474 C.3     1  UNL1        0.0786
     26 C           6.2955   -2.1535   27.2325 C.3     1  UNL1        0.0629
     27 C           6.6425   -3.3703   28.0381 C.ar    1  UNL1        0.0591
     28 N           6.8222   -3.2602   29.5233 N.ar    1  UNL1       -0.2351
     29 C           7.1693   -4.4770   30.3289 C.ar    1  UNL1        0.1339
     30 C           7.3366   -5.8038   29.6494 C.ar    1  UNL1        0.0342
     31 C           7.1569   -5.9138   28.1643 C.ar    1  UNL1        0.0011
     32 C           6.8099   -4.6970   27.3587 C.ar    1  UNL1        0.0076
     33 C           6.6302   -4.8070   25.8736 C.3     1  UNL1        0.1003
     34 N           5.7440   -3.9204   20.6125 N.3     1  UNL1       -0.2726
     35 C           7.0933   -4.1556   21.2241 C.3     1  UNL1        0.0735
     36 C           7.2730   -4.0455   22.7093 C.3     1  UNL1        0.0333
     37 C           6.1034   -3.7003   23.5827 C.3     1  UNL1        0.0606
     38 C           4.7542   -3.4651   22.9711 C.3     1  UNL1        0.0333
     39 C           4.5744   -3.5752   21.4860 C.3     1  UNL1        0.0735
     40 C           4.5277   -4.9568   18.5640 C.3     1  UNL1        0.0188
     41 C           5.5643   -4.0304   19.1274 C.3     1  UNL1        0.0721
@<TRIPOS>BOND
     1    40    41    1
     2    41    34    1
     3    34    35    1
     4    35    36    1
     5    36    37    1
     6    37    24    1
     7    24    25    1
     8    25    26    1
     9    26    27    1
    10    27    28   ar
    11    28    29   ar
    12    29    22    1
    13    22     1    1
    14     1     2   ar
    15     2     3   ar
    16     3     4   ar
    17     4     5    1
    18     4     6   ar
    19     6     8    1
    20     8     9   ar
    21     9    10   ar
    22    10    11    1
    23    10    12   ar
    24    12    13   ar
    25    13    14   ar
    26    14    15    1
    27    14    16   ar
    28    16    19    1
    29    19    20    1
    30    19    21    1
    31    16    17   ar
    32    17    18   ar
    33     6     7   ar
    34    29    30   ar
    35    30    31   ar
    36    31    32   ar
    37    32    33    1
    38    37    38    1
    39    38    39    1
    40    39    34    1
    41    33    24    1
    42    32    27   ar
    43     7     1   ar
    44    18     8   ar
    45    17    12   ar
    46    22    23    1
@<TRIPOS>MOLECULE
*****
 41 46 0 0 0
SMALL
GASTEIGER

@<TRIPOS>ATOM
      1 C           3.6195    0.9239   33.4289 C.ar    1  UNL1        0.2219
      2 N           4.5873    1.4716   34.4356 N.ar    1  UNL1       -0.2096
      3 C           5.9676    0.8940   34.5403 C.ar    1  UNL1        0.1329
      4 C           6.3801   -0.2313   33.6384 C.ar    1  UNL1        0.1768
      5 F           7.7605   -0.8089   33.7432 F       1  UNL1       -0.2009
      6 C           5.4123   -0.7789   32.6317 C.ar    1  UNL1        0.1132
      7 N           4.0320   -0.2013   32.5270 N.ar    1  UNL1       -0.2112
      8 C           5.8249   -1.9043   31.7298 C.ar    1  UNL1        0.0238
      9 C           6.2275   -3.2254   32.3150 C.ar    1  UNL1        0.0329
     10 C           6.6401   -4.3507   31.4132 C.ar    1  UNL1        0.1591
     11 F           7.0427   -5.6719   31.9984 F       1  UNL1       -0.2025
     12 C           6.6501   -4.1549   29.9261 C.ar    1  UNL1        0.1256
     13 N           7.0066   -5.0735   28.7951 N.ar    1  UNL1       -0.2287
     14 C           6.8243   -4.3202   27.5109 C.ar    1  UNL1        0.1207
     15 C           7.0683   -4.8568   26.1316 C.3     1  UNL1        0.0718
     16 N           6.3552   -2.9359   27.8482 N.ar    1  UNL1       -0.3167
     17 C           6.2475   -2.8338   29.3408 C.ar    1  UNL1        0.0808
     18 C           5.8349   -1.7085   30.2427 C.ar    1  UNL1        0.0205
     19 C           6.0477   -1.8453   26.8653 C.3     1  UNL1        0.0867
     20 C           4.6232   -1.5268   26.5199 C.3     1  UNL1        0.0245
     21 C           7.1646   -1.0732   26.2279 C.3     1  UNL1        0.0245
     22 N           2.2391    1.5016   33.3241 N.pl3   1  UNL1       -0.2680
     23 H           1.6783    1.5858   34.1290 H       1  UNL1        0.1565
     24 N          -0.4847    2.3041   27.0642 N.3     1  UNL1       -0.2698
     25 C          -0.5785    0.8600   27.4590 C.3     1  UNL1        0.0786
     26 C          -0.0525    0.4108   28.7900 C.3     1  UNL1        0.0629
     27 C           0.5673    1.4055   29.7261 C.ar    1  UNL1        0.0591
     28 N           1.0933    0.9561   31.0571 N.ar    1  UNL1       -0.2351
     29 C           1.7131    1.9509   31.9932 C.ar    1  UNL1        0.1339
     30 C           1.8068    3.3950   31.5984 C.ar    1  UNL1        0.0342
     31 C           1.2808    3.8443   30.2674 C.ar    1  UNL1        0.0011
     32 C           0.6610    2.8495   29.3313 C.ar    1  UNL1        0.0076
     33 C           0.1350    3.2988   28.0004 C.3     1  UNL1        0.1003
     34 N          -2.0628    3.6522   23.0714 N.3     1  UNL1       -0.2726
     35 C          -0.6683    3.1110   23.1828 C.3     1  UNL1        0.0735
     36 C          -0.1423    2.6616   24.5137 C.3     1  UNL1        0.0333
     37 C          -1.0108    2.7534   25.7333 C.3     1  UNL1        0.0606
     38 C          -2.4053    3.2946   25.6219 C.3     1  UNL1        0.0333
     39 C          -2.9313    3.7440   24.2910 C.3     1  UNL1        0.0735
     40 C          -3.7506    3.3890   21.1139 C.3     1  UNL1        0.0188
     41 C          -2.5888    4.1015   21.7405 C.3     1  UNL1        0.0721
@<TRIPOS>BOND
     1    40    41    1
     2    41    34    1
     3    34    35    1
     4    35    36    1
     5    36    37    1
     6    37    24    1
     7    24    25    1
     8    25    26    1
     9    26    27    1
    10    27    28   ar
    11    28    29   ar
    12    29    22    1
    13    22     1    1
    14     1     2   ar
    15     2     3   ar
    16     3     4   ar
    17     4     5    1
    18     4     6   ar
    19     6     8    1
    20     8     9   ar
    21     9    10   ar
    22    10    11    1
    23    10    12   ar
    24    12    13   ar
    25    13    14   ar
    26    14    15    1
    27    14    16   ar
    28    16    19    1
    29    19    20    1
    30    19    21    1
    31    16    17   ar
    32    17    18   ar
    33     6     7   ar
    34    29    30   ar
    35    30    31   ar
    36    31    32   ar
    37    32    33    1
    38    37    38    1
    39    38    39    1
    40    39    34    1
    41    33    24    1
    42    32    27   ar
    43     7     1   ar
    44    18     8   ar
    45    17    12   ar
    46    22    23    1
