@<TRIPOS>MOLECULE
*****
 20 21 0 0 0
SMALL
GASTEIGER

@<TRIPOS>ATOM
      1 C          -8.0077  -16.4926   24.1604 C.3     1  UNL1        0.0358
      2 C          -8.6245  -16.3261   25.5176 C.3     1  UNL1        0.0055
      3 C          -7.9846  -15.8333   26.7817 C.3     1  UNL1        0.0018
      4 C          -6.5700  -15.3854   27.0006 C.3     1  UNL1        0.0171
      5 C          -5.4457  -15.3196   26.0098 C.3     1  UNL1        0.0686
      6 N          -5.4585  -15.6854   24.5552 N.3     1  UNL1       -0.2972
      7 C          -6.5988  -16.2075   23.7322 C.3     1  UNL1        0.0726
      8 H          -4.7315  -16.3950   24.4638 H       1  UNL1        0.1233
      9 C          -9.4224  -16.9406   23.9414 C.ar    1  UNL1       -0.0205
     10 C          -9.9655  -18.1110   24.7062 C.ar    1  UNL1       -0.0033
     11 C         -11.3802  -18.5590   24.4872 C.ar    1  UNL1        0.0119
     12 C         -12.2518  -17.8363   23.5033 C.ar    1  UNL1        0.0682
     13 CL        -13.6666  -18.2842   23.2843 Cl      1  UNL1       -0.0814
     14 C         -11.7088  -16.6658   22.7385 C.ar    1  UNL1        0.0679
     15 CL        -12.5804  -15.9432   21.7546 Cl      1  UNL1       -0.0814
     16 C         -10.2941  -16.2179   22.9575 C.ar    1  UNL1        0.0080
     17 C          -8.0205  -16.8585   22.7058 C.3     1  UNL1        0.0371
     18 O          -6.9229  -18.1626   20.7450 O.3     1  UNL1       -0.3820
     19 C          -7.1864  -18.0038   22.2131 C.3     1  UNL1        0.1375
     20 H          -6.3716  -18.9472   20.5985 H       1  UNL1        0.2104
@<TRIPOS>BOND
     1    18    19    1
     2    19    17    1
     3     1    17    1
     4     1     9    1
     5     9    10   ar
     6    10    11   ar
     7    11    12   ar
     8    12    13    1
     9    12    14   ar
    10    14    15    1
    11    14    16   ar
    12     1     2    1
    13     2     3    1
    14     3     4    1
    15     4     5    1
    16     5     6    1
    17     6     7    1
    18     7     1    1
    19    16     9   ar
    20    18    20    1
    21     6     8    1
@<TRIPOS>MOLECULE
*****
 20 21 0 0 0
SMALL
GASTEIGER

@<TRIPOS>ATOM
      1 C         -10.1228  -17.3375   23.3355 C.3     1  UNL1        0.0358
      2 C          -9.7612  -16.2249   22.3966 C.3     1  UNL1        0.0055
      3 C         -10.4648  -15.7919   21.1445 C.3     1  UNL1        0.0018
      4 C         -11.7036  -16.3646   20.5223 C.3     1  UNL1        0.0171
      5 C         -12.5449  -17.5116   20.9982 C.3     1  UNL1        0.0686
      6 N         -12.3551  -18.3693   22.2141 N.3     1  UNL1       -0.2972
      7 C         -11.2771  -18.2918   23.2542 C.3     1  UNL1        0.0726
      8 H         -12.2900  -19.3195   21.8488 H       1  UNL1        0.1233
      9 C          -8.8839  -16.7649   23.9577 C.ar    1  UNL1       -0.0205
     10 C          -7.6061  -16.7127   23.1739 C.ar    1  UNL1       -0.0033
     11 C          -6.3672  -16.1401   23.7962 C.ar    1  UNL1        0.0119
     12 C          -6.4062  -15.6195   25.2025 C.ar    1  UNL1        0.0682
     13 CL         -5.1674  -15.0468   25.8248 Cl      1  UNL1       -0.0814
     14 C          -7.6840  -15.6715   25.9864 C.ar    1  UNL1        0.0679
     15 CL         -7.7230  -15.1510   27.3925 Cl      1  UNL1       -0.0814
     16 C          -8.9228  -16.2442   25.3640 C.ar    1  UNL1        0.0080
     17 C          -9.9330  -18.1952   24.5513 C.3     1  UNL1        0.0371
     18 O         -10.1545  -20.5888   25.5373 O.3     1  UNL1       -0.3820
     19 C          -9.7776  -19.6800   24.4049 C.3     1  UNL1        0.1375
     20 H          -9.9937  -21.5100   25.2797 H       1  UNL1        0.2104
@<TRIPOS>BOND
     1    18    19    1
     2    19    17    1
     3     1    17    1
     4     1     9    1
     5     9    10   ar
     6    10    11   ar
     7    11    12   ar
     8    12    13    1
     9    12    14   ar
    10    14    15    1
    11    14    16   ar
    12     1     2    1
    13     2     3    1
    14     3     4    1
    15     4     5    1
    16     5     6    1
    17     6     7    1
    18     7     1    1
    19    16     9   ar
    20    18    20    1
    21     6     8    1
@<TRIPOS>MOLECULE
*****
 20 21 0 0 0
SMALL
GASTEIGER

@<TRIPOS>ATOM
      1 C          -7.7763  -17.7684   22.9938 C.3     1  UNL1        0.0358
      2 C          -8.1194  -19.0683   22.3285 C.3     1  UNL1        0.0055
      3 C          -7.1985  -20.0575   21.6778 C.3     1  UNL1        0.0018
      4 C          -5.7072  -19.9911   21.5316 C.3     1  UNL1        0.0171
      5 C          -4.7683  -18.9192   22.0001 C.3     1  UNL1        0.0686
      6 N          -5.0889  -17.6488   22.7304 N.3     1  UNL1       -0.2972
      7 C          -6.4277  -17.1367   23.1726 C.3     1  UNL1        0.0726
      8 H          -4.7173  -16.9100   22.1334 H       1  UNL1        0.1233
      9 C          -9.2677  -17.8348   23.1399 C.ar    1  UNL1       -0.0205
     10 C          -9.8754  -18.5368   24.3180 C.ar    1  UNL1       -0.0033
     11 C         -11.3668  -18.6032   24.4641 C.ar    1  UNL1        0.0119
     12 C         -12.2505  -17.9676   23.4320 C.ar    1  UNL1        0.0682
     13 CL        -13.7419  -18.0340   23.5781 Cl      1  UNL1       -0.0814
     14 C         -11.6429  -17.2655   22.2540 C.ar    1  UNL1        0.0679
     15 CL        -12.5265  -16.6299   21.2220 Cl      1  UNL1       -0.0814
     16 C         -10.1514  -17.1991   22.1079 C.ar    1  UNL1        0.0080
     17 C          -8.0970  -16.4980   23.7241 C.3     1  UNL1        0.0371
     18 O          -7.6532  -13.9736   24.1489 O.3     1  UNL1       -0.3820
     19 C          -7.3206  -15.2483   23.4316 C.3     1  UNL1        0.1375
     20 H          -7.0612  -13.2677   23.8451 H       1  UNL1        0.2104
@<TRIPOS>BOND
     1    18    19    1
     2    19    17    1
     3     1    17    1
     4     1     9    1
     5     9    10   ar
     6    10    11   ar
     7    11    12   ar
     8    12    13    1
     9    12    14   ar
    10    14    15    1
    11    14    16   ar
    12     1     2    1
    13     2     3    1
    14     3     4    1
    15     4     5    1
    16     5     6    1
    17     6     7    1
    18     7     1    1
    19    16     9   ar
    20    18    20    1
    21     6     8    1
@<TRIPOS>MOLECULE
*****
 20 21 0 0 0
SMALL
GASTEIGER

@<TRIPOS>ATOM
      1 C          -7.9459  -16.4008   24.3293 C.3     1  UNL1        0.0358
      2 C          -8.7475  -17.0415   25.4234 C.3     1  UNL1        0.0055
      3 C          -8.6728  -16.7996   26.9020 C.3     1  UNL1        0.0018
      4 C          -7.7783  -15.8573   27.6514 C.3     1  UNL1        0.0171
      5 C          -6.7375  -14.9240   27.1076 C.3     1  UNL1        0.0686
      6 N          -6.3341  -14.7027   25.6799 N.3     1  UNL1       -0.2972
      7 C          -6.8720  -15.3600   24.4435 C.3     1  UNL1        0.0726
      8 H          -5.3345  -14.9049   25.6625 H       1  UNL1        0.1233
      9 C          -8.8405  -17.3432   23.5799 C.ar    1  UNL1       -0.0205
     10 C          -8.2464  -18.4598   22.7736 C.ar    1  UNL1       -0.0033
     11 C          -9.1410  -19.4022   22.0241 C.ar    1  UNL1        0.0119
     12 C         -10.6298  -19.2279   22.0810 C.ar    1  UNL1        0.0682
     13 CL        -11.5244  -20.1702   21.3316 Cl      1  UNL1       -0.0814
     14 C         -11.2239  -18.1112   22.8873 C.ar    1  UNL1        0.0679
     15 CL        -12.7126  -17.9369   22.9441 Cl      1  UNL1       -0.0814
     16 C         -10.3293  -17.1689   23.6367 C.ar    1  UNL1        0.0080
     17 C          -7.5425  -16.1795   22.9016 C.3     1  UNL1        0.0371
     18 O          -8.8872  -14.8395   21.1278 O.3     1  UNL1       -0.3820
     19 C          -7.8643  -14.8804   22.2241 C.3     1  UNL1        0.1375
     20 H          -8.9742  -13.9306   20.8004 H       1  UNL1        0.2104
@<TRIPOS>BOND
     1    18    19    1
     2    19    17    1
     3     1    17    1
     4     1     9    1
     5     9    10   ar
     6    10    11   ar
     7    11    12   ar
     8    12    13    1
     9    12    14   ar
    10    14    15    1
    11    14    16   ar
    12     1     2    1
    13     2     3    1
    14     3     4    1
    15     4     5    1
    16     5     6    1
    17     6     7    1
    18     7     1    1
    19    16     9   ar
    20    18    20    1
    21     6     8    1
@<TRIPOS>MOLECULE
*****
 20 21 0 0 0
SMALL
GASTEIGER

@<TRIPOS>ATOM
      1 C          -7.0986  -16.9179   23.1685 C.3     1  UNL1        0.0358
      2 C          -7.2755  -18.2443   22.4906 C.3     1  UNL1        0.0055
      3 C          -6.2225  -19.2206   22.0567 C.3     1  UNL1        0.0018
      4 C          -4.7329  -19.1116   22.1937 C.3     1  UNL1        0.0171
      5 C          -3.9280  -17.9995   22.7982 C.3     1  UNL1        0.0686
      6 N          -4.4142  -16.7217   23.4152 N.3     1  UNL1       -0.2972
      7 C          -5.8253  -16.2403   23.5800 C.3     1  UNL1        0.0726
      8 H          -3.9548  -15.9870   22.8769 H       1  UNL1        0.1233
      9 C          -8.5884  -17.0268   23.0316 C.ar    1  UNL1       -0.0205
     10 C          -9.3074  -16.2178   21.9931 C.ar    1  UNL1       -0.0033
     11 C         -10.7971  -16.3268   21.8562 C.ar    1  UNL1        0.0119
     12 C         -11.5679  -17.2449   22.7579 C.ar    1  UNL1        0.0682
     13 CL        -13.0577  -17.3540   22.6210 Cl      1  UNL1       -0.0814
     14 C         -10.8490  -18.0540   23.7964 C.ar    1  UNL1        0.0679
     15 CL        -11.6198  -18.9720   24.6980 Cl      1  UNL1       -0.0814
     16 C          -9.3593  -17.9449   23.9333 C.ar    1  UNL1        0.0080
     17 C          -7.5848  -15.6400   23.7855 C.3     1  UNL1        0.0371
     18 O          -8.0864  -15.0858   26.2738 O.3     1  UNL1       -0.3820
     19 C          -7.1061  -15.2355   25.1484 C.3     1  UNL1        0.1375
     20 H          -7.6157  -14.8215   27.0797 H       1  UNL1        0.2104
@<TRIPOS>BOND
     1    18    19    1
     2    19    17    1
     3     1    17    1
     4     1     9    1
     5     9    10   ar
     6    10    11   ar
     7    11    12   ar
     8    12    13    1
     9    12    14   ar
    10    14    15    1
    11    14    16   ar
    12     1     2    1
    13     2     3    1
    14     3     4    1
    15     4     5    1
    16     5     6    1
    17     6     7    1
    18     7     1    1
    19    16     9   ar
    20    18    20    1
    21     6     8    1
@<TRIPOS>MOLECULE
*****
 20 21 0 0 0
SMALL
GASTEIGER

@<TRIPOS>ATOM
      1 C         -10.0626  -18.6376   22.4589 C.3     1  UNL1        0.0358
      2 C          -9.9531  -17.4629   21.5325 C.3     1  UNL1        0.0055
      3 C         -10.9398  -16.3561   21.3050 C.3     1  UNL1        0.0018
      4 C         -12.2793  -16.1507   21.9478 C.3     1  UNL1        0.0171
      5 C         -12.9633  -17.0012   22.9768 C.3     1  UNL1        0.0686
      6 N         -12.4765  -18.2673   23.6171 N.3     1  UNL1       -0.2972
      7 C         -11.1855  -18.9955   23.3866 C.3     1  UNL1        0.0726
      8 H         -13.1992  -18.9552   23.4051 H       1  UNL1        0.1233
      9 C          -8.7230  -18.8430   21.8161 C.ar    1  UNL1       -0.0205
     10 C          -8.6366  -19.3648   20.4125 C.ar    1  UNL1       -0.0033
     11 C          -7.2970  -19.5702   19.7696 C.ar    1  UNL1        0.0119
     12 C          -6.0436  -19.2537   20.5306 C.ar    1  UNL1        0.0682
     13 CL         -4.7039  -19.4591   19.8878 Cl      1  UNL1       -0.0814
     14 C          -6.1298  -18.7320   21.9342 C.ar    1  UNL1        0.0679
     15 CL         -4.8766  -18.4155   22.6951 Cl      1  UNL1       -0.0814
     16 C          -7.4695  -18.5266   22.5770 C.ar    1  UNL1        0.0080
     17 C          -9.5758  -19.9037   23.0992 C.3     1  UNL1        0.0371
     18 O          -9.5889  -21.5443   25.1138 O.3     1  UNL1       -0.3820
     19 C          -9.9306  -20.2078   24.5246 C.3     1  UNL1        0.1375
     20 H          -9.8854  -21.5760   26.0369 H       1  UNL1        0.2104
@<TRIPOS>BOND
     1    18    19    1
     2    19    17    1
     3     1    17    1
     4     1     9    1
     5     9    10   ar
     6    10    11   ar
     7    11    12   ar
     8    12    13    1
     9    12    14   ar
    10    14    15    1
    11    14    16   ar
    12     1     2    1
    13     2     3    1
    14     3     4    1
    15     4     5    1
    16     5     6    1
    17     6     7    1
    18     7     1    1
    19    16     9   ar
    20    18    20    1
    21     6     8    1
@<TRIPOS>MOLECULE
*****
 20 21 0 0 0
SMALL
GASTEIGER

@<TRIPOS>ATOM
      1 C          -9.0802  -18.0034   21.9632 C.3     1  UNL1        0.0358
      2 C          -7.7224  -18.5505   22.2909 C.3     1  UNL1        0.0055
      3 C          -6.8392  -19.4256   21.4517 C.3     1  UNL1        0.0018
      4 C          -7.0956  -19.9697   20.0777 C.3     1  UNL1        0.0171
      5 C          -8.2985  -19.7731   19.2033 C.3     1  UNL1        0.0686
      6 N          -9.5421  -18.9839   19.4871 N.3     1  UNL1       -0.2972
      7 C          -9.8899  -18.1963   20.7155 C.3     1  UNL1        0.0726
      8 H         -10.3004  -19.6596   19.3936 H       1  UNL1        0.1233
      9 C          -8.8238  -17.4593   23.3373 C.ar    1  UNL1       -0.0205
     10 C          -9.6764  -17.9003   24.4899 C.ar    1  UNL1       -0.0033
     11 C          -9.4200  -17.3563   25.8640 C.ar    1  UNL1        0.0119
     12 C          -8.3108  -16.3710   26.0855 C.ar    1  UNL1        0.0682
     13 CL         -8.0543  -15.8269   27.4596 Cl      1  UNL1       -0.0814
     14 C          -7.4581  -15.9299   24.9330 C.ar    1  UNL1        0.0679
     15 CL         -6.3489  -14.9448   25.1545 Cl      1  UNL1       -0.0814
     16 C          -7.7146  -16.4741   23.5589 C.ar    1  UNL1        0.0080
     17 C         -10.3238  -17.2142   22.2470 C.3     1  UNL1        0.0371
     18 O          -9.6828  -15.0392   20.9786 O.3     1  UNL1       -0.3820
     19 C         -10.7056  -16.0697   21.3556 C.3     1  UNL1        0.1375
     20 H         -10.0911  -14.3742   20.4025 H       1  UNL1        0.2104
@<TRIPOS>BOND
     1    18    19    1
     2    19    17    1
     3     1    17    1
     4     1     9    1
     5     9    10   ar
     6    10    11   ar
     7    11    12   ar
     8    12    13    1
     9    12    14   ar
    10    14    15    1
    11    14    16   ar
    12     1     2    1
    13     2     3    1
    14     3     4    1
    15     4     5    1
    16     5     6    1
    17     6     7    1
    18     7     1    1
    19    16     9   ar
    20    18    20    1
    21     6     8    1
@<TRIPOS>MOLECULE
*****
 20 21 0 0 0
SMALL
GASTEIGER

@<TRIPOS>ATOM
      1 C          -9.1294  -17.5696   22.0356 C.3     1  UNL1        0.0358
      2 C          -9.8198  -18.6179   21.2143 C.3     1  UNL1        0.0055
      3 C         -11.2871  -18.7814   20.9484 C.3     1  UNL1        0.0018
      4 C         -12.4260  -17.9372   21.4380 C.3     1  UNL1        0.0171
      5 C         -12.3792  -16.7208   22.3146 C.3     1  UNL1        0.0686
      6 N         -11.1819  -16.0484   22.9180 N.3     1  UNL1       -0.2972
      7 C          -9.7355  -16.4262   22.7937 C.3     1  UNL1        0.0726
      8 H         -11.3628  -16.0567   23.9217 H       1  UNL1        0.1233
      9 C          -7.9904  -18.4140   21.5459 C.ar    1  UNL1       -0.0205
     10 C          -8.1280  -19.1930   20.2715 C.ar    1  UNL1       -0.0033
     11 C          -6.9890  -20.0374   19.7818 C.ar    1  UNL1        0.0119
     12 C          -5.7123  -20.1026   20.5666 C.ar    1  UNL1        0.0682
     13 CL         -4.5733  -20.9469   20.0769 Cl      1  UNL1       -0.0814
     14 C          -5.5746  -19.3235   21.8410 C.ar    1  UNL1        0.0679
     15 CL         -4.2980  -19.3888   22.6257 Cl      1  UNL1       -0.0814
     16 C          -6.7136  -18.4792   22.3306 C.ar    1  UNL1        0.0080
     17 C          -7.9320  -16.8972   22.6390 C.3     1  UNL1        0.0371
     18 O          -6.5235  -14.7270   22.8772 O.3     1  UNL1       -0.3820
     19 C          -7.8476  -15.3998   22.6672 C.3     1  UNL1        0.1375
     20 H          -6.6447  -13.7647   22.8684 H       1  UNL1        0.2104
@<TRIPOS>BOND
     1    18    19    1
     2    19    17    1
     3     1    17    1
     4     1     9    1
     5     9    10   ar
     6    10    11   ar
     7    11    12   ar
     8    12    13    1
     9    12    14   ar
    10    14    15    1
    11    14    16   ar
    12     1     2    1
    13     2     3    1
    14     3     4    1
    15     4     5    1
    16     5     6    1
    17     6     7    1
    18     7     1    1
    19    16     9   ar
    20    18    20    1
    21     6     8    1
@<TRIPOS>MOLECULE
*****
 20 21 0 0 0
SMALL
GASTEIGER

@<TRIPOS>ATOM
      1 C          -9.2972  -17.4305   22.5796 C.3     1  UNL1        0.0358
      2 C          -9.4710  -18.4739   23.6432 C.3     1  UNL1        0.0055
      3 C         -10.1915  -19.7867   23.5565 C.3     1  UNL1        0.0018
      4 C         -10.9162  -20.3802   22.3850 C.3     1  UNL1        0.0171
      5 C         -11.0994  -19.8077   21.0107 C.3     1  UNL1        0.0686
      6 N         -10.6031  -18.5001   20.4686 N.3     1  UNL1       -0.2972
      7 C          -9.8010  -17.4421   21.1669 C.3     1  UNL1        0.0726
      8 H         -11.4452  -18.0172   20.1553 H       1  UNL1        0.1233
      9 C          -8.5726  -16.8370   23.7511 C.ar    1  UNL1       -0.0205
     10 C          -9.2613  -16.7206   25.0786 C.ar    1  UNL1       -0.0033
     11 C          -8.5366  -16.1271   26.2501 C.ar    1  UNL1        0.0119
     12 C          -7.1231  -15.6499   26.0942 C.ar    1  UNL1        0.0682
     13 CL         -6.3983  -15.0564   27.2658 Cl      1  UNL1       -0.0814
     14 C          -6.4343  -15.7662   24.7668 C.ar    1  UNL1        0.0679
     15 CL         -5.0208  -15.2891   24.6109 Cl      1  UNL1       -0.0814
     16 C          -7.1590  -16.3597   23.5953 C.ar    1  UNL1        0.0080
     17 C          -8.8010  -16.1229   22.0374 C.3     1  UNL1        0.0371
     18 O          -9.1100  -14.1244   20.4062 O.3     1  UNL1       -0.3820
     19 C          -9.6806  -15.2988   21.1445 C.3     1  UNL1        0.1375
     20 H          -9.8071  -13.7045   19.8784 H       1  UNL1        0.2104
@<TRIPOS>BOND
     1    18    19    1
     2    19    17    1
     3     1    17    1
     4     1     9    1
     5     9    10   ar
     6    10    11   ar
     7    11    12   ar
     8    12    13    1
     9    12    14   ar
    10    14    15    1
    11    14    16   ar
    12     1     2    1
    13     2     3    1
    14     3     4    1
    15     4     5    1
    16     5     6    1
    17     6     7    1
    18     7     1    1
    19    16     9   ar
    20    18    20    1
    21     6     8    1
