@<TRIPOS>MOLECULE
*****
 22 25 0 0 0
SMALL
GASTEIGER

@<TRIPOS>ATOM
      1 C          -8.7216  -18.0768   21.1425 C.2     1  UNL1        0.3428
      2 O          -8.2625  -19.3873   20.5753 O.2     1  UNL1       -0.2448
      3 C         -14.3292  -18.5021   25.5020 C.3     1  UNL1        0.0268
      4 C         -13.2370  -18.3526   24.4848 C.2     1  UNL1       -0.0380
      5 C         -11.8439  -18.8047   24.8082 C.2     1  UNL1       -0.0081
      6 C         -10.7517  -18.6552   23.7910 C.2     1  UNL1        0.0008
      7 C         -11.0526  -18.0535   22.4503 C.2     1  UNL1        0.0216
      8 C         -10.1877  -17.7808   21.2556 C.2     1  UNL1        0.0958
      9 C         -11.0463  -17.1601   20.1937 C.2     1  UNL1        0.1049
     10 N         -12.4419  -17.0492   20.7322 N.2     1  UNL1       -0.2476
     11 C         -12.4458  -17.6014   22.1269 C.2     1  UNL1        0.0633
     12 C         -13.5380  -17.7509   23.1441 C.3     1  UNL1        0.0678
     13 O          -7.7144  -17.0623   21.5967 O.3     1  UNL1       -0.4454
     14 C          -8.1587  -15.8633   22.3808 C.3     1  UNL1        0.2087
     15 C          -7.7454  -15.7094   23.8145 C.3     1  UNL1        0.0445
     16 C          -6.3095  -15.4425   24.1566 C.3     1  UNL1        0.0210
     17 C          -5.8961  -15.2885   25.5903 C.3     1  UNL1        0.0722
     18 N          -6.9186  -15.4015   26.6819 N.3     1  UNL1       -0.2727
     19 C          -8.3545  -15.6684   26.3398 C.3     1  UNL1        0.0722
     20 C          -8.7679  -15.8223   24.9061 C.3     1  UNL1        0.0210
     21 C          -7.1929  -15.4932   25.9110 C.3     1  UNL1        0.0722
     22 C          -7.5666  -15.6324   24.6146 C.3     1  UNL1        0.0210
@<TRIPOS>BOND
     1     3     4    1
     2     4     5    2
     3     5     6    1
     4     6     7    2
     5     7     8    1
     6     8     1    1
     7     1     2    2
     8     1    13    1
     9    13    14    1
    10    14    15    1
    11    15    16    1
    12    16    17    1
    13    17    18    1
    14    18    19    1
    15    19    20    1
    16    18    21    1
    17    21    22    1
    18     8     9    2
    19     9    10    1
    20    10    11    2
    21    11    12    1
    22    12     4    1
    23    11     7    1
    24    20    15    1
    25    22    15    1
@<TRIPOS>MOLECULE
*****
 22 25 0 0 0
SMALL
GASTEIGER

@<TRIPOS>ATOM
      1 C          -8.9689  -18.5031   20.4792 C.2     1  UNL1        0.3428
      2 O          -8.6925  -19.2996   19.2387 O.2     1  UNL1       -0.2448
      3 C         -14.0767  -18.4518   25.4329 C.3     1  UNL1        0.0268
      4 C         -13.0913  -18.3865   24.3039 C.2     1  UNL1       -0.0380
      5 C         -11.7436  -19.0294   24.4466 C.2     1  UNL1       -0.0081
      6 C         -10.7582  -18.9641   23.3176 C.2     1  UNL1        0.0008
      7 C         -11.1204  -18.2558   22.0459 C.2     1  UNL1        0.0216
      8 C         -10.3618  -18.0296   20.7718 C.2     1  UNL1        0.0958
      9 C         -11.2406  -17.2469   19.8417 C.2     1  UNL1        0.1049
     10 N         -12.5424  -16.9893   20.5410 N.2     1  UNL1       -0.2476
     11 C         -12.4681  -17.6128   21.9033 C.2     1  UNL1        0.0633
     12 C         -13.4535  -17.6782   23.0323 C.3     1  UNL1        0.0678
     13 O          -7.8522  -18.1800   21.4272 O.3     1  UNL1       -0.4454
     14 C          -7.0745  -19.2869   22.0752 C.3     1  UNL1        0.2087
     15 C          -5.6586  -19.5530   21.6574 C.3     1  UNL1        0.0445
     16 C          -4.5217  -19.0310   22.4851 C.3     1  UNL1        0.0210
     17 C          -3.1058  -19.2971   22.0674 C.3     1  UNL1        0.0722
     18 N          -2.8268  -20.0851   20.8220 N.3     1  UNL1       -0.2727
     19 C          -3.9636  -20.6070   19.9943 C.3     1  UNL1        0.0722
     20 C          -5.3796  -20.3410   20.4119 C.3     1  UNL1        0.0210
     21 C          -3.6192  -19.9648   21.0105 C.3     1  UNL1        0.0722
     22 C          -4.8995  -19.7242   21.3883 C.3     1  UNL1        0.0210
@<TRIPOS>BOND
     1     3     4    1
     2     4     5    2
     3     5     6    1
     4     6     7    2
     5     7     8    1
     6     8     1    1
     7     1     2    2
     8     1    13    1
     9    13    14    1
    10    14    15    1
    11    15    16    1
    12    16    17    1
    13    17    18    1
    14    18    19    1
    15    19    20    1
    16    18    21    1
    17    21    22    1
    18     8     9    2
    19     9    10    1
    20    10    11    2
    21    11    12    1
    22    12     4    1
    23    11     7    1
    24    20    15    1
    25    22    15    1
@<TRIPOS>MOLECULE
*****
 22 25 0 0 0
SMALL
GASTEIGER

@<TRIPOS>ATOM
      1 C          -8.1515  -18.9266   20.3989 C.2     1  UNL1        0.3428
      2 O          -8.9541  -19.0030   19.1340 O.2     1  UNL1       -0.2448
      3 C         -14.0600  -17.9457   24.2407 C.3     1  UNL1        0.0268
      4 C         -12.7622  -18.2287   23.5438 C.2     1  UNL1       -0.0380
      5 C         -12.5242  -17.7031   22.1593 C.2     1  UNL1       -0.0081
      6 C         -11.2263  -17.9861   21.4624 C.2     1  UNL1        0.0008
      7 C         -10.1666  -18.7947   22.1501 C.2     1  UNL1        0.0216
      8 C          -8.7985  -19.2317   21.7173 C.2     1  UNL1        0.0958
      9 C          -8.1910  -20.0274   22.8344 C.2     1  UNL1        0.1049
     10 N          -9.1836  -20.0822   23.9576 N.2     1  UNL1       -0.2476
     11 C         -10.4046  -19.3203   23.5347 C.2     1  UNL1        0.0633
     12 C         -11.7024  -19.0373   24.2315 C.3     1  UNL1        0.0678
     13 O          -6.7018  -18.5450   20.3453 O.3     1  UNL1       -0.4454
     14 C          -5.6556  -19.6001   20.1400 C.3     1  UNL1        0.2087
     15 C          -4.2061  -19.2668   20.3340 C.3     1  UNL1        0.0445
     16 C          -3.5387  -19.5571   21.6456 C.3     1  UNL1        0.0210
     17 C          -2.0891  -19.2238   21.8397 C.3     1  UNL1        0.0722
     18 N          -1.3069  -18.6001   20.7220 N.3     1  UNL1       -0.2727
     19 C          -1.9742  -18.3099   19.4104 C.3     1  UNL1        0.0722
     20 C          -3.4238  -18.6432   19.2163 C.3     1  UNL1        0.0210
     21 C          -2.0988  -18.7650   20.5685 C.3     1  UNL1        0.0722
     22 C          -3.4096  -19.0664   20.3931 C.3     1  UNL1        0.0210
@<TRIPOS>BOND
     1     3     4    1
     2     4     5    2
     3     5     6    1
     4     6     7    2
     5     7     8    1
     6     8     1    1
     7     1     2    2
     8     1    13    1
     9    13    14    1
    10    14    15    1
    11    15    16    1
    12    16    17    1
    13    17    18    1
    14    18    19    1
    15    19    20    1
    16    18    21    1
    17    21    22    1
    18     8     9    2
    19     9    10    1
    20    10    11    2
    21    11    12    1
    22    12     4    1
    23    11     7    1
    24    20    15    1
    25    22    15    1
@<TRIPOS>MOLECULE
*****
 22 25 0 0 0
SMALL
GASTEIGER

@<TRIPOS>ATOM
      1 C          -7.9186  -18.0536   21.5927 C.2     1  UNL1        0.3428
      2 O          -7.7857  -18.5183   20.1727 O.2     1  UNL1       -0.2448
      3 C         -14.4325  -18.0611   24.4565 C.3     1  UNL1        0.0268
      4 C         -13.0324  -18.1796   23.9314 C.2     1  UNL1       -0.0380
      5 C         -12.5132  -17.1744   22.9465 C.2     1  UNL1       -0.0081
      6 C         -11.1131  -17.2929   22.4214 C.2     1  UNL1        0.0008
      7 C         -10.2323  -18.4165   22.8812 C.2     1  UNL1        0.0216
      8 C          -8.8194  -18.7880   22.5410 C.2     1  UNL1        0.0958
      9 C          -8.4653  -20.0227   23.3157 C.2     1  UNL1        0.1049
     10 N          -9.6594  -20.4144   24.1346 N.2     1  UNL1       -0.2476
     11 C         -10.7514  -19.4217   23.8661 C.2     1  UNL1        0.0633
     12 C         -12.1515  -19.3032   24.3912 C.3     1  UNL1        0.0678
     13 O          -7.1508  -16.8544   22.0643 O.3     1  UNL1       -0.4454
     14 C          -7.8226  -15.8234   22.9221 C.3     1  UNL1        0.2087
     15 C          -7.5079  -15.7457   24.3867 C.3     1  UNL1        0.0445
     16 C          -8.5508  -16.1176   25.3986 C.3     1  UNL1        0.0210
     17 C          -8.2362  -16.0399   26.8632 C.3     1  UNL1        0.0722
     18 N          -6.8786  -15.5904   27.3158 N.3     1  UNL1       -0.2727
     19 C          -5.8357  -15.2185   26.3039 C.3     1  UNL1        0.0722
     20 C          -6.1503  -15.2962   24.8393 C.3     1  UNL1        0.0210
     21 C          -7.0043  -15.6170   26.5025 C.3     1  UNL1        0.0722
     22 C          -7.2889  -15.6872   25.1782 C.3     1  UNL1        0.0210
@<TRIPOS>BOND
     1     3     4    1
     2     4     5    2
     3     5     6    1
     4     6     7    2
     5     7     8    1
     6     8     1    1
     7     1     2    2
     8     1    13    1
     9    13    14    1
    10    14    15    1
    11    15    16    1
    12    16    17    1
    13    17    18    1
    14    18    19    1
    15    19    20    1
    16    18    21    1
    17    21    22    1
    18     8     9    2
    19     9    10    1
    20    10    11    2
    21    11    12    1
    22    12     4    1
    23    11     7    1
    24    20    15    1
    25    22    15    1
@<TRIPOS>MOLECULE
*****
 22 25 0 0 0
SMALL
GASTEIGER

@<TRIPOS>ATOM
      1 C         -11.3954  -17.0269   23.0836 C.2     1  UNL1        0.3428
      2 O         -12.6496  -16.3078   22.6839 O.2     1  UNL1       -0.2448
      3 C          -5.2955  -15.0381   26.1606 C.3     1  UNL1        0.0268
      4 C          -6.5255  -15.4086   25.3862 C.2     1  UNL1       -0.0380
      5 C          -7.6899  -16.0437   26.0868 C.2     1  UNL1       -0.0081
      6 C          -8.9199  -16.4142   25.3123 C.2     1  UNL1        0.0008
      7 C          -8.9856  -16.1496   23.8373 C.2     1  UNL1        0.0216
      8 C         -10.0568  -16.4040   22.8187 C.2     1  UNL1        0.0958
      9 C          -9.5545  -15.9261   21.4885 C.2     1  UNL1        0.1049
     10 N          -8.1728  -15.3764   21.6851 N.2     1  UNL1       -0.2476
     11 C          -7.8212  -15.5145   23.1368 C.2     1  UNL1        0.0633
     12 C          -6.5911  -15.1440   23.9112 C.3     1  UNL1        0.0678
     13 O         -11.4797  -18.3689   23.7483 O.3     1  UNL1       -0.4454
     14 C         -11.1356  -19.6098   22.9791 C.3     1  UNL1        0.2087
     15 C         -10.1934  -19.5332   21.8145 C.3     1  UNL1        0.0445
     16 C          -8.7138  -19.4611   22.0503 C.3     1  UNL1        0.0210
     17 C          -7.7715  -19.3845   20.8857 C.3     1  UNL1        0.0722
     18 N          -8.3089  -19.3800   19.4853 N.3     1  UNL1       -0.2727
     19 C          -9.7884  -19.4521   19.2495 C.3     1  UNL1        0.0722
     20 C         -10.7308  -19.5287   20.4141 C.3     1  UNL1        0.0210
     21 C          -8.8643  -19.4233   20.0915 C.3     1  UNL1        0.0722
     22 C          -9.7163  -19.4926   21.1447 C.3     1  UNL1        0.0210
@<TRIPOS>BOND
     1     3     4    1
     2     4     5    2
     3     5     6    1
     4     6     7    2
     5     7     8    1
     6     8     1    1
     7     1     2    2
     8     1    13    1
     9    13    14    1
    10    14    15    1
    11    15    16    1
    12    16    17    1
    13    17    18    1
    14    18    19    1
    15    19    20    1
    16    18    21    1
    17    21    22    1
    18     8     9    2
    19     9    10    1
    20    10    11    2
    21    11    12    1
    22    12     4    1
    23    11     7    1
    24    20    15    1
    25    22    15    1
@<TRIPOS>MOLECULE
*****
 22 25 0 0 0
SMALL
GASTEIGER

@<TRIPOS>ATOM
      1 C          -7.0043  -18.4285   22.4032 C.2     1  UNL1        0.3428
      2 O          -7.0449  -19.9231   22.2840 O.2     1  UNL1       -0.2448
      3 C         -13.8981  -18.1063   24.1366 C.3     1  UNL1        0.0268
      4 C         -12.4657  -18.0516   23.6947 C.2     1  UNL1       -0.0380
      5 C         -11.5034  -19.1140   24.1365 C.2     1  UNL1       -0.0081
      6 C         -10.0710  -19.0593   23.6946 C.2     1  UNL1        0.0008
      7 C          -9.6009  -17.9422   22.8109 C.2     1  UNL1        0.0216
      8 C          -8.2589  -17.6271   22.2195 C.2     1  UNL1        0.0958
      9 C          -8.3918  -16.3699   21.4122 C.2     1  UNL1        0.1049
     10 N          -9.8159  -15.9080   21.5046 N.2     1  UNL1       -0.2476
     11 C         -10.5632  -16.8798   22.3691 C.2     1  UNL1        0.0633
     12 C         -11.9956  -16.9345   22.8110 C.3     1  UNL1        0.0678
     13 O          -5.7091  -17.7352   22.7061 O.3     1  UNL1       -0.4454
     14 C          -4.4315  -18.5197   22.7527 C.3     1  UNL1        0.2087
     15 C          -3.4937  -18.4961   21.5822 C.3     1  UNL1        0.0445
     16 C          -2.2108  -17.7232   21.6645 C.3     1  UNL1        0.0210
     17 C          -1.2730  -17.6995   20.4940 C.3     1  UNL1        0.0722
     18 N          -1.6182  -18.4487   19.2412 N.3     1  UNL1       -0.2727
     19 C          -2.9011  -19.2216   19.1589 C.3     1  UNL1        0.0722
     20 C          -3.8389  -19.2453   20.3294 C.3     1  UNL1        0.0210
     21 C          -2.1636  -18.4913   19.8566 C.3     1  UNL1        0.0722
     22 C          -3.0116  -18.5127   20.9150 C.3     1  UNL1        0.0210
@<TRIPOS>BOND
     1     3     4    1
     2     4     5    2
     3     5     6    1
     4     6     7    2
     5     7     8    1
     6     8     1    1
     7     1     2    2
     8     1    13    1
     9    13    14    1
    10    14    15    1
    11    15    16    1
    12    16    17    1
    13    17    18    1
    14    18    19    1
    15    19    20    1
    16    18    21    1
    17    21    22    1
    18     8     9    2
    19     9    10    1
    20    10    11    2
    21    11    12    1
    22    12     4    1
    23    11     7    1
    24    20    15    1
    25    22    15    1
@<TRIPOS>MOLECULE
*****
 22 25 0 0 0
SMALL
GASTEIGER

@<TRIPOS>ATOM
      1 C         -10.2865  -17.0822   20.9199 C.2     1  UNL1        0.3428
      2 O         -11.0631  -15.7996   20.8791 O.2     1  UNL1       -0.2448
      3 C          -7.0568  -15.2940   27.0030 C.3     1  UNL1        0.0268
      4 C          -7.6106  -15.7294   25.6786 C.2     1  UNL1       -0.0380
      5 C          -9.0427  -15.4455   25.3347 C.2     1  UNL1       -0.0081
      6 C          -9.5965  -15.8809   24.0103 C.2     1  UNL1        0.0008
      7 C          -8.7181  -16.6000   23.0300 C.2     1  UNL1        0.0216
      8 C          -8.9823  -17.1462   21.6582 C.2     1  UNL1        0.0958
      9 C          -7.7135  -17.7676   21.1543 C.2     1  UNL1        0.1049
     10 N          -6.6650  -17.6055   22.2146 N.2     1  UNL1       -0.2476
     11 C          -7.2859  -16.8838   23.3739 C.2     1  UNL1        0.0633
     12 C          -6.7322  -16.4485   24.6982 C.3     1  UNL1        0.0678
     13 O         -10.8140  -18.3009   20.2224 O.3     1  UNL1       -0.4454
     14 C         -11.3067  -19.4694   21.0236 C.3     1  UNL1        0.2087
     15 C         -10.9219  -19.6046   22.4671 C.3     1  UNL1        0.0445
     16 C          -9.7141  -20.4078   22.8493 C.3     1  UNL1        0.0210
     17 C          -9.3292  -20.5431   24.2928 C.3     1  UNL1        0.0722
     18 N         -10.1522  -19.8751   25.3541 N.3     1  UNL1       -0.2727
     19 C         -11.3600  -19.0719   24.9720 C.3     1  UNL1        0.0722
     20 C         -11.7449  -18.9366   23.5285 C.3     1  UNL1        0.0210
     21 C         -10.4025  -19.7724   24.5764 C.3     1  UNL1        0.0722
     22 C         -10.7505  -19.6501   23.2712 C.3     1  UNL1        0.0210
@<TRIPOS>BOND
     1     3     4    1
     2     4     5    2
     3     5     6    1
     4     6     7    2
     5     7     8    1
     6     8     1    1
     7     1     2    2
     8     1    13    1
     9    13    14    1
    10    14    15    1
    11    15    16    1
    12    16    17    1
    13    17    18    1
    14    18    19    1
    15    19    20    1
    16    18    21    1
    17    21    22    1
    18     8     9    2
    19     9    10    1
    20    10    11    2
    21    11    12    1
    22    12     4    1
    23    11     7    1
    24    20    15    1
    25    22    15    1
@<TRIPOS>MOLECULE
*****
 22 25 0 0 0
SMALL
GASTEIGER

@<TRIPOS>ATOM
      1 C          -7.6151  -19.3950   22.5093 C.2     1  UNL1        0.3428
      2 O          -8.3929  -20.4380   23.2558 O.2     1  UNL1       -0.2448
      3 C          -0.7892  -17.9925   21.0699 C.3     1  UNL1        0.0268
      4 C          -2.2211  -18.3917   21.2707 C.2     1  UNL1       -0.0380
      5 C          -3.0601  -17.6858   22.2943 C.2     1  UNL1       -0.0081
      6 C          -4.4920  -18.0850   22.4950 C.2     1  UNL1        0.0008
      7 C          -5.0849  -19.1901   21.6721 C.2     1  UNL1        0.0216
      8 C          -6.4560  -19.7980   21.6468 C.2     1  UNL1        0.0958
      9 C          -6.4644  -20.8796   20.6075 C.2     1  UNL1        0.1049
     10 N          -5.0985  -20.9402   19.9906 N.2     1  UNL1       -0.2476
     11 C          -4.2459  -19.8960   20.6486 C.2     1  UNL1        0.0633
     12 C          -2.8140  -19.4968   20.4478 C.3     1  UNL1        0.0678
     13 O          -7.9965  -17.9489   22.6254 O.3     1  UNL1       -0.4454
     14 C          -8.8738  -17.4929   23.7534 C.3     1  UNL1        0.2087
     15 C         -10.3662  -17.5547   23.6151 C.3     1  UNL1        0.0445
     16 C         -11.0744  -16.6019   22.6982 C.3     1  UNL1        0.0210
     17 C         -12.5668  -16.6636   22.5598 C.3     1  UNL1        0.0722
     18 N         -13.3509  -17.6781   23.3383 N.3     1  UNL1       -0.2727
     19 C         -12.6426  -18.6308   24.2552 C.3     1  UNL1        0.0722
     20 C         -11.1502  -18.5691   24.3936 C.3     1  UNL1        0.0210
     21 C         -12.5347  -17.6825   23.4471 C.3     1  UNL1        0.0722
     22 C         -11.1853  -17.6267   23.5722 C.3     1  UNL1        0.0210
@<TRIPOS>BOND
     1     3     4    1
     2     4     5    2
     3     5     6    1
     4     6     7    2
     5     7     8    1
     6     8     1    1
     7     1     2    2
     8     1    13    1
     9    13    14    1
    10    14    15    1
    11    15    16    1
    12    16    17    1
    13    17    18    1
    14    18    19    1
    15    19    20    1
    16    18    21    1
    17    21    22    1
    18     8     9    2
    19     9    10    1
    20    10    11    2
    21    11    12    1
    22    12     4    1
    23    11     7    1
    24    20    15    1
    25    22    15    1
@<TRIPOS>MOLECULE
*****
 22 25 0 0 0
SMALL
GASTEIGER

@<TRIPOS>ATOM
      1 C         -10.0356  -17.3235   20.5536 C.2     1  UNL1        0.3428
      2 O         -10.7839  -16.0656   20.2255 O.2     1  UNL1       -0.2448
      3 C          -3.5112  -19.9130   21.7193 C.3     1  UNL1        0.0268
      4 C          -4.8704  -19.2904   21.5967 C.2     1  UNL1       -0.0380
      5 C          -5.7516  -19.6362   20.4332 C.2     1  UNL1       -0.0081
      6 C          -7.1108  -19.0136   20.3106 C.2     1  UNL1        0.0008
      7 C          -7.5887  -18.0452   21.3516 C.2     1  UNL1        0.0216
      8 C          -8.8698  -17.2785   21.4964 C.2     1  UNL1        0.0958
      9 C          -8.7803  -16.4587   22.7494 C.2     1  UNL1        0.1049
     10 N          -7.4440  -16.7189   23.3791 N.2     1  UNL1       -0.2476
     11 C          -6.7075  -17.6994   22.5151 C.2     1  UNL1        0.0633
     12 C          -5.3484  -18.3220   22.6377 C.3     1  UNL1        0.0678
     13 O         -10.4532  -18.6265   19.9390 O.3     1  UNL1       -0.4454
     14 C         -11.0195  -19.7153   20.8014 C.3     1  UNL1        0.2087
     15 C         -10.8877  -19.6352   22.2935 C.3     1  UNL1        0.0445
     16 C         -11.8407  -18.7907   23.0863 C.3     1  UNL1        0.0210
     17 C         -11.7089  -18.7106   24.5784 C.3     1  UNL1        0.0722
     18 N         -10.6241  -19.4750   25.2776 N.3     1  UNL1       -0.2727
     19 C          -9.6712  -20.3195   24.4847 C.3     1  UNL1        0.0722
     20 C          -9.8029  -20.3996   22.9927 C.3     1  UNL1        0.0210
     21 C         -10.6567  -19.5502   24.4583 C.3     1  UNL1        0.0722
     22 C         -10.7759  -19.6226   23.1091 C.3     1  UNL1        0.0210
@<TRIPOS>BOND
     1     3     4    1
     2     4     5    2
     3     5     6    1
     4     6     7    2
     5     7     8    1
     6     8     1    1
     7     1     2    2
     8     1    13    1
     9    13    14    1
    10    14    15    1
    11    15    16    1
    12    16    17    1
    13    17    18    1
    14    18    19    1
    15    19    20    1
    16    18    21    1
    17    21    22    1
    18     8     9    2
    19     9    10    1
    20    10    11    2
    21    11    12    1
    22    12     4    1
    23    11     7    1
    24    20    15    1
    25    22    15    1
