@<TRIPOS>MOLECULE
*****
 33 37 0 0 0
SMALL
GASTEIGER

@<TRIPOS>ATOM
      1 C           5.5151   -0.8303   33.9410 C.ar    1  UNL1        0.0504
      2 C           4.6542   -2.0220   33.6428 C.ar    1  UNL1        0.0160
      3 C           5.0699   -3.0017   32.5858 C.ar    1  UNL1        0.0200
      4 C           6.3464   -2.7899   31.8271 C.ar    1  UNL1        0.1105
      5 C           7.2072   -1.5983   32.1253 C.ar    1  UNL1        0.0200
      6 C           6.7915   -0.6185   33.1822 C.ar    1  UNL1        0.0160
      7 O           6.8498   -0.8658   36.6275 O.2     1  UNL1       -0.2748
      8 C           5.7668    0.1318   36.3412 C.2     1  UNL1        0.2260
      9 N           5.0994    0.1495   34.9980 N.am    1  UNL1       -0.2839
     10 H           4.3886    0.8043   34.8101 H       1  UNL1        0.1549
     11 C           5.3511    1.1116   37.3982 C.3     1  UNL1        0.0812
     12 C           5.7081    2.1562   38.4138 C.3     1  UNL1        0.0143
     13 C           4.2742    1.7641   38.2135 C.3     1  UNL1        0.0330
     14 C           2.8247    1.9145   38.5684 C.ar    1  UNL1       -0.0029
     15 C           2.1231    0.8305   39.3319 C.ar    1  UNL1       -0.0011
     16 C           0.6735    0.9809   39.6869 C.ar    1  UNL1        0.0204
     17 C          -0.0746    2.2152   39.2784 C.ar    1  UNL1        0.0989
     18 N           0.6269    3.2991   38.5149 N.ar    1  UNL1       -0.2426
     19 C           2.0766    3.1487   38.1599 C.ar    1  UNL1        0.0946
     20 S           6.7620   -3.7697   30.7700 S.O2    1  UNL1        0.0305
     21 O           6.9458   -4.8248   31.8203 O.2     1  UNL1       -0.1641
     22 O           6.5783   -2.7147   29.7198 O.2     1  UNL1       -0.1641
     23 C           7.1776   -4.7495   29.7131 C.ar    1  UNL1        0.1497
     24 C           7.7006   -6.1350   29.9517 C.ar    1  UNL1        0.1404
     25 N           7.9895   -6.7576   28.6180 N.ar    1  UNL1       -0.1663
     26 N           7.6450   -5.7569   27.5550 N.ar    1  UNL1       -0.2498
     27 C           7.1432   -4.5158   28.2318 C.ar    1  UNL1        0.1153
     28 C           7.7787   -5.9613   26.0750 C.3     1  UNL1        0.1103
     29 C           8.2474   -7.2818   25.5396 C.3     1  UNL1        0.0565
     30 C           8.3812   -7.4863   24.0596 C.3     1  UNL1        0.1442
     31 O           8.0462   -6.3703   23.1150 O.3     1  UNL1       -0.3536
     32 C           7.5774   -5.0497   23.6504 C.3     1  UNL1        0.1442
     33 C           7.4437   -4.8453   25.1304 C.3     1  UNL1        0.0565
@<TRIPOS>BOND
     1     7     8    2
     2     8     9   am
     3     9     1    1
     4     1     2   ar
     5     2     3   ar
     6     3     4   ar
     7     4    20    1
     8    20    21    2
     9    20    22    2
    10    20    23    1
    11    23    24   ar
    12    24    25   ar
    13    25    26   ar
    14    26    28    1
    15    28    29    1
    16    29    30    1
    17    30    31    1
    18    31    32    1
    19    32    33    1
    20    26    27   ar
    21     4     5   ar
    22     5     6   ar
    23    11     8    1
    24    11    12    1
    25    12    13    1
    26    13    14    1
    27    14    15   ar
    28    15    16   ar
    29    16    17   ar
    30    17    18   ar
    31    18    19   ar
    32     6     1   ar
    33    13    11    1
    34    19    14   ar
    35    27    23   ar
    36    33    28    1
    37     9    10    1
@<TRIPOS>MOLECULE
*****
 33 37 0 0 0
SMALL
GASTEIGER

@<TRIPOS>ATOM
      1 C           2.9028    0.2474   27.5699 C.ar    1  UNL1        0.0504
      2 C           4.1055    0.9539   28.1214 C.ar    1  UNL1        0.0160
      3 C           4.3975    0.9013   29.5917 C.ar    1  UNL1        0.0200
      4 C           3.4868    0.1421   30.5105 C.ar    1  UNL1        0.1105
      5 C           2.2840   -0.5644   29.9590 C.ar    1  UNL1        0.0200
      6 C           1.9921   -0.5117   28.4887 C.ar    1  UNL1        0.0160
      7 O           4.3604   -1.5753   25.6848 O.2     1  UNL1       -0.2748
      8 C           3.3395   -0.6113   25.1570 C.2     1  UNL1        0.2260
      9 N           2.6107    0.3000   26.0995 N.am    1  UNL1       -0.2839
     10 H           1.9407    0.9327   25.7530 H       1  UNL1        0.1549
     11 C           3.0475   -0.5587   23.6866 C.3     1  UNL1        0.0812
     12 C           2.4031    0.1186   22.5136 C.3     1  UNL1        0.0143
     13 C           3.1860   -1.1450   22.3129 C.3     1  UNL1        0.0330
     14 C           3.7179   -2.2130   21.4039 C.ar    1  UNL1       -0.0029
     15 C           3.3191   -2.2345   19.9580 C.ar    1  UNL1       -0.0011
     16 C           3.8510   -3.3025   19.0491 C.ar    1  UNL1        0.0204
     17 C           4.7818   -4.3492   19.5859 C.ar    1  UNL1        0.0989
     18 N           5.1807   -4.3278   21.0318 N.ar    1  UNL1       -0.2426
     19 C           4.6487   -3.2596   21.9408 C.ar    1  UNL1        0.0946
     20 S           3.7788    0.0895   31.9809 S.O2    1  UNL1        0.0305
     21 O           4.2158    1.5240   31.9455 O.2     1  UNL1       -0.1641
     22 O           3.3419   -1.3449   32.0164 O.2     1  UNL1       -0.1641
     23 C           4.0709    0.0369   33.4513 C.ar    1  UNL1        0.1497
     24 C           4.7661   -1.0794   34.1727 C.ar    1  UNL1        0.1404
     25 N           4.8439   -0.7149   35.6256 N.ar    1  UNL1       -0.1663
     26 N           4.1966    0.6267   35.8022 N.ar    1  UNL1       -0.2498
     27 C           3.7189    1.0913   34.4583 C.ar    1  UNL1        0.1153
     28 C           4.0524    1.3727   37.0955 C.3     1  UNL1        0.1103
     29 C           2.6888    1.7372   37.6031 C.3     1  UNL1        0.0565
     30 C           2.5446    2.4832   38.8964 C.3     1  UNL1        0.1442
     31 O           3.7640    2.8647   39.6822 O.3     1  UNL1       -0.3536
     32 C           5.1277    2.5003   39.1746 C.3     1  UNL1        0.1442
     33 C           5.2718    1.7543   37.8813 C.3     1  UNL1        0.0565
@<TRIPOS>BOND
     1     7     8    2
     2     8     9   am
     3     9     1    1
     4     1     2   ar
     5     2     3   ar
     6     3     4   ar
     7     4    20    1
     8    20    21    2
     9    20    22    2
    10    20    23    1
    11    23    24   ar
    12    24    25   ar
    13    25    26   ar
    14    26    28    1
    15    28    29    1
    16    29    30    1
    17    30    31    1
    18    31    32    1
    19    32    33    1
    20    26    27   ar
    21     4     5   ar
    22     5     6   ar
    23    11     8    1
    24    11    12    1
    25    12    13    1
    26    13    14    1
    27    14    15   ar
    28    15    16   ar
    29    16    17   ar
    30    17    18   ar
    31    18    19   ar
    32     6     1   ar
    33    13    11    1
    34    19    14   ar
    35    27    23   ar
    36    33    28    1
    37     9    10    1
@<TRIPOS>MOLECULE
*****
 33 37 0 0 0
SMALL
GASTEIGER

@<TRIPOS>ATOM
      1 C           3.5017   -1.1519   27.5692 C.ar    1  UNL1        0.0504
      2 C           2.1410   -0.7050   28.0149 C.ar    1  UNL1        0.0160
      3 C           1.9647   -0.0669   29.3608 C.ar    1  UNL1        0.0200
      4 C           3.1492    0.1244   30.2611 C.ar    1  UNL1        0.1105
      5 C           4.5099   -0.3225   29.8154 C.ar    1  UNL1        0.0200
      6 C           4.6862   -0.9606   28.4694 C.ar    1  UNL1        0.0160
      7 O           3.6097    0.5532   25.1032 O.2     1  UNL1       -0.2748
      8 C           3.7320   -0.9375   24.9902 C.2     1  UNL1        0.2260
      9 N           3.6780   -1.7901   26.2231 N.am    1  UNL1       -0.2839
     10 H           3.7583   -2.7685   26.1490 H       1  UNL1        0.1549
     11 C           3.9084   -1.5757   23.6442 C.3     1  UNL1        0.0812
     12 C           4.4355   -2.6952   22.7963 C.3     1  UNL1        0.0143
     13 C           3.6866   -1.5616   22.1607 C.3     1  UNL1        0.0330
     14 C           3.1263   -0.8989   20.9373 C.ar    1  UNL1       -0.0029
     15 C           1.6511   -0.6499   20.8283 C.ar    1  UNL1       -0.0011
     16 C           1.0908    0.0128   19.6049 C.ar    1  UNL1        0.0204
     17 C           2.0056    0.4265   18.4904 C.ar    1  UNL1        0.0989
     18 N           3.4807    0.1775   18.5994 N.ar    1  UNL1       -0.2426
     19 C           4.0411   -0.4852   19.8229 C.ar    1  UNL1        0.0946
     20 S           2.9729    0.7626   31.6071 S.O2    1  UNL1        0.0305
     21 O           4.4212    0.5194   31.9122 O.2     1  UNL1       -0.1641
     22 O           1.5245    1.0057   31.3020 O.2     1  UNL1       -0.1641
     23 C           2.7965    1.4007   32.9531 C.ar    1  UNL1        0.1497
     24 C           1.7657    2.4293   33.3129 C.ar    1  UNL1        0.1404
     25 N           1.9521    2.7866   34.7577 N.ar    1  UNL1       -0.1663
     26 N           3.0981    1.9789   35.2908 N.ar    1  UNL1       -0.2498
     27 C           3.6200    1.1223   34.1755 C.ar    1  UNL1        0.1153
     28 C           3.6291    2.0204   36.6931 C.3     1  UNL1        0.1103
     29 C           2.9785    1.1985   37.7661 C.3     1  UNL1        0.0565
     30 C           3.5095    1.2400   39.1683 C.3     1  UNL1        0.1442
     31 O           4.6910    2.1034   39.4977 O.3     1  UNL1       -0.3536
     32 C           5.3417    2.9253   38.4248 C.3     1  UNL1        0.1442
     33 C           4.8106    2.8838   37.0225 C.3     1  UNL1        0.0565
@<TRIPOS>BOND
     1     7     8    2
     2     8     9   am
     3     9     1    1
     4     1     2   ar
     5     2     3   ar
     6     3     4   ar
     7     4    20    1
     8    20    21    2
     9    20    22    2
    10    20    23    1
    11    23    24   ar
    12    24    25   ar
    13    25    26   ar
    14    26    28    1
    15    28    29    1
    16    29    30    1
    17    30    31    1
    18    31    32    1
    19    32    33    1
    20    26    27   ar
    21     4     5   ar
    22     5     6   ar
    23    11     8    1
    24    11    12    1
    25    12    13    1
    26    13    14    1
    27    14    15   ar
    28    15    16   ar
    29    16    17   ar
    30    17    18   ar
    31    18    19   ar
    32     6     1   ar
    33    13    11    1
    34    19    14   ar
    35    27    23   ar
    36    33    28    1
    37     9    10    1
@<TRIPOS>MOLECULE
*****
 33 37 0 0 0
SMALL
GASTEIGER

@<TRIPOS>ATOM
      1 C           1.9003    0.2090   18.9567 C.ar    1  UNL1        0.0504
      2 C           3.1686   -0.0960   18.2161 C.ar    1  UNL1        0.0160
      3 C           4.1935   -1.0051   18.8268 C.ar    1  UNL1        0.0200
      4 C           3.9502   -1.6092   20.1780 C.ar    1  UNL1        0.1105
      5 C           2.6819   -1.3042   20.9186 C.ar    1  UNL1        0.0200
      6 C           1.6570   -0.3951   20.3079 C.ar    1  UNL1        0.0160
      7 O           1.9848    3.1552   19.5163 O.2     1  UNL1       -0.2748
      8 C           0.9176    2.5912   18.6258 C.2     1  UNL1        0.2260
      9 N           0.8753    1.1182   18.3460 N.am    1  UNL1       -0.2839
     10 H           0.1748    0.7481   17.7616 H       1  UNL1        0.1549
     11 C          -0.1074    3.5004   18.0152 C.3     1  UNL1        0.0812
     12 C          -0.4637    4.5995   17.0586 C.3     1  UNL1        0.0143
     13 C          -1.5264    3.9759   17.9140 C.3     1  UNL1        0.0330
     14 C          -2.9593    3.8905   18.3495 C.ar    1  UNL1       -0.0029
     15 C          -4.0600    4.0679   17.3460 C.ar    1  UNL1       -0.0011
     16 C          -5.4928    3.9824   17.7815 C.ar    1  UNL1        0.0204
     17 C          -5.8250    3.7195   19.2205 C.ar    1  UNL1        0.0989
     18 N          -4.7242    3.5421   20.2239 N.ar    1  UNL1       -0.2426
     19 C          -3.2914    3.6276   19.7884 C.ar    1  UNL1        0.0946
     20 S           4.9752   -2.5184   20.7887 S.O2    1  UNL1        0.0305
     21 O           5.8045   -2.4205   19.5427 O.2     1  UNL1       -0.1641
     22 O           4.1459   -2.6163   22.0348 O.2     1  UNL1       -0.1641
     23 C           6.0001   -3.4275   21.3994 C.ar    1  UNL1        0.1497
     24 C           7.2086   -3.9847   20.7073 C.ar    1  UNL1        0.1404
     25 N           7.9519   -4.8406   21.6895 N.ar    1  UNL1       -0.1663
     26 N           7.2028   -4.8124   22.9888 N.ar    1  UNL1       -0.2498
     27 C           5.9965   -3.9390   22.8095 C.ar    1  UNL1        0.1153
     28 C           7.5916   -5.5313   24.2466 C.3     1  UNL1        0.1103
     29 C           7.3512   -4.8909   25.5815 C.3     1  UNL1        0.0565
     30 C           7.7400   -5.6098   26.8392 C.3     1  UNL1        0.1442
     31 O           8.3694   -6.9692   26.7621 O.3     1  UNL1       -0.3536
     32 C           8.6099   -7.6097   25.4271 C.3     1  UNL1        0.1442
     33 C           8.2210   -6.8907   24.1694 C.3     1  UNL1        0.0565
@<TRIPOS>BOND
     1     7     8    2
     2     8     9   am
     3     9     1    1
     4     1     2   ar
     5     2     3   ar
     6     3     4   ar
     7     4    20    1
     8    20    21    2
     9    20    22    2
    10    20    23    1
    11    23    24   ar
    12    24    25   ar
    13    25    26   ar
    14    26    28    1
    15    28    29    1
    16    29    30    1
    17    30    31    1
    18    31    32    1
    19    32    33    1
    20    26    27   ar
    21     4     5   ar
    22     5     6   ar
    23    11     8    1
    24    11    12    1
    25    12    13    1
    26    13    14    1
    27    14    15   ar
    28    15    16   ar
    29    16    17   ar
    30    17    18   ar
    31    18    19   ar
    32     6     1   ar
    33    13    11    1
    34    19    14   ar
    35    27    23   ar
    36    33    28    1
    37     9    10    1
@<TRIPOS>MOLECULE
*****
 33 37 0 0 0
SMALL
GASTEIGER

@<TRIPOS>ATOM
      1 C           4.0083    0.8532   31.6308 C.ar    1  UNL1        0.0504
      2 C           2.6089    0.7322   31.1045 C.ar    1  UNL1        0.0160
      3 C           2.3747    0.5228   29.6378 C.ar    1  UNL1        0.0200
      4 C           3.5399    0.4344   28.6974 C.ar    1  UNL1        0.1105
      5 C           4.9393    0.5553   29.2236 C.ar    1  UNL1        0.0200
      6 C           5.1735    0.7647   30.6903 C.ar    1  UNL1        0.0160
      7 O           3.8463   -1.4697   33.5224 O.2     1  UNL1       -0.2748
      8 C           4.1616   -0.0988   34.0433 C.2     1  UNL1        0.2260
      9 N           4.2426    1.0626   33.0975 N.am    1  UNL1       -0.2839
     10 H           4.4495    1.9623   33.4394 H       1  UNL1        0.1549
     11 C           4.3959    0.1106   35.5101 C.3     1  UNL1        0.0812
     12 C           5.2906    0.0112   36.7098 C.3     1  UNL1        0.0143
     13 C           3.9069    0.5727   36.8507 C.3     1  UNL1        0.0330
     14 C           2.8256    1.1636   37.7061 C.ar    1  UNL1       -0.0029
     15 C           2.2552    0.3733   38.8462 C.ar    1  UNL1       -0.0011
     16 C           1.1739    0.9642   39.7016 C.ar    1  UNL1        0.0204
     17 C           0.6631    2.3456   39.4168 C.ar    1  UNL1        0.0989
     18 N           1.2336    3.1359   38.2766 N.ar    1  UNL1       -0.2426
     19 C           2.3149    2.5449   37.4212 C.ar    1  UNL1        0.0946
     20 S           3.3056    0.2250   27.2306 S.O2    1  UNL1        0.0305
     21 O           2.4816    1.4775   27.1833 O.2     1  UNL1       -0.1641
     22 O           4.1296   -1.0275   27.2779 O.2     1  UNL1       -0.1641
     23 C           3.0713    0.0155   25.7639 C.ar    1  UNL1        0.1497
     24 C           2.1286    0.8005   24.9007 C.ar    1  UNL1        0.1404
     25 N           2.2133    0.2545   23.5062 N.ar    1  UNL1       -0.1663
     26 N           3.2084   -0.8680   23.5076 N.ar    1  UNL1       -0.2498
     27 C           3.7387   -1.0157   24.9029 C.ar    1  UNL1        0.1153
     28 C           3.6038   -1.6973   22.3218 C.3     1  UNL1        0.1103
     29 C           3.1030   -1.3374   20.9544 C.3     1  UNL1        0.0565
     30 C           3.4984   -2.1666   19.7686 C.3     1  UNL1        0.1442
     31 O           4.3946   -3.3557   19.9502 O.3     1  UNL1       -0.3536
     32 C           4.8954   -3.7156   21.3176 C.3     1  UNL1        0.1442
     33 C           4.5000   -2.8863   22.5034 C.3     1  UNL1        0.0565
@<TRIPOS>BOND
     1     7     8    2
     2     8     9   am
     3     9     1    1
     4     1     2   ar
     5     2     3   ar
     6     3     4   ar
     7     4    20    1
     8    20    21    2
     9    20    22    2
    10    20    23    1
    11    23    24   ar
    12    24    25   ar
    13    25    26   ar
    14    26    28    1
    15    28    29    1
    16    29    30    1
    17    30    31    1
    18    31    32    1
    19    32    33    1
    20    26    27   ar
    21     4     5   ar
    22     5     6   ar
    23    11     8    1
    24    11    12    1
    25    12    13    1
    26    13    14    1
    27    14    15   ar
    28    15    16   ar
    29    16    17   ar
    30    17    18   ar
    31    18    19   ar
    32     6     1   ar
    33    13    11    1
    34    19    14   ar
    35    27    23   ar
    36    33    28    1
    37     9    10    1
@<TRIPOS>MOLECULE
*****
 33 37 0 0 0
SMALL
GASTEIGER

@<TRIPOS>ATOM
      1 C           1.2331    1.2409   27.2499 C.ar    1  UNL1        0.0504
      2 C           1.7736    0.3114   28.2957 C.ar    1  UNL1        0.0160
      3 C           1.8746    0.7646   29.7220 C.ar    1  UNL1        0.0200
      4 C           1.4351    2.1474   30.1025 C.ar    1  UNL1        0.1105
      5 C           0.8946    3.0769   29.0567 C.ar    1  UNL1        0.0200
      6 C           0.7936    2.6237   27.6304 C.ar    1  UNL1        0.0160
      7 O           3.5938    1.5129   25.4187 O.2     1  UNL1       -0.2748
      8 C           2.3124    0.9237   24.9080 C.2     1  UNL1        0.2260
      9 N           1.1320    0.7878   25.8235 N.am    1  UNL1       -0.2839
     10 H           0.2910    0.4011   25.4883 H       1  UNL1        0.1549
     11 C           2.2114    0.4705   23.4816 C.3     1  UNL1        0.0812
     12 C           1.6125    0.6104   22.1135 C.3     1  UNL1        0.0143
     13 C           2.6352   -0.4543   22.3792 C.3     1  UNL1        0.0330
     14 C           3.4703   -1.6028   21.8963 C.ar    1  UNL1       -0.0029
     15 C           4.1995   -2.4666   22.8822 C.ar    1  UNL1       -0.0011
     16 C           5.0346   -3.6152   22.3993 C.ar    1  UNL1        0.0204
     17 C           5.1405   -3.9001   20.9303 C.ar    1  UNL1        0.0989
     18 N           4.4112   -3.0363   19.9444 N.ar    1  UNL1       -0.2426
     19 C           3.5761   -1.8877   20.4274 C.ar    1  UNL1        0.0946
     20 S           1.5361    2.6006   31.5288 S.O2    1  UNL1        0.0305
     21 O           0.0398    2.6573   31.6169 O.2     1  UNL1       -0.1641
     22 O           3.0324    2.5438   31.4408 O.2     1  UNL1       -0.1641
     23 C           1.6372    3.0537   32.9551 C.ar    1  UNL1        0.1497
     24 C           1.0579    4.3157   33.5225 C.ar    1  UNL1        0.1404
     25 N           1.3980    4.3664   34.9825 N.ar    1  UNL1       -0.1663
     26 N           2.1875    3.1358   35.3175 N.ar    1  UNL1       -0.2498
     27 C           2.3354    2.3245   34.0645 C.ar    1  UNL1        0.1153
     28 C           2.7334    2.7790   36.6684 C.3     1  UNL1        0.1103
     29 C           2.5366    3.7113   37.8269 C.3     1  UNL1        0.0565
     30 C           3.0825    3.3545   39.1778 C.3     1  UNL1        0.1442
     31 O           3.8252    2.0656   39.3701 O.3     1  UNL1       -0.3536
     32 C           4.0220    1.1332   38.2116 C.3     1  UNL1        0.1442
     33 C           3.4760    1.4900   36.8608 C.3     1  UNL1        0.0565
@<TRIPOS>BOND
     1     7     8    2
     2     8     9   am
     3     9     1    1
     4     1     2   ar
     5     2     3   ar
     6     3     4   ar
     7     4    20    1
     8    20    21    2
     9    20    22    2
    10    20    23    1
    11    23    24   ar
    12    24    25   ar
    13    25    26   ar
    14    26    28    1
    15    28    29    1
    16    29    30    1
    17    30    31    1
    18    31    32    1
    19    32    33    1
    20    26    27   ar
    21     4     5   ar
    22     5     6   ar
    23    11     8    1
    24    11    12    1
    25    12    13    1
    26    13    14    1
    27    14    15   ar
    28    15    16   ar
    29    16    17   ar
    30    17    18   ar
    31    18    19   ar
    32     6     1   ar
    33    13    11    1
    34    19    14   ar
    35    27    23   ar
    36    33    28    1
    37     9    10    1
@<TRIPOS>MOLECULE
*****
 33 37 0 0 0
SMALL
GASTEIGER

@<TRIPOS>ATOM
      1 C           0.9328    1.6113   24.8022 C.ar    1  UNL1        0.0504
      2 C           2.1355    2.2764   25.4029 C.ar    1  UNL1        0.0160
      3 C           2.1768    2.5641   26.8745 C.ar    1  UNL1        0.0200
      4 C           1.0152    2.1868   27.7453 C.ar    1  UNL1        0.1105
      5 C          -0.1876    1.5217   27.1446 C.ar    1  UNL1        0.0200
      6 C          -0.2288    1.2339   25.6730 C.ar    1  UNL1        0.0160
      7 O           2.6612   -0.5520   23.6477 O.2     1  UNL1       -0.2748
      8 C           1.7557    0.2419   22.7534 C.2     1  UNL1        0.2260
      9 N           0.8915    1.3235   23.3306 N.am    1  UNL1       -0.2839
     10 H           0.2972    1.8445   22.7436 H       1  UNL1        0.1549
     11 C           1.7145   -0.0459   21.2818 C.3     1  UNL1        0.0812
     12 C           1.0320    0.0806   19.9521 C.3     1  UNL1        0.0143
     13 C           2.3255   -0.6708   20.0627 C.3     1  UNL1        0.0330
     14 C           3.4250   -1.4654   19.4228 C.ar    1  UNL1       -0.0029
     15 C           3.4167   -2.9629   19.5100 C.ar    1  UNL1       -0.0011
     16 C           4.5163   -3.7575   18.8701 C.ar    1  UNL1        0.0204
     17 C           5.6242   -3.0547   18.1429 C.ar    1  UNL1        0.0989
     18 N           5.6324   -1.5572   18.0557 N.ar    1  UNL1       -0.2426
     19 C           4.5328   -0.7626   18.6956 C.ar    1  UNL1        0.0946
     20 S           1.0564    2.4745   29.2169 S.O2    1  UNL1        0.0305
     21 O           0.0199    1.4163   29.4529 O.2     1  UNL1       -0.1641
     22 O           2.0930    3.5327   28.9809 O.2     1  UNL1       -0.1641
     23 C           1.0977    2.7623   30.6884 C.ar    1  UNL1        0.1497
     24 C           1.6175    1.8418   31.7526 C.ar    1  UNL1        0.1404
     25 N           1.4675    2.5317   33.0761 N.ar    1  UNL1       -0.1663
     26 N           0.8550    3.8787   32.8297 N.ar    1  UNL1       -0.2498
     27 C           0.6265    4.0212   31.3541 C.ar    1  UNL1        0.1153
     28 C           0.5284    4.9033   33.8755 C.3     1  UNL1        0.1103
     29 C          -0.5910    5.8757   33.6490 C.3     1  UNL1        0.0565
     30 C          -0.9176    6.9003   34.6948 C.3     1  UNL1        0.1442
     31 O          -0.1247    6.9525   35.9670 O.3     1  UNL1       -0.3536
     32 C           0.9948    5.9801   36.1936 C.3     1  UNL1        0.1442
     33 C           1.3213    4.9555   35.1478 C.3     1  UNL1        0.0565
@<TRIPOS>BOND
     1     7     8    2
     2     8     9   am
     3     9     1    1
     4     1     2   ar
     5     2     3   ar
     6     3     4   ar
     7     4    20    1
     8    20    21    2
     9    20    22    2
    10    20    23    1
    11    23    24   ar
    12    24    25   ar
    13    25    26   ar
    14    26    28    1
    15    28    29    1
    16    29    30    1
    17    30    31    1
    18    31    32    1
    19    32    33    1
    20    26    27   ar
    21     4     5   ar
    22     5     6   ar
    23    11     8    1
    24    11    12    1
    25    12    13    1
    26    13    14    1
    27    14    15   ar
    28    15    16   ar
    29    16    17   ar
    30    17    18   ar
    31    18    19   ar
    32     6     1   ar
    33    13    11    1
    34    19    14   ar
    35    27    23   ar
    36    33    28    1
    37     9    10    1
@<TRIPOS>MOLECULE
*****
 33 37 0 0 0
SMALL
GASTEIGER

@<TRIPOS>ATOM
      1 C           1.5800    0.6601   27.6521 C.ar    1  UNL1        0.0504
      2 C           2.4025   -0.5118   28.0995 C.ar    1  UNL1        0.0160
      3 C           2.9076   -0.5786   29.5102 C.ar    1  UNL1        0.0200
      4 C           2.5902    0.5264   30.4736 C.ar    1  UNL1        0.1105
      5 C           1.7677    1.6983   30.0263 C.ar    1  UNL1        0.0200
      6 C           1.2626    1.7651   28.6155 C.ar    1  UNL1        0.0160
      7 O           3.4909    1.1742   25.3973 O.2     1  UNL1       -0.2748
      8 C           2.0303    0.9840   25.1139 C.2     1  UNL1        0.2260
      9 N           1.0748    0.7269   26.2412 N.am    1  UNL1       -0.2839
     10 H           0.1162    0.6021   26.0552 H       1  UNL1        0.1549
     11 C           1.5251    1.0509   23.7030 C.3     1  UNL1        0.0812
     12 C           0.5392    1.5713   22.6996 C.3     1  UNL1        0.0143
     13 C           1.6362    0.6462   22.2629 C.3     1  UNL1        0.0330
     14 C           2.3337   -0.1215   21.1794 C.ar    1  UNL1       -0.0029
     15 C           3.1653   -1.3207   21.5261 C.ar    1  UNL1       -0.0011
     16 C           3.8628   -2.0884   20.4426 C.ar    1  UNL1        0.0204
     17 C           3.7287   -1.6569   19.0122 C.ar    1  UNL1        0.0989
     18 N           2.8970   -0.4577   18.6655 N.ar    1  UNL1       -0.2426
     19 C           2.1995    0.3100   19.7491 C.ar    1  UNL1        0.0946
     20 S           3.0954    0.4596   31.8845 S.O2    1  UNL1        0.0305
     21 O           3.1582   -1.0362   31.7911 O.2     1  UNL1       -0.1641
     22 O           3.0325    1.9553   31.9779 O.2     1  UNL1       -0.1641
     23 C           3.6005    0.3928   33.2953 C.ar    1  UNL1        0.1497
     24 C           4.5035   -0.6638   33.8594 C.ar    1  UNL1        0.1404
     25 N           4.7524   -0.3388   35.3024 N.ar    1  UNL1       -0.1663
     26 N           4.0032    0.9187   35.6302 N.ar    1  UNL1       -0.2498
     27 C           3.2913    1.3708   34.3897 C.ar    1  UNL1        0.1153
     28 C           3.9715    1.6038   36.9642 C.3     1  UNL1        0.1103
     29 C           2.6730    2.1157   37.5138 C.3     1  UNL1        0.0565
     30 C           2.6413    2.8008   38.8478 C.3     1  UNL1        0.1442
     31 O           3.9080    2.9740   39.6323 O.3     1  UNL1       -0.3536
     32 C           5.2066    2.4621   39.0827 C.3     1  UNL1        0.1442
     33 C           5.2382    1.7771   37.7487 C.3     1  UNL1        0.0565
@<TRIPOS>BOND
     1     7     8    2
     2     8     9   am
     3     9     1    1
     4     1     2   ar
     5     2     3   ar
     6     3     4   ar
     7     4    20    1
     8    20    21    2
     9    20    22    2
    10    20    23    1
    11    23    24   ar
    12    24    25   ar
    13    25    26   ar
    14    26    28    1
    15    28    29    1
    16    29    30    1
    17    30    31    1
    18    31    32    1
    19    32    33    1
    20    26    27   ar
    21     4     5   ar
    22     5     6   ar
    23    11     8    1
    24    11    12    1
    25    12    13    1
    26    13    14    1
    27    14    15   ar
    28    15    16   ar
    29    16    17   ar
    30    17    18   ar
    31    18    19   ar
    32     6     1   ar
    33    13    11    1
    34    19    14   ar
    35    27    23   ar
    36    33    28    1
    37     9    10    1
@<TRIPOS>MOLECULE
*****
 33 37 0 0 0
SMALL
GASTEIGER

@<TRIPOS>ATOM
      1 C          -0.7851    2.5899   26.8409 C.ar    1  UNL1        0.0504
      2 C          -0.7327    1.2124   27.4320 C.ar    1  UNL1        0.0160
      3 C          -0.0233    0.9812   28.7333 C.ar    1  UNL1        0.0200
      4 C           0.6336    2.1275   29.4434 C.ar    1  UNL1        0.1105
      5 C           0.5812    3.5051   28.8522 C.ar    1  UNL1        0.0200
      6 C          -0.1282    3.7363   27.5510 C.ar    1  UNL1        0.0160
      7 O          -3.5848    3.6678   26.8295 O.2     1  UNL1       -0.2748
      8 C          -2.8943    3.3601   25.5339 C.2     1  UNL1        0.2260
      9 N          -1.4945    2.8212   25.5396 N.am    1  UNL1       -0.2839
     10 H          -1.0414    2.6192   24.6892 H       1  UNL1        0.1549
     11 C          -3.6037    3.5914   24.2326 C.3     1  UNL1        0.0812
     12 C          -4.8691    3.8571   23.4722 C.3     1  UNL1        0.0143
     13 C          -3.5670    3.7262   22.7391 C.3     1  UNL1        0.0330
     14 C          -2.7941    3.7285   21.4536 C.ar    1  UNL1       -0.0029
     15 C          -3.4784    4.0863   20.1677 C.ar    1  UNL1       -0.0011
     16 C          -2.7055    4.0886   18.8822 C.ar    1  UNL1        0.0204
     17 C          -1.2481    3.7331   18.8826 C.ar    1  UNL1        0.0989
     18 N          -0.5638    3.3753   20.1686 N.ar    1  UNL1       -0.2426
     19 C          -1.3369    3.3731   21.4541 C.ar    1  UNL1        0.0946
     20 S           1.3430    1.8963   30.7447 S.O2    1  UNL1        0.0305
     21 O           2.6644    2.0522   30.0522 O.2     1  UNL1       -0.1641
     22 O           0.0217    1.7404   31.4373 O.2     1  UNL1       -0.1641
     23 C           2.0523    1.6650   32.0460 C.ar    1  UNL1        0.1497
     24 C           3.1205    0.6426   32.2984 C.ar    1  UNL1        0.1404
     25 N           3.5464    0.7612   33.7317 N.ar    1  UNL1       -0.1663
     26 N           2.7414    1.8571   34.3652 N.ar    1  UNL1       -0.2498
     27 C           1.8180    2.4156   33.3234 C.ar    1  UNL1        0.1153
     28 C           2.8421    2.3141   35.7904 C.3     1  UNL1        0.1103
     29 C           3.6631    1.5322   36.7725 C.3     1  UNL1        0.0565
     30 C           3.7638    1.9892   38.1976 C.3     1  UNL1        0.1442
     31 O           3.0435    3.2281   38.6407 O.3     1  UNL1       -0.3536
     32 C           2.2224    4.0100   37.6585 C.3     1  UNL1        0.1442
     33 C           2.1218    3.5530   36.2334 C.3     1  UNL1        0.0565
@<TRIPOS>BOND
     1     7     8    2
     2     8     9   am
     3     9     1    1
     4     1     2   ar
     5     2     3   ar
     6     3     4   ar
     7     4    20    1
     8    20    21    2
     9    20    22    2
    10    20    23    1
    11    23    24   ar
    12    24    25   ar
    13    25    26   ar
    14    26    28    1
    15    28    29    1
    16    29    30    1
    17    30    31    1
    18    31    32    1
    19    32    33    1
    20    26    27   ar
    21     4     5   ar
    22     5     6   ar
    23    11     8    1
    24    11    12    1
    25    12    13    1
    26    13    14    1
    27    14    15   ar
    28    15    16   ar
    29    16    17   ar
    30    17    18   ar
    31    18    19   ar
    32     6     1   ar
    33    13    11    1
    34    19    14   ar
    35    27    23   ar
    36    33    28    1
    37     9    10    1
