@<TRIPOS>MOLECULE
*****
 31 32 0 0 0
SMALL
GASTEIGER

@<TRIPOS>ATOM
      1 C          -8.2301  -15.6961   25.4315 C.3     1  UNL1        0.0952
      2 C          -8.4183  -15.8337   26.9132 C.3     1  UNL1        0.0233
      3 C          -7.0664  -15.7702   27.5601 C.3     1  UNL1        0.0233
      4 C          -6.0427  -15.5933   26.4780 C.3     1  UNL1        0.0935
      5 N          -6.7620  -15.5474   25.1625 N.am    1  UNL1       -0.2794
      6 C          -6.1249  -15.3820   23.8146 C.2     1  UNL1        0.2270
      7 O          -6.9772  -15.3543   22.5805 O.2     1  UNL1       -0.2748
      8 C          -9.3190  -15.7054   24.3999 C.3     1  UNL1        0.1131
      9 C          -8.9422  -18.2485   24.0246 C.3     1  UNL1        0.1149
     10 N          -9.6794  -16.9828   23.7011 N.am    1  UNL1       -0.2761
     11 C         -10.7770  -16.9946   22.6787 C.2     1  UNL1        0.2248
     12 O         -11.5142  -15.7288   22.3552 O.2     1  UNL1       -0.2749
     13 C         -11.1374  -18.2720   21.9799 C.3     1  UNL1        0.0691
     14 C         -11.9187  -18.7098   23.1832 C.3     1  UNL1        0.0091
     15 C         -10.3560  -17.8342   20.7767 C.3     1  UNL1        0.0091
     16 C         -11.4978  -19.5494   21.2811 C.3     1  UNL1        0.0091
     17 C          -4.6356  -15.2443   23.7008 C.3     1  UNL1        0.1010
     18 C          -3.8389  -16.2892   22.9773 C.3     1  UNL1        0.0644
     19 N          -2.9072  -15.8898   21.8716 N.3     1  UNL1       -0.3215
     20 H          -2.9409  -14.8779   21.7474 H       1  UNL1        0.1188
     21 H          -3.1908  -16.3483   21.0058 H       1  UNL1        0.1188
     22 C          -3.9738  -17.7334   23.3594 C.3     1  UNL1        0.0447
     23 C          -4.5575  -18.7151   22.3869 C.ar    1  UNL1        0.0090
     24 C          -6.0454  -18.8758   22.2853 C.ar    1  UNL1        0.0300
     25 C          -6.6290  -19.8575   21.3129 C.ar    1  UNL1        0.1672
     26 F          -8.1169  -20.0183   21.2113 F       1  UNL1       -0.2018
     27 C          -5.7247  -20.6785   20.4421 C.ar    1  UNL1        0.1696
     28 F          -6.3084  -21.6602   19.4697 F       1  UNL1       -0.2017
     29 C          -4.2369  -20.5178   20.5437 C.ar    1  UNL1        0.0612
     30 C          -3.6533  -19.5361   21.5161 C.ar    1  UNL1        0.1386
     31 F          -2.1653  -19.3753   21.6177 F       1  UNL1       -0.2044
@<TRIPOS>BOND
     1     9    10    1
     2    10     8    1
     3     1     8    1
     4     1     2    1
     5     2     3    1
     6     3     4    1
     7     4     5    1
     8     5     6   am
     9     6     7    2
    10     6    17    1
    11    17    18    1
    12    18    19    1
    13    18    22    1
    14    22    23    1
    15    23    24   ar
    16    24    25   ar
    17    25    26    1
    18    25    27   ar
    19    27    28    1
    20    27    29   ar
    21    29    30   ar
    22    30    31    1
    23    10    11   am
    24    11    12    2
    25    11    13    1
    26    13    14    1
    27    13    15    1
    28    13    16    1
    29     5     1    1
    30    30    23   ar
    31    19    20    1
    32    19    21    1
@<TRIPOS>MOLECULE
*****
 31 32 0 0 0
SMALL
GASTEIGER

@<TRIPOS>ATOM
      1 C         -10.1808  -17.8540   22.7142 C.3     1  UNL1        0.0952
      2 C         -11.4801  -18.5840   22.8837 C.3     1  UNL1        0.0233
      3 C         -11.4398  -19.8090   22.0189 C.3     1  UNL1        0.0233
      4 C         -10.1155  -19.8360   21.3150 C.3     1  UNL1        0.0935
      5 N          -9.3374  -18.6277   21.7448 N.am    1  UNL1       -0.2794
      6 C          -7.9581  -18.2581   21.2857 C.2     1  UNL1        0.2270
      7 O          -7.3034  -17.0124   21.8050 O.2     1  UNL1       -0.2748
      8 C          -9.7930  -16.5748   23.3948 C.3     1  UNL1        0.1131
      9 C          -9.2023  -17.7430   25.6390 C.3     1  UNL1        0.1149
     10 N          -9.0075  -16.6129   24.6722 N.am    1  UNL1       -0.2761
     11 C          -8.0272  -15.5208   24.9826 C.2     1  UNL1        0.2248
     12 O          -7.8324  -14.3906   24.0157 O.2     1  UNL1       -0.2749
     13 C          -7.2417  -15.5589   26.2599 C.3     1  UNL1        0.0691
     14 C          -5.9893  -15.8341   25.4815 C.3     1  UNL1        0.0091
     15 C          -8.4940  -15.2837   27.0383 C.3     1  UNL1        0.0091
     16 C          -6.4561  -15.5970   27.5372 C.3     1  UNL1        0.0091
     17 C          -7.2334  -19.1341   20.3072 C.3     1  UNL1        0.1010
     18 C          -6.1740  -20.0804   20.7892 C.3     1  UNL1        0.0644
     19 N          -6.0914  -21.4662   20.2211 N.3     1  UNL1       -0.3215
     20 H          -6.8263  -21.5927   19.5252 H       1  UNL1        0.1188
     21 H          -6.2111  -22.1484   20.9699 H       1  UNL1        0.1188
     22 C          -5.1973  -19.6409   21.8394 C.3     1  UNL1        0.0447
     23 C          -4.0107  -18.8063   21.4578 C.ar    1  UNL1        0.0090
     24 C          -3.4840  -18.8490   20.0540 C.ar    1  UNL1        0.0300
     25 C          -2.2975  -18.0144   19.6725 C.ar    1  UNL1        0.1672
     26 F          -1.7706  -18.0571   18.2687 F       1  UNL1       -0.2018
     27 C          -1.6377  -17.1371   20.6948 C.ar    1  UNL1        0.1696
     28 F          -0.4512  -16.3025   20.3132 F       1  UNL1       -0.2017
     29 C          -2.1645  -17.0944   22.0986 C.ar    1  UNL1        0.0612
     30 C          -3.3510  -17.9290   22.4801 C.ar    1  UNL1        0.1386
     31 F          -3.8778  -17.8863   23.8839 F       1  UNL1       -0.2044
@<TRIPOS>BOND
     1     9    10    1
     2    10     8    1
     3     1     8    1
     4     1     2    1
     5     2     3    1
     6     3     4    1
     7     4     5    1
     8     5     6   am
     9     6     7    2
    10     6    17    1
    11    17    18    1
    12    18    19    1
    13    18    22    1
    14    22    23    1
    15    23    24   ar
    16    24    25   ar
    17    25    26    1
    18    25    27   ar
    19    27    28    1
    20    27    29   ar
    21    29    30   ar
    22    30    31    1
    23    10    11   am
    24    11    12    2
    25    11    13    1
    26    13    14    1
    27    13    15    1
    28    13    16    1
    29     5     1    1
    30    30    23   ar
    31    19    20    1
    32    19    21    1
@<TRIPOS>MOLECULE
*****
 31 32 0 0 0
SMALL
GASTEIGER

@<TRIPOS>ATOM
      1 C          -7.0412  -16.1255   22.9567 C.3     1  UNL1        0.0952
      2 C          -6.1901  -15.2491   23.8269 C.3     1  UNL1        0.0233
      3 C          -4.9630  -16.0240   24.2063 C.3     1  UNL1        0.0233
      4 C          -5.0558  -17.3794   23.5704 C.3     1  UNL1        0.0935
      5 N          -6.3402  -17.4421   22.7981 N.am    1  UNL1       -0.2794
      6 C          -6.8364  -18.6154   22.0063 C.2     1  UNL1        0.2270
      7 O          -8.1472  -18.5310   21.2819 O.2     1  UNL1       -0.2748
      8 C          -8.3615  -15.7511   22.3513 C.3     1  UNL1        0.1131
      9 C          -9.7278  -16.8322   24.2787 C.3     1  UNL1        0.1149
     10 N          -9.6234  -16.3917   22.8486 N.am    1  UNL1       -0.2761
     11 C         -10.7809  -16.5919   21.9158 C.2     1  UNL1        0.2248
     12 O         -10.6765  -16.1514   20.4857 O.2     1  UNL1       -0.2749
     13 C         -12.0428  -17.2324   22.4131 C.3     1  UNL1        0.0691
     14 C         -11.5055  -18.5818   22.0382 C.3     1  UNL1        0.0091
     15 C         -12.5801  -15.8831   22.7879 C.3     1  UNL1        0.0091
     16 C         -13.3047  -17.8730   22.9103 C.3     1  UNL1        0.0091
     17 C          -6.0219  -19.8732   21.9388 C.3     1  UNL1        0.1010
     18 C          -5.7742  -20.5363   20.6163 C.3     1  UNL1        0.0644
     19 N          -6.9309  -20.9265   19.7447 N.3     1  UNL1       -0.3215
     20 H          -7.8046  -20.6685   20.2035 H       1  UNL1        0.1188
     21 H          -6.9138  -21.9343   19.5881 H       1  UNL1        0.1188
     22 C          -4.3698  -20.8093   20.1656 C.3     1  UNL1        0.0447
     23 C          -3.3601  -19.7001   20.1440 C.ar    1  UNL1        0.0090
     24 C          -3.0856  -18.9605   18.8683 C.ar    1  UNL1        0.0300
     25 C          -2.0759  -17.8515   18.8468 C.ar    1  UNL1        0.1672
     26 F          -1.8013  -17.1118   17.5710 F       1  UNL1       -0.2018
     27 C          -1.3407  -17.4821   20.1010 C.ar    1  UNL1        0.1696
     28 F          -0.3310  -16.3730   20.0794 F       1  UNL1       -0.2017
     29 C          -1.6152  -18.2217   21.3767 C.ar    1  UNL1        0.0612
     30 C          -2.6249  -19.3307   21.3982 C.ar    1  UNL1        0.1386
     31 F          -2.8995  -20.0705   22.6740 F       1  UNL1       -0.2044
@<TRIPOS>BOND
     1     9    10    1
     2    10     8    1
     3     1     8    1
     4     1     2    1
     5     2     3    1
     6     3     4    1
     7     4     5    1
     8     5     6   am
     9     6     7    2
    10     6    17    1
    11    17    18    1
    12    18    19    1
    13    18    22    1
    14    22    23    1
    15    23    24   ar
    16    24    25   ar
    17    25    26    1
    18    25    27   ar
    19    27    28    1
    20    27    29   ar
    21    29    30   ar
    22    30    31    1
    23    10    11   am
    24    11    12    2
    25    11    13    1
    26    13    14    1
    27    13    15    1
    28    13    16    1
    29     5     1    1
    30    30    23   ar
    31    19    20    1
    32    19    21    1
@<TRIPOS>MOLECULE
*****
 31 32 0 0 0
SMALL
GASTEIGER

@<TRIPOS>ATOM
      1 C          -4.5556  -17.1354   23.4757 C.3     1  UNL1        0.0952
      2 C          -4.7181  -15.8400   24.2144 C.3     1  UNL1        0.0233
      3 C          -6.1843  -15.5339   24.2964 C.3     1  UNL1        0.0233
      4 C          -6.9278  -16.6400   23.6082 C.3     1  UNL1        0.0935
      5 N          -5.9213  -17.6298   23.1010 N.am    1  UNL1       -0.2794
      6 C          -6.2268  -18.8923   22.3509 C.2     1  UNL1        0.2270
      7 O          -5.1098  -19.7886   21.9049 O.2     1  UNL1       -0.2748
      8 C          -3.2556  -17.8166   23.1660 C.3     1  UNL1        0.1131
      9 C          -2.3349  -16.0607   21.4868 C.3     1  UNL1        0.1149
     10 N          -2.5211  -17.4908   21.8993 N.am    1  UNL1       -0.2761
     11 C          -1.9729  -18.5952   21.0451 C.2     1  UNL1        0.2248
     12 O          -2.1591  -20.0254   21.4576 O.2     1  UNL1       -0.2749
     13 C          -1.2385  -18.2696   19.7783 C.3     1  UNL1        0.0691
     14 C           0.0293  -18.0898   20.5596 C.3     1  UNL1        0.0091
     15 C          -2.5062  -18.4493   18.9971 C.3     1  UNL1        0.0091
     16 C          -0.5040  -17.9439   18.5116 C.3     1  UNL1        0.0091
     17 C          -7.6492  -19.2584   22.0468 C.3     1  UNL1        0.1010
     18 C          -8.1419  -19.2402   20.6301 C.3     1  UNL1        0.0644
     19 N          -7.1927  -18.9340   19.5098 N.3     1  UNL1       -0.3215
     20 H          -6.2614  -18.7646   19.8899 H       1  UNL1        0.1188
     21 H          -7.5123  -18.1038   19.0107 H       1  UNL1        0.1188
     22 C          -9.5838  -19.5283   20.3338 C.3     1  UNL1        0.0447
     23 C         -10.6581  -18.9637   21.2154 C.ar    1  UNL1        0.0090
     24 C         -10.7780  -19.4217   22.6387 C.ar    1  UNL1        0.0300
     25 C         -11.8522  -18.8571   23.5203 C.ar    1  UNL1        0.1672
     26 F         -11.9721  -19.3151   24.9437 F       1  UNL1       -0.2018
     27 C         -12.8065  -17.8344   22.9786 C.ar    1  UNL1        0.1696
     28 F         -13.8808  -17.2698   23.8602 F       1  UNL1       -0.2017
     29 C         -12.6866  -17.3764   21.5553 C.ar    1  UNL1        0.0612
     30 C         -11.6124  -17.9411   20.6737 C.ar    1  UNL1        0.1386
     31 F         -11.4925  -17.4830   19.2503 F       1  UNL1       -0.2044
@<TRIPOS>BOND
     1     9    10    1
     2    10     8    1
     3     1     8    1
     4     1     2    1
     5     2     3    1
     6     3     4    1
     7     4     5    1
     8     5     6   am
     9     6     7    2
    10     6    17    1
    11    17    18    1
    12    18    19    1
    13    18    22    1
    14    22    23    1
    15    23    24   ar
    16    24    25   ar
    17    25    26    1
    18    25    27   ar
    19    27    28    1
    20    27    29   ar
    21    29    30   ar
    22    30    31    1
    23    10    11   am
    24    11    12    2
    25    11    13    1
    26    13    14    1
    27    13    15    1
    28    13    16    1
    29     5     1    1
    30    30    23   ar
    31    19    20    1
    32    19    21    1
@<TRIPOS>MOLECULE
*****
 31 32 0 0 0
SMALL
GASTEIGER

@<TRIPOS>ATOM
      1 C          -5.7529  -15.5743   24.7298 C.3     1  UNL1        0.0952
      2 C          -5.1929  -15.2559   26.0844 C.3     1  UNL1        0.0233
      3 C          -6.3126  -15.3362   27.0794 C.3     1  UNL1        0.0233
      4 C          -7.5645  -15.7041   26.3397 C.3     1  UNL1        0.0935
      5 N          -7.2186  -15.8512   24.8875 N.am    1  UNL1       -0.2794
      6 C          -8.1711  -16.2120   23.7864 C.2     1  UNL1        0.2270
      7 O          -7.6778  -16.3229   22.3742 O.2     1  UNL1       -0.2748
      8 C          -4.9823  -15.6094   23.4433 C.3     1  UNL1        0.1131
      9 C          -5.0652  -18.2019   23.2931 C.3     1  UNL1        0.1149
     10 N          -4.3990  -16.9016   22.9535 N.am    1  UNL1       -0.2761
     11 C          -3.1492  -16.8935   22.1239 C.2     1  UNL1        0.2248
     12 O          -2.4829  -15.5932   21.7843 O.2     1  UNL1       -0.2749
     13 C          -2.5658  -18.1857   21.6341 C.3     1  UNL1        0.0691
     14 C          -3.3814  -18.0783   20.3797 C.3     1  UNL1        0.0091
     15 C          -1.7502  -18.2930   22.8884 C.3     1  UNL1        0.0091
     16 C          -1.9823  -19.4778   21.1442 C.3     1  UNL1        0.0091
     17 C          -9.6171  -16.4619   24.0975 C.3     1  UNL1        0.1010
     18 C         -10.0844  -17.8484   24.4279 C.3     1  UNL1        0.0644
     19 N          -9.7478  -18.4565   25.7572 N.3     1  UNL1       -0.3215
     20 H          -9.2009  -17.7930   26.3059 H       1  UNL1        0.1188
     21 H          -9.2049  -19.3081   25.6138 H       1  UNL1        0.1188
     22 C         -10.8884  -18.6268   23.4291 C.3     1  UNL1        0.0447
     23 C         -10.3042  -18.9526   22.0864 C.ar    1  UNL1        0.0090
     24 C          -8.8851  -19.4269   21.9810 C.ar    1  UNL1        0.0300
     25 C          -8.3010  -19.7527   20.6384 C.ar    1  UNL1        0.1672
     26 F          -6.8818  -20.2270   20.5330 F       1  UNL1       -0.2018
     27 C          -9.1360  -19.6042   19.4012 C.ar    1  UNL1        0.1696
     28 F          -8.5518  -19.9300   18.0585 F       1  UNL1       -0.2017
     29 C         -10.5551  -19.1299   19.5066 C.ar    1  UNL1        0.0612
     30 C         -11.1392  -18.8041   20.8492 C.ar    1  UNL1        0.1386
     31 F         -12.5584  -18.3298   20.9546 F       1  UNL1       -0.2044
@<TRIPOS>BOND
     1     9    10    1
     2    10     8    1
     3     1     8    1
     4     1     2    1
     5     2     3    1
     6     3     4    1
     7     4     5    1
     8     5     6   am
     9     6     7    2
    10     6    17    1
    11    17    18    1
    12    18    19    1
    13    18    22    1
    14    22    23    1
    15    23    24   ar
    16    24    25   ar
    17    25    26    1
    18    25    27   ar
    19    27    28    1
    20    27    29   ar
    21    29    30   ar
    22    30    31    1
    23    10    11   am
    24    11    12    2
    25    11    13    1
    26    13    14    1
    27    13    15    1
    28    13    16    1
    29     5     1    1
    30    30    23   ar
    31    19    20    1
    32    19    21    1
@<TRIPOS>MOLECULE
*****
 31 32 0 0 0
SMALL
GASTEIGER

@<TRIPOS>ATOM
      1 C          -5.3813  -17.3899   23.1936 C.3     1  UNL1        0.0952
      2 C          -5.5572  -15.9903   23.7038 C.3     1  UNL1        0.0233
      3 C          -7.0224  -15.6695   23.6819 C.3     1  UNL1        0.0233
      4 C          -7.7520  -16.8709   23.1581 C.3     1  UNL1        0.0935
      5 N          -6.7378  -17.9341   22.8563 N.am    1  UNL1       -0.2794
      6 C          -7.0290  -19.3014   22.3127 C.2     1  UNL1        0.2270
      7 O          -5.9057  -20.2629   22.0599 O.2     1  UNL1       -0.2748
      8 C          -4.0779  -18.1174   23.0465 C.3     1  UNL1        0.1131
      9 C          -2.3871  -16.3708   22.1295 C.3     1  UNL1        0.1149
     10 N          -3.0931  -17.6878   21.9997 N.am    1  UNL1       -0.2761
     11 C          -2.8143  -18.5754   20.8231 C.2     1  UNL1        0.2248
     12 O          -3.5203  -19.8926   20.6933 O.2     1  UNL1       -0.2749
     13 C          -1.8295  -18.1460   19.7763 C.3     1  UNL1        0.0691
     14 C          -0.7074  -18.6949   20.6067 C.3     1  UNL1        0.0091
     15 C          -2.9516  -17.5970   18.9459 C.3     1  UNL1        0.0091
     16 C          -0.8447  -17.7165   18.7295 C.3     1  UNL1        0.0091
     17 C          -8.4434  -19.7073   22.0218 C.3     1  UNL1        0.1010
     18 C          -9.3326  -20.1777   23.1346 C.3     1  UNL1        0.0644
     19 N          -8.7671  -21.0141   24.2439 N.3     1  UNL1       -0.3215
     20 H          -7.7714  -21.1651   24.0822 H       1  UNL1        0.1188
     21 H          -9.2475  -21.9135   24.2704 H       1  UNL1        0.1188
     22 C         -10.7872  -19.8116   23.1380 C.3     1  UNL1        0.0447
     23 C         -11.2776  -18.6793   22.2850 C.ar    1  UNL1        0.0090
     24 C         -11.7677  -17.4150   22.9261 C.ar    1  UNL1        0.0300
     25 C         -12.2581  -16.2828   22.0731 C.ar    1  UNL1        0.1672
     26 F         -12.7483  -15.0183   22.7142 F       1  UNL1       -0.2018
     27 C         -12.2585  -16.4151   20.5789 C.ar    1  UNL1        0.1696
     28 F         -12.7489  -15.2828   19.7259 F       1  UNL1       -0.2017
     29 C         -11.7684  -17.6794   19.9378 C.ar    1  UNL1        0.0612
     30 C         -11.2780  -18.8116   20.7908 C.ar    1  UNL1        0.1386
     31 F         -10.7879  -20.0761   20.1497 F       1  UNL1       -0.2044
@<TRIPOS>BOND
     1     9    10    1
     2    10     8    1
     3     1     8    1
     4     1     2    1
     5     2     3    1
     6     3     4    1
     7     4     5    1
     8     5     6   am
     9     6     7    2
    10     6    17    1
    11    17    18    1
    12    18    19    1
    13    18    22    1
    14    22    23    1
    15    23    24   ar
    16    24    25   ar
    17    25    26    1
    18    25    27   ar
    19    27    28    1
    20    27    29   ar
    21    29    30   ar
    22    30    31    1
    23    10    11   am
    24    11    12    2
    25    11    13    1
    26    13    14    1
    27    13    15    1
    28    13    16    1
    29     5     1    1
    30    30    23   ar
    31    19    20    1
    32    19    21    1
@<TRIPOS>MOLECULE
*****
 31 32 0 0 0
SMALL
GASTEIGER

@<TRIPOS>ATOM
      1 C          -5.9381  -18.1629   22.4474 C.3     1  UNL1        0.0952
      2 C          -6.2190  -17.0934   23.4609 C.3     1  UNL1        0.0233
      3 C          -7.5285  -16.4525   23.1078 C.3     1  UNL1        0.0233
      4 C          -8.0568  -17.1260   21.8761 C.3     1  UNL1        0.0935
      5 N          -7.0739  -18.1830   21.4679 N.am    1  UNL1       -0.2794
      6 C          -7.2041  -19.0993   20.2875 C.2     1  UNL1        0.2270
      7 O          -6.1351  -20.1125   20.0031 O.2     1  UNL1       -0.2748
      8 C          -4.7330  -19.0555   22.4185 C.3     1  UNL1        0.1131
      9 C          -2.4193  -18.3100   23.3359 C.3     1  UNL1        0.1149
     10 N          -3.3713  -18.4701   22.1878 N.am    1  UNL1       -0.2761
     11 C          -2.9616  -18.0448   20.8090 C.2     1  UNL1        0.2248
     12 O          -3.9136  -18.2048   19.6608 O.2     1  UNL1       -0.2749
     13 C          -1.6000  -17.4593   20.5782 C.3     1  UNL1        0.0691
     14 C          -1.9997  -16.2298   21.3387 C.3     1  UNL1        0.0091
     15 C          -1.2002  -18.6889   19.8177 C.3     1  UNL1        0.0091
     16 C          -0.2383  -16.8739   20.3475 C.3     1  UNL1        0.0091
     17 C          -8.4031  -19.0025   19.3915 C.3     1  UNL1        0.1010
     18 C          -9.3266  -20.1754   19.2449 C.3     1  UNL1        0.0644
     19 N          -9.0529  -21.2200   18.2038 N.3     1  UNL1       -0.3215
     20 H          -8.2059  -20.9751   17.6909 H       1  UNL1        0.1188
     21 H          -9.8399  -21.2695   17.5567 H       1  UNL1        0.1188
     22 C         -10.5237  -20.3038   20.1396 C.3     1  UNL1        0.0447
     23 C         -11.0914  -19.0889   20.8118 C.ar    1  UNL1        0.0090
     24 C         -11.5147  -17.9067   19.9914 C.ar    1  UNL1        0.0300
     25 C         -12.0824  -16.6919   20.6637 C.ar    1  UNL1        0.1672
     26 F         -12.5057  -15.5096   19.8433 F       1  UNL1       -0.2018
     27 C         -12.2267  -16.6593   22.1564 C.ar    1  UNL1        0.1696
     28 F         -12.7944  -15.4444   22.8286 F       1  UNL1       -0.2017
     29 C         -11.8034  -17.8415   22.9768 C.ar    1  UNL1        0.0612
     30 C         -11.2357  -19.0563   22.3045 C.ar    1  UNL1        0.1386
     31 F         -10.8124  -20.2387   23.1249 F       1  UNL1       -0.2044
@<TRIPOS>BOND
     1     9    10    1
     2    10     8    1
     3     1     8    1
     4     1     2    1
     5     2     3    1
     6     3     4    1
     7     4     5    1
     8     5     6   am
     9     6     7    2
    10     6    17    1
    11    17    18    1
    12    18    19    1
    13    18    22    1
    14    22    23    1
    15    23    24   ar
    16    24    25   ar
    17    25    26    1
    18    25    27   ar
    19    27    28    1
    20    27    29   ar
    21    29    30   ar
    22    30    31    1
    23    10    11   am
    24    11    12    2
    25    11    13    1
    26    13    14    1
    27    13    15    1
    28    13    16    1
    29     5     1    1
    30    30    23   ar
    31    19    20    1
    32    19    21    1
@<TRIPOS>MOLECULE
*****
 31 32 0 0 0
SMALL
GASTEIGER

@<TRIPOS>ATOM
      1 C          -9.8717  -18.1522   20.7537 C.3     1  UNL1        0.0952
      2 C         -10.7000  -18.4403   19.5367 C.3     1  UNL1        0.0233
      3 C         -10.0925  -19.6158   18.8302 C.3     1  UNL1        0.0233
      4 C          -8.8887  -20.0541   19.6104 C.3     1  UNL1        0.0935
      5 N          -8.7523  -19.1495   20.7992 N.am    1  UNL1       -0.2794
      6 C          -7.6840  -19.2284   21.8491 C.2     1  UNL1        0.2270
      7 O          -7.6759  -18.2499   22.9860 O.2     1  UNL1       -0.2748
      8 C         -10.1194  -17.0586   21.7501 C.3     1  UNL1        0.1131
      9 C         -12.1118  -15.7784   22.8187 C.3     1  UNL1        0.1149
     10 N         -11.3755  -17.0614   22.5700 N.am    1  UNL1       -0.2761
     11 C         -11.8952  -18.3472   23.1414 C.2     1  UNL1        0.2248
     12 O         -11.1589  -19.6303   22.8928 O.2     1  UNL1       -0.2749
     13 C         -13.1513  -18.3501   23.9614 C.3     1  UNL1        0.0691
     14 C         -12.3470  -18.6469   25.1923 C.3     1  UNL1        0.0091
     15 C         -13.9555  -18.0533   22.7305 C.3     1  UNL1        0.0091
     16 C         -14.4073  -18.3530   24.7814 C.3     1  UNL1        0.0091
     17 C          -6.6237  -20.2859   21.7622 C.3     1  UNL1        0.1010
     18 C          -5.6400  -20.2703   20.6299 C.3     1  UNL1        0.0644
     19 N          -5.1372  -21.5615   20.0554 N.3     1  UNL1       -0.3215
     20 H          -5.5654  -22.3436   20.5508 H       1  UNL1        0.1188
     21 H          -4.1235  -21.6077   20.1586 H       1  UNL1        0.1188
     22 C          -5.1591  -18.9636   20.0720 C.3     1  UNL1        0.0447
     23 C          -3.6988  -18.6228   20.1124 C.ar    1  UNL1        0.0090
     24 C          -2.9602  -18.3355   18.8389 C.ar    1  UNL1        0.0300
     25 C          -1.5000  -17.9947   18.8793 C.ar    1  UNL1        0.1672
     26 F          -0.7614  -17.7073   17.6057 F       1  UNL1       -0.2018
     27 C          -0.7784  -17.9413   20.1932 C.ar    1  UNL1        0.1696
     28 F           0.6819  -17.6006   20.2336 F       1  UNL1       -0.2017
     29 C          -1.5170  -18.2287   21.4667 C.ar    1  UNL1        0.0612
     30 C          -2.9771  -18.5695   21.4263 C.ar    1  UNL1        0.1386
     31 F          -3.7158  -18.8569   22.6999 F       1  UNL1       -0.2044
@<TRIPOS>BOND
     1     9    10    1
     2    10     8    1
     3     1     8    1
     4     1     2    1
     5     2     3    1
     6     3     4    1
     7     4     5    1
     8     5     6   am
     9     6     7    2
    10     6    17    1
    11    17    18    1
    12    18    19    1
    13    18    22    1
    14    22    23    1
    15    23    24   ar
    16    24    25   ar
    17    25    26    1
    18    25    27   ar
    19    27    28    1
    20    27    29   ar
    21    29    30   ar
    22    30    31    1
    23    10    11   am
    24    11    12    2
    25    11    13    1
    26    13    14    1
    27    13    15    1
    28    13    16    1
    29     5     1    1
    30    30    23   ar
    31    19    20    1
    32    19    21    1
@<TRIPOS>MOLECULE
*****
 31 32 0 0 0
SMALL
GASTEIGER

@<TRIPOS>ATOM
      1 C          -8.2023  -19.3942   21.8046 C.3     1  UNL1        0.0952
      2 C          -7.8523  -20.1091   20.5332 C.3     1  UNL1        0.0233
      3 C          -6.7089  -19.3804   19.8914 C.3     1  UNL1        0.0233
      4 C          -6.3523  -18.2153   20.7662 C.3     1  UNL1        0.0935
      5 N          -7.2753  -18.2238   21.9486 N.am    1  UNL1       -0.2794
      6 C          -7.2718  -17.2355   23.0770 C.2     1  UNL1        0.2270
      7 O          -8.2603  -17.3723   24.1969 O.2     1  UNL1       -0.2748
      8 C          -9.2887  -19.7818   22.7635 C.3     1  UNL1        0.1131
      9 C         -11.1922  -18.9143   24.3044 C.3     1  UNL1        0.1149
     10 N         -10.4402  -18.8521   23.0081 N.am    1  UNL1       -0.2761
     11 C         -10.8397  -17.8602   21.9561 C.2     1  UNL1        0.2248
     12 O         -10.0876  -17.7980   20.6597 O.2     1  UNL1       -0.2749
     13 C         -11.9912  -16.9305   22.2006 C.3     1  UNL1        0.0691
     14 C         -12.9232  -17.9168   21.5614 C.3     1  UNL1        0.0091
     15 C         -11.0592  -15.9442   22.8397 C.3     1  UNL1        0.0091
     16 C         -13.1427  -16.0008   22.4450 C.3     1  UNL1        0.0091
     17 C          -6.2799  -16.1104   23.0854 C.3     1  UNL1        0.1010
     18 C          -5.1906  -16.0785   24.1162 C.3     1  UNL1        0.0644
     19 N          -5.1145  -14.9418   25.0920 N.3     1  UNL1       -0.3215
     20 H          -5.8754  -14.2871   24.9112 H       1  UNL1        0.1188
     21 H          -4.2207  -14.4620   24.9859 H       1  UNL1        0.1188
     22 C          -4.1775  -17.1833   24.1712 C.3     1  UNL1        0.0447
     23 C          -3.4124  -17.5614   22.9376 C.ar    1  UNL1        0.0090
     24 C          -2.4484  -16.5888   22.3254 C.ar    1  UNL1        0.0300
     25 C          -1.6834  -16.9669   21.0918 C.ar    1  UNL1        0.1672
     26 F          -0.7194  -15.9943   20.4795 F       1  UNL1       -0.2018
     27 C          -1.8822  -18.3176   20.4705 C.ar    1  UNL1        0.1696
     28 F          -1.1171  -18.6957   19.2369 F       1  UNL1       -0.2017
     29 C          -2.8462  -19.2902   21.0827 C.ar    1  UNL1        0.0612
     30 C          -3.6112  -18.9121   22.3162 C.ar    1  UNL1        0.1386
     31 F          -4.5753  -19.8847   22.9285 F       1  UNL1       -0.2044
@<TRIPOS>BOND
     1     9    10    1
     2    10     8    1
     3     1     8    1
     4     1     2    1
     5     2     3    1
     6     3     4    1
     7     4     5    1
     8     5     6   am
     9     6     7    2
    10     6    17    1
    11    17    18    1
    12    18    19    1
    13    18    22    1
    14    22    23    1
    15    23    24   ar
    16    24    25   ar
    17    25    26    1
    18    25    27   ar
    19    27    28    1
    20    27    29   ar
    21    29    30   ar
    22    30    31    1
    23    10    11   am
    24    11    12    2
    25    11    13    1
    26    13    14    1
    27    13    15    1
    28    13    16    1
    29     5     1    1
    30    30    23   ar
    31    19    20    1
    32    19    21    1
