@<TRIPOS>MOLECULE
*****
 21 23 0 0 0
SMALL
GASTEIGER

@<TRIPOS>ATOM
      1 C          -9.9664  -18.0388   21.7128 C.ar    1  UNL1        0.0253
      2 C         -11.0928  -18.5216   20.8479 C.ar    1  UNL1        0.0993
      3 N         -12.4062  -17.7972   20.8536 N.ar    1  UNL1       -0.2423
      4 C         -12.5933  -16.5901   21.7241 C.ar    1  UNL1        0.0989
      5 C         -11.4668  -16.1074   22.5890 C.ar    1  UNL1        0.0208
      6 C         -10.1534  -16.8317   22.5834 C.ar    1  UNL1        0.0065
      7 C          -9.0269  -16.3490   23.4483 C.ar    1  UNL1        0.0385
      8 C          -9.0244  -16.6554   24.9167 C.ar    1  UNL1        0.1022
      9 N          -7.8979  -16.1727   25.7816 N.ar    1  UNL1       -0.2224
     10 C          -6.7739  -15.3837   25.1781 C.ar    1  UNL1        0.1989
     11 N          -6.7764  -15.0773   23.7098 N.ar    1  UNL1       -0.2224
     12 C          -7.9029  -15.5600   22.8448 C.ar    1  UNL1        0.1022
     13 C          -6.4138  -19.4783   21.1023 C.ar    1  UNL1        0.0230
     14 C          -6.8494  -20.2776   22.2946 C.ar    1  UNL1        0.0040
     15 C          -8.2332  -19.8356   22.6683 C.ar    1  UNL1        0.0067
     16 C          -8.6528  -18.7632   21.7071 C.ar    1  UNL1        0.0307
     17 S          -7.5283  -18.5424   20.7393 S.2     1  UNL1       -0.0899
     18 N          -4.6702  -18.5368   19.4219 N.3     1  UNL1       -0.3170
     19 C          -5.0950  -19.5945   20.3970 C.3     1  UNL1        0.0987
     20 H          -3.7549  -18.7746   19.0397 H       1  UNL1        0.1192
     21 H          -4.6160  -17.6368   19.8988 H       1  UNL1        0.1192
@<TRIPOS>BOND
     1    18    19    1
     2    19    13    1
     3    13    14   ar
     4    14    15   ar
     5    15    16   ar
     6    16     1    1
     7     1     2   ar
     8     2     3   ar
     9     3     4   ar
    10     4     5   ar
    11     5     6   ar
    12     6     7    1
    13     7     8   ar
    14     8     9   ar
    15     9    10   ar
    16    10    11   ar
    17    11    12   ar
    18    16    17   ar
    19    17    13   ar
    20     6     1   ar
    21    12     7   ar
    22    18    20    1
    23    18    21    1
@<TRIPOS>MOLECULE
*****
 21 23 0 0 0
SMALL
GASTEIGER

@<TRIPOS>ATOM
      1 C          -9.6955  -18.2126   21.4253 C.ar    1  UNL1        0.0253
      2 C          -9.7374  -19.0297   20.1681 C.ar    1  UNL1        0.0993
      3 N          -8.4606  -19.4967   19.5344 N.ar    1  UNL1       -0.2423
      4 C          -7.1420  -19.1466   20.1578 C.ar    1  UNL1        0.0989
      5 C          -7.1001  -18.3296   21.4151 C.ar    1  UNL1        0.0208
      6 C          -8.3769  -17.8626   22.0488 C.ar    1  UNL1        0.0065
      7 C          -8.3351  -17.0455   23.3061 C.ar    1  UNL1        0.0385
      8 C          -7.7590  -15.6607   23.2818 C.ar    1  UNL1        0.1022
      9 N          -7.7172  -14.8437   24.5390 N.ar    1  UNL1       -0.2224
     10 C          -8.2515  -15.4113   25.8205 C.ar    1  UNL1        0.1989
     11 N          -8.8277  -16.7960   25.8448 N.ar    1  UNL1       -0.2224
     12 C          -8.8695  -17.6131   24.5875 C.ar    1  UNL1        0.1022
     13 C         -13.0548  -17.7162   23.3054 C.ar    1  UNL1        0.0230
     14 C         -12.8195  -16.3374   22.7634 C.ar    1  UNL1        0.0040
     15 C         -11.5325  -16.3556   21.9932 C.ar    1  UNL1        0.0067
     16 C         -10.9724  -17.7456   22.0591 C.ar    1  UNL1        0.0307
     17 S         -11.9132  -18.5864   22.8702 S.2     1  UNL1       -0.0899
     18 N         -14.0280  -18.5173   25.5772 N.3     1  UNL1       -0.3170
     19 C         -14.2260  -18.1487   24.1368 C.3     1  UNL1        0.0987
     20 H         -14.9235  -18.7846   25.9860 H       1  UNL1        0.1192
     21 H         -13.6483  -17.7175   26.0837 H       1  UNL1        0.1192
@<TRIPOS>BOND
     1    18    19    1
     2    19    13    1
     3    13    14   ar
     4    14    15   ar
     5    15    16   ar
     6    16     1    1
     7     1     2   ar
     8     2     3   ar
     9     3     4   ar
    10     4     5   ar
    11     5     6   ar
    12     6     7    1
    13     7     8   ar
    14     8     9   ar
    15     9    10   ar
    16    10    11   ar
    17    11    12   ar
    18    16    17   ar
    19    17    13   ar
    20     6     1   ar
    21    12     7   ar
    22    18    20    1
    23    18    21    1
@<TRIPOS>MOLECULE
*****
 21 23 0 0 0
SMALL
GASTEIGER

@<TRIPOS>ATOM
      1 C          -8.2447  -17.8954   21.6931 C.ar    1  UNL1        0.0253
      2 C          -7.0044  -18.3390   20.9756 C.ar    1  UNL1        0.0993
      3 N          -7.1110  -19.2355   19.7778 N.ar    1  UNL1       -0.2423
      4 C          -8.4579  -19.6885   19.2975 C.ar    1  UNL1        0.0989
      5 C          -9.6982  -19.2450   20.0151 C.ar    1  UNL1        0.0208
      6 C          -9.5916  -18.3484   21.2129 C.ar    1  UNL1        0.0065
      7 C         -10.8319  -17.9048   21.9305 C.ar    1  UNL1        0.0385
      8 C         -11.3909  -16.5347   21.6851 C.ar    1  UNL1        0.1022
      9 N         -12.6311  -16.0910   22.4026 N.ar    1  UNL1       -0.2224
     10 C         -13.3125  -17.0176   23.3656 C.ar    1  UNL1        0.1989
     11 N         -12.7536  -18.3878   23.6110 N.ar    1  UNL1       -0.2224
     12 C         -11.5133  -18.8314   22.8934 C.ar    1  UNL1        0.1022
     13 C          -8.1695  -16.1904   25.1792 C.ar    1  UNL1        0.0230
     14 C          -7.7789  -15.0478   24.2892 C.ar    1  UNL1        0.0040
     15 C          -7.7595  -15.5475   22.8751 C.ar    1  UNL1        0.0067
     16 C          -8.1381  -16.9988   22.8910 C.ar    1  UNL1        0.0307
     17 S          -8.3915  -17.3962   24.3150 S.2     1  UNL1       -0.0899
     18 N          -8.0909  -14.8444   27.4001 N.3     1  UNL1       -0.3170
     19 C          -8.3128  -16.1366   26.6714 C.3     1  UNL1        0.0987
     20 H          -8.2289  -14.9900   28.4002 H       1  UNL1        0.1192
     21 H          -8.7538  -14.1461   27.0635 H       1  UNL1        0.1192
@<TRIPOS>BOND
     1    18    19    1
     2    19    13    1
     3    13    14   ar
     4    14    15   ar
     5    15    16   ar
     6    16     1    1
     7     1     2   ar
     8     2     3   ar
     9     3     4   ar
    10     4     5   ar
    11     5     6   ar
    12     6     7    1
    13     7     8   ar
    14     8     9   ar
    15     9    10   ar
    16    10    11   ar
    17    11    12   ar
    18    16    17   ar
    19    17    13   ar
    20     6     1   ar
    21    12     7   ar
    22    18    20    1
    23    18    21    1
@<TRIPOS>MOLECULE
*****
 21 23 0 0 0
SMALL
GASTEIGER

@<TRIPOS>ATOM
      1 C          -8.3311  -18.9860   21.4655 C.ar    1  UNL1        0.0253
      2 C          -7.0750  -19.7828   21.2723 C.ar    1  UNL1        0.0993
      3 N          -6.8748  -20.5738   20.0137 N.ar    1  UNL1       -0.2423
      4 C          -7.9306  -20.5681   18.9483 C.ar    1  UNL1        0.0989
      5 C          -9.1867  -19.7713   19.1414 C.ar    1  UNL1        0.0208
      6 C          -9.3869  -18.9802   20.4000 C.ar    1  UNL1        0.0065
      7 C         -10.6430  -18.1834   20.5932 C.ar    1  UNL1        0.0385
      8 C         -11.7209  -18.6915   21.5042 C.ar    1  UNL1        0.1022
      9 N         -12.9770  -17.8948   21.6974 N.ar    1  UNL1       -0.2224
     10 C         -13.1552  -16.5897   20.9796 C.ar    1  UNL1        0.1989
     11 N         -12.0773  -16.0815   20.0686 N.ar    1  UNL1       -0.2224
     12 C         -10.8212  -16.8784   19.8755 C.ar    1  UNL1        0.1022
     13 C          -8.4275  -16.4195   24.3757 C.ar    1  UNL1        0.0230
     14 C          -9.2517  -17.5355   24.9461 C.ar    1  UNL1        0.0040
     15 C          -9.3159  -18.6327   23.9253 C.ar    1  UNL1        0.0067
     16 C          -8.5314  -18.1948   22.7241 C.ar    1  UNL1        0.0307
     17 S          -7.9823  -16.8270   23.0025 S.2     1  UNL1       -0.0899
     18 N          -6.8273  -14.4054   24.7402 N.3     1  UNL1       -0.3170
     19 C          -8.1051  -15.1235   25.0588 C.3     1  UNL1        0.0987
     20 H          -6.7720  -13.5491   25.2915 H       1  UNL1        0.1192
     21 H          -6.8066  -14.1725   23.7473 H       1  UNL1        0.1192
@<TRIPOS>BOND
     1    18    19    1
     2    19    13    1
     3    13    14   ar
     4    14    15   ar
     5    15    16   ar
     6    16     1    1
     7     1     2   ar
     8     2     3   ar
     9     3     4   ar
    10     4     5   ar
    11     5     6   ar
    12     6     7    1
    13     7     8   ar
    14     8     9   ar
    15     9    10   ar
    16    10    11   ar
    17    11    12   ar
    18    16    17   ar
    19    17    13   ar
    20     6     1   ar
    21    12     7   ar
    22    18    20    1
    23    18    21    1
@<TRIPOS>MOLECULE
*****
 21 23 0 0 0
SMALL
GASTEIGER

@<TRIPOS>ATOM
      1 C         -14.4035   -7.3924   18.5376 C.ar    1  UNL1        0.0253
      2 C         -14.5190   -8.8876   18.5065 C.ar    1  UNL1        0.0993
      3 N         -15.7603   -9.5547   19.0204 N.ar    1  UNL1       -0.2423
      4 C         -16.8860   -8.7266   19.5653 C.ar    1  UNL1        0.0989
      5 C         -16.7705   -7.2315   19.5964 C.ar    1  UNL1        0.0208
      6 C         -15.5292   -6.5643   19.0825 C.ar    1  UNL1        0.0065
      7 C         -15.4137   -5.0691   19.1136 C.ar    1  UNL1        0.0385
      8 C         -15.8648   -4.2573   17.9356 C.ar    1  UNL1        0.1022
      9 N         -15.7493   -2.7622   17.9667 N.ar    1  UNL1       -0.2224
     10 C         -15.1825   -2.0786   19.1757 C.ar    1  UNL1        0.1989
     11 N         -14.7314   -2.8903   20.3536 N.ar    1  UNL1       -0.2224
     12 C         -14.8469   -4.3856   20.3226 C.ar    1  UNL1        0.1022
     13 C         -10.9746   -5.6782   17.9294 C.ar    1  UNL1        0.0230
     14 C         -11.5295   -5.7188   16.5363 C.ar    1  UNL1        0.0040
     15 C         -12.8814   -6.3659   16.5947 C.ar    1  UNL1        0.0067
     16 C         -13.1621   -6.7252   18.0237 C.ar    1  UNL1        0.0307
     17 S         -11.9836   -6.3002   18.8486 S.2     1  UNL1       -0.0899
     18 N          -9.5775   -3.9530   19.2792 N.3     1  UNL1       -0.3170
     19 C          -9.6442   -5.1145   18.3324 C.3     1  UNL1        0.0987
     20 H          -8.6022   -3.7024   19.4417 H       1  UNL1        0.1192
     21 H         -10.0144   -4.2103   20.1642 H       1  UNL1        0.1192
@<TRIPOS>BOND
     1    18    19    1
     2    19    13    1
     3    13    14   ar
     4    14    15   ar
     5    15    16   ar
     6    16     1    1
     7     1     2   ar
     8     2     3   ar
     9     3     4   ar
    10     4     5   ar
    11     5     6   ar
    12     6     7    1
    13     7     8   ar
    14     8     9   ar
    15     9    10   ar
    16    10    11   ar
    17    11    12   ar
    18    16    17   ar
    19    17    13   ar
    20     6     1   ar
    21    12     7   ar
    22    18    20    1
    23    18    21    1
@<TRIPOS>MOLECULE
*****
 21 23 0 0 0
SMALL
GASTEIGER

@<TRIPOS>ATOM
      1 C         -14.6552   -6.4050   19.0900 C.ar    1  UNL1        0.0253
      2 C         -15.8858   -7.2198   19.3578 C.ar    1  UNL1        0.0993
      3 N         -15.9862   -8.6212   18.8328 N.ar    1  UNL1       -0.2423
      4 C         -14.8561   -9.2080   18.0400 C.ar    1  UNL1        0.0989
      5 C         -13.6255   -8.3932   17.7721 C.ar    1  UNL1        0.0208
      6 C         -13.5251   -6.9917   18.2972 C.ar    1  UNL1        0.0065
      7 C         -12.2945   -6.1768   18.0294 C.ar    1  UNL1        0.0385
      8 C         -11.1027   -6.2994   18.9320 C.ar    1  UNL1        0.1022
      9 N          -9.8721   -5.4846   18.6642 N.ar    1  UNL1       -0.2224
     10 C          -9.8333   -4.5472   17.4938 C.ar    1  UNL1        0.1989
     11 N         -11.0250   -4.4246   16.5912 N.ar    1  UNL1       -0.2224
     12 C         -12.2556   -5.2395   16.8590 C.ar    1  UNL1        0.1022
     13 C         -14.8355   -2.6054   19.8621 C.ar    1  UNL1        0.0230
     14 C         -13.9645   -3.0881   20.9840 C.ar    1  UNL1        0.0040
     15 C         -13.7910   -4.5702   20.8312 C.ar    1  UNL1        0.0067
     16 C         -14.5547   -5.0034   19.6150 C.ar    1  UNL1        0.0307
     17 S         -15.2002   -3.7891   19.0161 S.2     1  UNL1       -0.0899
     18 N         -16.3526   -0.5851   20.4677 N.3     1  UNL1       -0.3170
     19 C         -15.2660   -1.1878   19.6274 C.3     1  UNL1        0.0987
     20 H         -16.5155    0.3779   20.1735 H       1  UNL1        0.1192
     21 H         -16.0711   -0.5980   21.4480 H       1  UNL1        0.1192
@<TRIPOS>BOND
     1    18    19    1
     2    19    13    1
     3    13    14   ar
     4    14    15   ar
     5    15    16   ar
     6    16     1    1
     7     1     2   ar
     8     2     3   ar
     9     3     4   ar
    10     4     5   ar
    11     5     6   ar
    12     6     7    1
    13     7     8   ar
    14     8     9   ar
    15     9    10   ar
    16    10    11   ar
    17    11    12   ar
    18    16    17   ar
    19    17    13   ar
    20     6     1   ar
    21    12     7   ar
    22    18    20    1
    23    18    21    1
@<TRIPOS>MOLECULE
*****
 21 23 0 0 0
SMALL
GASTEIGER

@<TRIPOS>ATOM
      1 C         -12.1732   -6.8339   18.0628 C.ar    1  UNL1        0.0253
      2 C         -10.9031   -7.5976   17.8315 C.ar    1  UNL1        0.0993
      3 N          -9.5874   -7.0077   18.2449 N.ar    1  UNL1       -0.2423
      4 C          -9.5418   -5.6541   18.8896 C.ar    1  UNL1        0.0989
      5 C         -10.8118   -4.8904   19.1209 C.ar    1  UNL1        0.0208
      6 C         -12.1275   -5.4803   18.7075 C.ar    1  UNL1        0.0065
      7 C         -13.3977   -4.7166   18.9389 C.ar    1  UNL1        0.0385
      8 C         -13.8960   -3.7572   17.8990 C.ar    1  UNL1        0.1022
      9 N         -15.1661   -2.9935   18.1303 N.ar    1  UNL1       -0.2224
     10 C         -15.9380   -3.1891   19.4015 C.ar    1  UNL1        0.1989
     11 N         -15.4397   -4.1485   20.4414 N.ar    1  UNL1       -0.2224
     12 C         -14.1696   -4.9122   20.2101 C.ar    1  UNL1        0.1022
     13 C         -15.5486   -8.7075   17.6612 C.ar    1  UNL1        0.0230
     14 C         -15.4787   -7.9553   16.3653 C.ar    1  UNL1        0.0040
     15 C         -14.2057   -7.1619   16.3580 C.ar    1  UNL1        0.0067
     16 C         -13.4890   -7.4238   17.6494 C.ar    1  UNL1        0.0307
     17 S         -14.3189   -8.3790   18.4548 S.2     1  UNL1       -0.0899
     18 N         -16.3416  -11.0345   18.5018 N.3     1  UNL1       -0.3170
     19 C         -16.6542   -9.6269   18.0885 C.3     1  UNL1        0.0987
     20 H         -17.2049  -11.5131   18.7588 H       1  UNL1        0.1192
     21 H         -15.7090  -11.0214   19.3018 H       1  UNL1        0.1192
@<TRIPOS>BOND
     1    18    19    1
     2    19    13    1
     3    13    14   ar
     4    14    15   ar
     5    15    16   ar
     6    16     1    1
     7     1     2   ar
     8     2     3   ar
     9     3     4   ar
    10     4     5   ar
    11     5     6   ar
    12     6     7    1
    13     7     8   ar
    14     8     9   ar
    15     9    10   ar
    16    10    11   ar
    17    11    12   ar
    18    16    17   ar
    19    17    13   ar
    20     6     1   ar
    21    12     7   ar
    22    18    20    1
    23    18    21    1
@<TRIPOS>MOLECULE
*****
 21 23 0 0 0
SMALL
GASTEIGER

@<TRIPOS>ATOM
      1 C          -7.5734  -17.9073   22.1583 C.ar    1  UNL1        0.0253
      2 C          -6.2331  -18.4700   21.7884 C.ar    1  UNL1        0.0993
      3 N          -6.1320  -19.5412   20.7433 N.ar    1  UNL1       -0.2423
      4 C          -7.3711  -20.0497   20.0681 C.ar    1  UNL1        0.0989
      5 C          -8.7115  -19.4870   20.4379 C.ar    1  UNL1        0.0208
      6 C          -8.8126  -18.4158   21.4831 C.ar    1  UNL1        0.0065
      7 C         -10.1530  -17.8530   21.8530 C.ar    1  UNL1        0.0385
      8 C         -11.0283  -18.5808   22.8298 C.ar    1  UNL1        0.1022
      9 N         -12.3686  -18.0181   23.1998 N.ar    1  UNL1       -0.2224
     10 C         -12.8337  -16.7276   22.5929 C.ar    1  UNL1        0.1989
     11 N         -11.9584  -15.9998   21.6161 N.ar    1  UNL1       -0.2224
     12 C         -10.6180  -16.5625   21.2461 C.ar    1  UNL1        0.1022
     13 C          -8.0001  -15.7060   25.3265 C.ar    1  UNL1        0.0230
     14 C          -7.6606  -14.6693   24.2969 C.ar    1  UNL1        0.0040
     15 C          -7.4595  -15.3678   22.9848 C.ar    1  UNL1        0.0067
     16 C          -7.6746  -16.8361   23.2035 C.ar    1  UNL1        0.0307
     17 S          -8.0088  -17.0451   24.6507 S.2     1  UNL1       -0.0899
     18 N          -8.5349  -16.5978   27.7074 N.3     1  UNL1       -0.3170
     19 C          -8.2816  -15.4486   26.7773 C.3     1  UNL1        0.0987
     20 H          -8.7069  -16.2424   28.6479 H       1  UNL1        0.1192
     21 H          -7.7203  -17.2114   27.7195 H       1  UNL1        0.1192
@<TRIPOS>BOND
     1    18    19    1
     2    19    13    1
     3    13    14   ar
     4    14    15   ar
     5    15    16   ar
     6    16     1    1
     7     1     2   ar
     8     2     3   ar
     9     3     4   ar
    10     4     5   ar
    11     5     6   ar
    12     6     7    1
    13     7     8   ar
    14     8     9   ar
    15     9    10   ar
    16    10    11   ar
    17    11    12   ar
    18    16    17   ar
    19    17    13   ar
    20     6     1   ar
    21    12     7   ar
    22    18    20    1
    23    18    21    1
@<TRIPOS>MOLECULE
*****
 21 23 0 0 0
SMALL
GASTEIGER

@<TRIPOS>ATOM
      1 C           2.5044   -0.6837   19.7862 C.ar    1  UNL1        0.0253
      2 C           1.0410   -0.5733   20.0966 C.ar    1  UNL1        0.0993
      3 N           0.2495    0.5894   19.5756 N.ar    1  UNL1       -0.2423
      4 C           0.9214    1.6419   18.7444 C.ar    1  UNL1        0.0989
      5 C           2.3847    1.5315   18.4340 C.ar    1  UNL1        0.0208
      6 C           3.1762    0.3687   18.9550 C.ar    1  UNL1        0.0065
      7 C           4.6397    0.2583   18.6446 C.ar    1  UNL1        0.0385
      8 C           5.6486    0.9039   19.5476 C.ar    1  UNL1        0.1022
      9 N           7.1120    0.7935   19.2373 N.ar    1  UNL1       -0.2224
     10 C           7.5665    0.0376   18.0240 C.ar    1  UNL1        0.1989
     11 N           6.5576   -0.6080   17.1210 N.ar    1  UNL1       -0.2224
     12 C           5.0941   -0.4976   17.4314 C.ar    1  UNL1        0.1022
     13 C           4.6536   -3.2576   21.7412 C.ar    1  UNL1        0.0230
     14 C           4.3745   -4.0142   20.4763 C.ar    1  UNL1        0.0040
     15 C           3.5355   -3.1421   19.5901 C.ar    1  UNL1        0.0067
     16 C           3.2960   -1.8465   20.3072 C.ar    1  UNL1        0.0307
     17 S           3.9870   -1.9179   21.6366 S.2     1  UNL1       -0.0899
     18 N           6.7185   -4.5318   22.6700 N.3     1  UNL1       -0.3170
     19 C           5.4580   -3.7536   22.9060 C.3     1  UNL1        0.0987
     20 H           7.1331   -4.7873   23.5662 H       1  UNL1        0.1192
     21 H           7.3771   -3.9599   22.1414 H       1  UNL1        0.1192
@<TRIPOS>BOND
     1    18    19    1
     2    19    13    1
     3    13    14   ar
     4    14    15   ar
     5    15    16   ar
     6    16     1    1
     7     1     2   ar
     8     2     3   ar
     9     3     4   ar
    10     4     5   ar
    11     5     6   ar
    12     6     7    1
    13     7     8   ar
    14     8     9   ar
    15     9    10   ar
    16    10    11   ar
    17    11    12   ar
    18    16    17   ar
    19    17    13   ar
    20     6     1   ar
    21    12     7   ar
    22    18    20    1
    23    18    21    1
