@<TRIPOS>MOLECULE
*****
 15 16 0 0 0
SMALL
GASTEIGER

@<TRIPOS>ATOM
      1 C          -3.8869  -19.2120   20.0489 C.ar    1  UNL1        0.1677
      2 C          -4.1813  -20.6825   20.0851 C.ar    1  UNL1        0.0424
      3 C          -5.6664  -20.8549   20.2056 C.ar    1  UNL1        0.0407
      4 C          -6.2899  -19.4912   20.2439 C.ar    1  UNL1        0.1469
      5 O          -5.1901  -18.4758   20.1470 O.2     1  UNL1       -0.4518
      6 C          -7.7559  -19.1949   20.3589 C.ar    1  UNL1        0.0537
      7 C          -8.7080  -19.7048   19.3180 C.ar    1  UNL1        0.0062
      8 C         -10.1739  -19.4084   19.4330 C.ar    1  UNL1        0.0208
      9 C         -10.6877  -18.6022   20.5889 C.ar    1  UNL1        0.0989
     10 N          -9.7356  -18.0923   21.6297 N.ar    1  UNL1       -0.2422
     11 C          -8.2697  -18.3886   21.5147 C.ar    1  UNL1        0.1019
     12 O          -0.5355  -17.7867   18.4720 O.2     1  UNL1       -0.4086
     13 N          -1.8945  -18.4111   18.5864 N.2     1  UNL1       -0.0814
     14 C          -2.5279  -18.5875   19.9346 C.2     1  UNL1        0.1771
     15 H          -0.1399  -17.6765   17.6298 H       1  UNL1        0.3278
@<TRIPOS>BOND
     1    12    13    1
     2    13    14    2
     3    14     1    1
     4     1     2   ar
     5     2     3   ar
     6     3     4   ar
     7     4     6    1
     8     6     7   ar
     9     7     8   ar
    10     8     9   ar
    11     9    10   ar
    12    10    11   ar
    13     4     5   ar
    14     5     1   ar
    15    11     6   ar
    16    12    15    1
@<TRIPOS>MOLECULE
*****
 15 16 0 0 0
SMALL
GASTEIGER

@<TRIPOS>ATOM
      1 C         -11.2529  -17.1393   22.4397 C.ar    1  UNL1        0.1677
      2 C         -11.3343  -18.2902   23.3983 C.ar    1  UNL1        0.0424
      3 C         -10.2724  -18.1012   24.4407 C.ar    1  UNL1        0.0407
      4 C          -9.5347  -16.8335   24.1263 C.ar    1  UNL1        0.1469
      5 O         -10.1407  -16.2391   22.8896 O.2     1  UNL1       -0.4518
      6 C          -8.3916  -16.2608   24.9109 C.ar    1  UNL1        0.0537
      7 C          -8.3965  -16.3388   26.4088 C.ar    1  UNL1        0.0062
      8 C          -7.2534  -15.7662   27.1933 C.ar    1  UNL1        0.0208
      9 C          -6.1056  -15.1154   26.4799 C.ar    1  UNL1        0.0989
     10 N          -6.1007  -15.0374   24.9820 N.ar    1  UNL1       -0.2422
     11 C          -7.2438  -15.6101   24.1974 C.ar    1  UNL1        0.1019
     12 O         -12.6172  -15.7106   18.9977 O.2     1  UNL1       -0.4086
     13 N         -11.7404  -15.9237   20.1958 N.2     1  UNL1       -0.0814
     14 C         -12.1298  -16.9262   21.2415 C.2     1  UNL1        0.1771
     15 H         -12.3739  -15.0843   18.3446 H       1  UNL1        0.3278
@<TRIPOS>BOND
     1    12    13    1
     2    13    14    2
     3    14     1    1
     4     1     2   ar
     5     2     3   ar
     6     3     4   ar
     7     4     6    1
     8     6     7   ar
     9     7     8   ar
    10     8     9   ar
    11     9    10   ar
    12    10    11   ar
    13     4     5   ar
    14     5     1   ar
    15    11     6   ar
    16    12    15    1
@<TRIPOS>MOLECULE
*****
 15 16 0 0 0
SMALL
GASTEIGER

@<TRIPOS>ATOM
      1 C          -8.2085  -18.6919   21.3695 C.ar    1  UNL1        0.1677
      2 C          -7.9259  -19.8959   22.2185 C.ar    1  UNL1        0.0424
      3 C          -6.4557  -20.1828   22.1410 C.ar    1  UNL1        0.0407
      4 C          -5.8296  -19.1563   21.2441 C.ar    1  UNL1        0.1469
      5 O          -6.9130  -18.2349   20.7673 O.2     1  UNL1       -0.4518
      6 C          -4.3755  -19.0669   20.8868 C.ar    1  UNL1        0.0537
      7 C          -3.9668  -18.6353   19.5096 C.ar    1  UNL1        0.0062
      8 C          -2.5127  -18.5459   19.1524 C.ar    1  UNL1        0.0208
      9 C          -1.4674  -18.8881   20.1723 C.ar    1  UNL1        0.0989
     10 N          -1.8761  -19.3197   21.5495 N.ar    1  UNL1       -0.2422
     11 C          -3.3302  -19.4091   21.9067 C.ar    1  UNL1        0.1019
     12 O         -11.5688  -17.5190   19.6137 O.2     1  UNL1       -0.4086
     13 N         -10.2264  -18.1542   19.8237 N.2     1  UNL1       -0.0814
     14 C          -9.5511  -18.0566   21.1596 C.2     1  UNL1        0.1771
     15 H         -11.9906  -17.5800   18.7793 H       1  UNL1        0.3278
@<TRIPOS>BOND
     1    12    13    1
     2    13    14    2
     3    14     1    1
     4     1     2   ar
     5     2     3   ar
     6     3     4   ar
     7     4     6    1
     8     6     7   ar
     9     7     8   ar
    10     8     9   ar
    11     9    10   ar
    12    10    11   ar
    13     4     5   ar
    14     5     1   ar
    15    11     6   ar
    16    12    15    1
@<TRIPOS>MOLECULE
*****
 15 16 0 0 0
SMALL
GASTEIGER

@<TRIPOS>ATOM
      1 C          -9.7799  -18.5227   21.0004 C.ar    1  UNL1        0.1677
      2 C          -9.7742  -19.2279   22.3244 C.ar    1  UNL1        0.0424
      3 C          -8.3669  -19.6587   22.6140 C.ar    1  UNL1        0.0407
      4 C          -7.5028  -19.2198   21.4691 C.ar    1  UNL1        0.1469
      5 O          -8.3761  -18.5177   20.4719 O.2     1  UNL1       -0.4518
      6 C          -6.0249  -19.4437   21.3436 C.ar    1  UNL1        0.0537
      7 C          -5.4867  -20.2901   20.2283 C.ar    1  UNL1        0.0062
      8 C          -4.0088  -20.5140   20.1028 C.ar    1  UNL1        0.0208
      9 C          -3.0692  -19.8914   21.0925 C.ar    1  UNL1        0.0989
     10 N          -3.6075  -19.0451   22.2078 N.ar    1  UNL1       -0.2422
     11 C          -5.0853  -18.8212   22.3333 C.ar    1  UNL1        0.1019
     12 O         -12.1479  -15.9036   19.1887 O.2     1  UNL1       -0.4086
     13 N         -10.9490  -16.4992   19.8652 N.2     1  UNL1       -0.0814
     14 C         -10.9788  -17.9271   20.3239 C.2     1  UNL1        0.1771
     15 H         -12.1292  -15.0116   18.9022 H       1  UNL1        0.3278
@<TRIPOS>BOND
     1    12    13    1
     2    13    14    2
     3    14     1    1
     4     1     2   ar
     5     2     3   ar
     6     3     4   ar
     7     4     6    1
     8     6     7   ar
     9     7     8   ar
    10     8     9   ar
    11     9    10   ar
    12    10    11   ar
    13     4     5   ar
    14     5     1   ar
    15    11     6   ar
    16    12    15    1
@<TRIPOS>MOLECULE
*****
 15 16 0 0 0
SMALL
GASTEIGER

@<TRIPOS>ATOM
      1 C          -4.0535  -18.9890   21.1160 C.ar    1  UNL1        0.1677
      2 C          -4.1062  -20.3005   20.3898 C.ar    1  UNL1        0.0424
      3 C          -5.5481  -20.6528   20.1734 C.ar    1  UNL1        0.0407
      4 C          -6.3865  -19.5591   20.7659 C.ar    1  UNL1        0.1469
      5 O          -5.4627  -18.5308   21.3484 O.2     1  UNL1       -0.4518
      6 C          -7.8855  -19.5034   20.7743 C.ar    1  UNL1        0.0537
      7 C          -8.6467  -19.5975   19.4852 C.ar    1  UNL1        0.0062
      8 C         -10.1456  -19.5418   19.4937 C.ar    1  UNL1        0.0208
      9 C         -10.8833  -19.3921   20.7911 C.ar    1  UNL1        0.0989
     10 N         -10.1221  -19.2980   22.0802 N.ar    1  UNL1       -0.2422
     11 C          -8.6232  -19.3536   22.0717 C.ar    1  UNL1        0.1019
     12 O          -1.3619  -16.1062   21.5564 O.2     1  UNL1       -0.4086
     13 N          -2.6055  -16.8320   21.1365 N.2     1  UNL1       -0.0814
     14 C          -2.8098  -18.2633   21.5361 C.2     1  UNL1        0.1771
     15 H          -1.2343  -15.2121   21.3068 H       1  UNL1        0.3278
@<TRIPOS>BOND
     1    12    13    1
     2    13    14    2
     3    14     1    1
     4     1     2   ar
     5     2     3   ar
     6     3     4   ar
     7     4     6    1
     8     6     7   ar
     9     7     8   ar
    10     8     9   ar
    11     9    10   ar
    12    10    11   ar
    13     4     5   ar
    14     5     1   ar
    15    11     6   ar
    16    12    15    1
@<TRIPOS>MOLECULE
*****
 15 16 0 0 0
SMALL
GASTEIGER

@<TRIPOS>ATOM
      1 C          -8.8664  -17.9155   21.7482 C.ar    1  UNL1        0.1677
      2 C          -8.9011  -19.2589   22.4146 C.ar    1  UNL1        0.0424
      3 C          -7.5319  -19.8629   22.3113 C.ar    1  UNL1        0.0407
      4 C          -6.6512  -18.8928   21.5812 C.ar    1  UNL1        0.1469
      5 O          -7.4759  -17.6892   21.2332 O.2     1  UNL1       -0.4518
      6 C          -5.2003  -19.0914   21.2561 C.ar    1  UNL1        0.0537
      7 C          -4.2007  -19.2627   22.3613 C.ar    1  UNL1        0.0062
      8 C          -2.7499  -19.4613   22.0363 C.ar    1  UNL1        0.0208
      9 C          -2.2987  -19.4886   20.6060 C.ar    1  UNL1        0.0989
     10 N          -3.2982  -19.3172   19.5008 N.ar    1  UNL1       -0.2422
     11 C          -4.7490  -19.1186   19.8259 C.ar    1  UNL1        0.1019
     12 O         -11.8526  -15.4891   22.7206 O.2     1  UNL1       -0.4086
     13 N         -10.6992  -16.4393   22.8492 N.2     1  UNL1       -0.0814
     14 C         -10.0198  -16.9651   21.6195 C.2     1  UNL1        0.1771
     15 H         -12.2769  -15.1607   23.4887 H       1  UNL1        0.3278
@<TRIPOS>BOND
     1    12    13    1
     2    13    14    2
     3    14     1    1
     4     1     2   ar
     5     2     3   ar
     6     3     4   ar
     7     4     6    1
     8     6     7   ar
     9     7     8   ar
    10     8     9   ar
    11     9    10   ar
    12    10    11   ar
    13     4     5   ar
    14     5     1   ar
    15    11     6   ar
    16    12    15    1
@<TRIPOS>MOLECULE
*****
 15 16 0 0 0
SMALL
GASTEIGER

@<TRIPOS>ATOM
      1 C         -15.2119   -8.5955   18.6225 C.ar    1  UNL1        0.1677
      2 C         -15.9167   -7.4121   19.2166 C.ar    1  UNL1        0.0424
      3 C         -14.9110   -6.3127   19.3899 C.ar    1  UNL1        0.0407
      4 C         -13.5847   -6.8167   18.9030 C.ar    1  UNL1        0.1469
      5 O         -13.7707   -8.2275   18.4287 O.2     1  UNL1       -0.4518
      6 C         -12.2983   -6.0452   18.8923 C.ar    1  UNL1        0.0537
      7 C         -10.9881   -6.7726   18.8289 C.ar    1  UNL1        0.0062
      8 C          -9.7018   -6.0011   18.8181 C.ar    1  UNL1        0.0208
      9 C          -9.7257   -4.5022   18.8708 C.ar    1  UNL1        0.0989
     10 N         -11.0360   -3.7748   18.9342 N.ar    1  UNL1       -0.2422
     11 C         -12.3223   -4.5463   18.9449 C.ar    1  UNL1        0.1019
     12 O         -17.2736  -11.9687   18.9699 O.2     1  UNL1       -0.4086
     13 N         -16.6471  -10.6491   19.3103 N.2     1  UNL1       -0.0814
     14 C         -15.8384   -9.9152   18.2820 C.2     1  UNL1        0.1771
     15 H         -17.7787  -12.4271   19.6123 H       1  UNL1        0.3278
@<TRIPOS>BOND
     1    12    13    1
     2    13    14    2
     3    14     1    1
     4     1     2   ar
     5     2     3   ar
     6     3     4   ar
     7     4     6    1
     8     6     7   ar
     9     7     8   ar
    10     8     9   ar
    11     9    10   ar
    12    10    11   ar
    13     4     5   ar
    14     5     1   ar
    15    11     6   ar
    16    12    15    1
@<TRIPOS>MOLECULE
*****
 15 16 0 0 0
SMALL
GASTEIGER

@<TRIPOS>ATOM
      1 C          -6.9152  -19.0916   21.8908 C.ar    1  UNL1        0.1677
      2 C          -6.7685  -20.4019   21.1753 C.ar    1  UNL1        0.0424
      3 C          -5.4077  -20.4360   20.5452 C.ar    1  UNL1        0.0407
      4 C          -4.7133  -19.1470   20.8713 C.ar    1  UNL1        0.1469
      5 O          -5.6450  -18.3162   21.7029 O.2     1  UNL1       -0.4518
      6 C          -3.3301  -18.7573   20.4412 C.ar    1  UNL1        0.0537
      7 C          -3.1150  -18.1060   19.1073 C.ar    1  UNL1        0.0062
      8 C          -1.7319  -17.7163   18.6773 C.ar    1  UNL1        0.0208
      9 C          -0.5638  -17.9780   19.5812 C.ar    1  UNL1        0.0989
     10 N          -0.7788  -18.6293   20.9151 N.ar    1  UNL1       -0.2422
     11 C          -2.1620  -19.0190   21.3451 C.ar    1  UNL1        0.1019
     12 O         -10.5640  -19.0282   23.4501 O.2     1  UNL1       -0.4086
     13 N          -9.3588  -19.4829   22.6817 N.2     1  UNL1       -0.0814
     14 C          -8.1204  -18.6368   22.6593 C.2     1  UNL1        0.1771
     15 H         -11.3376  -19.5567   23.4641 H       1  UNL1        0.3278
@<TRIPOS>BOND
     1    12    13    1
     2    13    14    2
     3    14     1    1
     4     1     2   ar
     5     2     3   ar
     6     3     4   ar
     7     4     6    1
     8     6     7   ar
     9     7     8   ar
    10     8     9   ar
    11     9    10   ar
    12    10    11   ar
    13     4     5   ar
    14     5     1   ar
    15    11     6   ar
    16    12    15    1
@<TRIPOS>MOLECULE
*****
 15 16 0 0 0
SMALL
GASTEIGER

@<TRIPOS>ATOM
      1 C          -6.3056  -15.9947   23.8228 C.ar    1  UNL1        0.1677
      2 C          -7.1350  -15.4654   24.9551 C.ar    1  UNL1        0.0424
      3 C          -8.5765  -15.7334   24.6385 C.ar    1  UNL1        0.0407
      4 C          -8.6380  -16.4283   23.3106 C.ar    1  UNL1        0.1469
      5 O          -7.2345  -16.5898   22.8065 O.2     1  UNL1       -0.4518
      6 C          -9.8843  -16.8821   22.6098 C.ar    1  UNL1        0.0537
      7 C         -11.2138  -16.3037   22.9943 C.ar    1  UNL1        0.0062
      8 C         -12.4599  -16.7574   22.2935 C.ar    1  UNL1        0.0208
      9 C         -12.3766  -17.7896   21.2083 C.ar    1  UNL1        0.0989
     10 N         -11.0471  -18.3680   20.8238 N.ar    1  UNL1       -0.2422
     11 C          -9.8010  -17.9142   21.5246 C.ar    1  UNL1        0.1019
     12 O          -2.5867  -16.8280   22.7160 O.2     1  UNL1       -0.4086
     13 N          -4.0823  -16.8839   22.8146 N.2     1  UNL1       -0.0814
     14 C          -4.8099  -15.9388   23.7243 C.2     1  UNL1        0.1771
     15 H          -2.1322  -17.4184   22.1478 H       1  UNL1        0.3278
@<TRIPOS>BOND
     1    12    13    1
     2    13    14    2
     3    14     1    1
     4     1     2   ar
     5     2     3   ar
     6     3     4   ar
     7     4     6    1
     8     6     7   ar
     9     7     8   ar
    10     8     9   ar
    11     9    10   ar
    12    10    11   ar
    13     4     5   ar
    14     5     1   ar
    15    11     6   ar
    16    12    15    1
