@<TRIPOS>MOLECULE
*****
 25 28 0 0 0
SMALL
GASTEIGER

@<TRIPOS>ATOM
      1 C          -4.2023  -19.2978   21.3205 C.ar    1  UNL1        0.0534
      2 C          -5.0684  -20.4210   20.8324 C.ar    1  UNL1        0.0045
      3 C          -6.5279  -20.4471   21.1775 C.ar    1  UNL1        0.0001
      4 C          -7.1214  -19.3501   22.0107 C.ar    1  UNL1       -0.0002
      5 C          -8.5809  -19.3762   22.3557 C.ar    1  UNL1       -0.0017
      6 C          -9.1744  -18.2792   23.1889 C.ar    1  UNL1        0.0071
      7 C          -8.3083  -17.1559   23.6771 C.ar    1  UNL1       -0.0017
      8 C          -6.8488  -17.1298   23.3320 C.ar    1  UNL1       -0.0002
      9 C          -6.2553  -18.2269   22.4988 C.ar    1  UNL1        0.0001
     10 C          -4.7958  -18.2008   22.1537 C.ar    1  UNL1        0.0045
     11 C         -10.6339  -18.3053   23.5340 C.3     1  UNL1        0.1432
     12 O         -10.1765  -19.0900   24.7277 O.3     1  UNL1       -0.3770
     13 C         -11.9978  -18.4955   24.1286 C.3     1  UNL1        0.0614
     14 C         -12.9931  -17.8229   23.2302 C.3     1  UNL1        0.1105
     15 N         -12.2442  -17.2171   22.0804 N.ar    1  UNL1       -0.3101
     16 C         -12.3965  -16.4269   20.8144 C.ar    1  UNL1        0.1784
     17 N         -11.0327  -16.2367   20.2198 N.ar    1  UNL1       -0.2226
     18 C         -10.0374  -16.9093   21.1182 C.ar    1  UNL1        0.1160
     19 C         -10.7862  -17.5152   22.2681 C.ar    1  UNL1        0.0859
     20 H         -10.9433  -19.3254   25.2731 H       1  UNL1        0.2112
     21 C          -0.7331  -18.1384   19.7809 C.3     1  UNL1        0.1109
     22 N          -2.1927  -18.1646   20.1260 N.am    1  UNL1       -0.2992
     23 C          -2.7428  -19.2716   20.9755 C.2     1  UNL1        0.2459
     24 O          -1.8334  -20.3526   21.4799 O.2     1  UNL1       -0.2701
     25 H          -2.7896  -17.4551   19.7949 H       1  UNL1        0.1498
@<TRIPOS>BOND
     1    21    22    1
     2    22    23   am
     3    23    24    2
     4    23     1    1
     5     1     2   ar
     6     2     3   ar
     7     3     4   ar
     8     4     5   ar
     9     5     6   ar
    10     6    11    1
    11    11    12    1
    12    11    13    1
    13    13    14    1
    14    14    15    1
    15    15    16   ar
    16    16    17   ar
    17    17    18   ar
    18    18    19   ar
    19     6     7   ar
    20     7     8   ar
    21     8     9   ar
    22     9    10   ar
    23    10     1   ar
    24     9     4   ar
    25    19    11    1
    26    19    15   ar
    27    22    25    1
    28    12    20    1
@<TRIPOS>MOLECULE
*****
 25 28 0 0 0
SMALL
GASTEIGER

@<TRIPOS>ATOM
      1 C         -11.2740  -18.9614   23.6508 C.ar    1  UNL1        0.0534
      2 C         -10.5667  -20.0310   24.4291 C.ar    1  UNL1        0.0045
      3 C          -9.1915  -20.4699   24.0216 C.ar    1  UNL1        0.0001
      4 C          -8.5236  -19.8393   22.8358 C.ar    1  UNL1       -0.0002
      5 C          -7.1483  -20.2782   22.4282 C.ar    1  UNL1       -0.0017
      6 C          -6.4804  -19.6476   21.2424 C.ar    1  UNL1        0.0071
      7 C          -7.1877  -18.5780   20.4641 C.ar    1  UNL1       -0.0017
      8 C          -8.5630  -18.1391   20.8716 C.ar    1  UNL1       -0.0002
      9 C          -9.2309  -18.7698   22.0575 C.ar    1  UNL1        0.0001
     10 C         -10.6061  -18.3308   22.4650 C.ar    1  UNL1        0.0045
     11 C          -5.1052  -20.0865   20.8349 C.3     1  UNL1        0.1432
     12 O          -5.8446  -21.0489   19.9534 O.3     1  UNL1       -0.3770
     13 C          -3.8845  -20.7266   20.2431 C.3     1  UNL1        0.0614
     14 C          -2.6782  -20.0681   20.8440 C.3     1  UNL1        0.1105
     15 N          -3.1534  -19.0210   21.8072 N.ar    1  UNL1       -0.3101
     16 C          -2.7015  -17.9668   22.7739 C.ar    1  UNL1        0.1784
     17 N          -3.9221  -17.3267   23.3658 N.ar    1  UNL1       -0.2226
     18 C          -5.1284  -17.9852   22.7648 C.ar    1  UNL1        0.1160
     19 C          -4.6533  -19.0324   21.8016 C.ar    1  UNL1        0.0859
     20 H          -5.2083  -21.5871   19.4571 H       1  UNL1        0.2112
     21 C         -14.5313  -18.3884   25.8444 C.3     1  UNL1        0.1109
     22 N         -13.1561  -18.8273   25.4368 N.am    1  UNL1       -0.2992
     23 C         -12.6493  -18.5225   24.0584 C.2     1  UNL1        0.2459
     24 O         -13.5177  -17.7788   23.0875 O.2     1  UNL1       -0.2701
     25 H         -12.5861  -19.3154   26.0741 H       1  UNL1        0.1498
@<TRIPOS>BOND
     1    21    22    1
     2    22    23   am
     3    23    24    2
     4    23     1    1
     5     1     2   ar
     6     2     3   ar
     7     3     4   ar
     8     4     5   ar
     9     5     6   ar
    10     6    11    1
    11    11    12    1
    12    11    13    1
    13    13    14    1
    14    14    15    1
    15    15    16   ar
    16    16    17   ar
    17    17    18   ar
    18    18    19   ar
    19     6     7   ar
    20     7     8   ar
    21     8     9   ar
    22     9    10   ar
    23    10     1   ar
    24     9     4   ar
    25    19    11    1
    26    19    15   ar
    27    22    25    1
    28    12    20    1
@<TRIPOS>MOLECULE
*****
 25 28 0 0 0
SMALL
GASTEIGER

@<TRIPOS>ATOM
      1 C         -14.4210   -0.0783   18.7293 C.ar    1  UNL1        0.0534
      2 C         -14.9916   -1.1387   19.6236 C.ar    1  UNL1        0.0045
      3 C         -14.2691   -2.4417   19.7976 C.ar    1  UNL1        0.0001
      4 C         -12.9759   -2.6842   19.0774 C.ar    1  UNL1       -0.0002
      5 C         -12.2533   -3.9871   19.2514 C.ar    1  UNL1       -0.0017
      6 C         -10.9601   -4.2296   18.5312 C.ar    1  UNL1        0.0071
      7 C         -10.3894   -3.1691   17.6368 C.ar    1  UNL1       -0.0017
      8 C         -11.1119   -1.8661   17.4628 C.ar    1  UNL1       -0.0002
      9 C         -12.4052   -1.6237   18.1831 C.ar    1  UNL1        0.0001
     10 C         -13.1278   -0.3208   18.0091 C.ar    1  UNL1        0.0045
     11 C         -10.2376   -5.5325   18.7052 C.3     1  UNL1        0.1432
     12 O          -9.4263   -4.7681   19.7088 O.3     1  UNL1       -0.3770
     13 C          -9.3455   -6.6756   19.0890 C.3     1  UNL1        0.0614
     14 C          -9.7564   -7.8742   18.2862 C.3     1  UNL1        0.1105
     15 N         -10.9026   -7.4718   17.4062 N.ar    1  UNL1       -0.3101
     16 C         -11.8649   -7.9639   16.3661 C.ar    1  UNL1        0.1784
     17 N         -12.7571   -6.8208   15.9822 N.ar    1  UNL1       -0.2226
     18 C         -12.3461   -5.6222   16.7851 C.ar    1  UNL1        0.1160
     19 C         -11.1999   -6.0246   17.6651 C.ar    1  UNL1        0.0859
     20 H          -8.7565   -5.3530   20.0962 H       1  UNL1        0.2112
     21 C         -16.9545    2.6506   17.3566 C.3     1  UNL1        0.1109
     22 N         -16.2320    1.3476   17.5306 N.am    1  UNL1       -0.2992
     23 C         -15.1435    1.2247   18.5553 C.2     1  UNL1        0.2459
     24 O         -14.7776    2.4046   19.4060 O.2     1  UNL1       -0.2701
     25 H         -16.4722    0.5732   16.9723 H       1  UNL1        0.1498
@<TRIPOS>BOND
     1    21    22    1
     2    22    23   am
     3    23    24    2
     4    23     1    1
     5     1     2   ar
     6     2     3   ar
     7     3     4   ar
     8     4     5   ar
     9     5     6   ar
    10     6    11    1
    11    11    12    1
    12    11    13    1
    13    13    14    1
    14    14    15    1
    15    15    16   ar
    16    16    17   ar
    17    17    18   ar
    18    18    19   ar
    19     6     7   ar
    20     7     8   ar
    21     8     9   ar
    22     9    10   ar
    23    10     1   ar
    24     9     4   ar
    25    19    11    1
    26    19    15   ar
    27    22    25    1
    28    12    20    1
@<TRIPOS>MOLECULE
*****
 25 28 0 0 0
SMALL
GASTEIGER

@<TRIPOS>ATOM
      1 C          -3.9333  -19.1741   20.9282 C.ar    1  UNL1        0.0534
      2 C          -4.7797  -20.0510   20.0538 C.ar    1  UNL1        0.0045
      3 C          -6.2734  -19.9148   20.0764 C.ar    1  UNL1        0.0001
      4 C          -6.9206  -18.9017   20.9733 C.ar    1  UNL1       -0.0002
      5 C          -8.4143  -18.7655   20.9959 C.ar    1  UNL1       -0.0017
      6 C          -9.0615  -17.7524   21.8928 C.ar    1  UNL1        0.0071
      7 C          -8.2151  -16.8753   22.7672 C.ar    1  UNL1       -0.0017
      8 C          -6.7215  -17.0115   22.7447 C.ar    1  UNL1       -0.0002
      9 C          -6.0742  -18.0247   21.8477 C.ar    1  UNL1        0.0001
     10 C          -4.5806  -18.1609   21.8251 C.ar    1  UNL1        0.0045
     11 C         -10.5552  -17.6162   21.9154 C.3     1  UNL1        0.1432
     12 O         -10.3525  -16.9038   20.6111 O.3     1  UNL1       -0.3770
     13 C         -12.0064  -17.3311   21.6654 C.3     1  UNL1        0.0614
     14 C         -12.7938  -17.8958   22.8104 C.3     1  UNL1        0.1105
     15 N         -11.8291  -18.5299   23.7682 N.ar    1  UNL1       -0.3101
     16 C         -11.7196  -19.2708   25.0678 C.ar    1  UNL1        0.1784
     17 N         -10.2683  -19.5559   25.3180 N.ar    1  UNL1       -0.2226
     18 C          -9.4809  -18.9912   24.1729 C.ar    1  UNL1        0.1160
     19 C         -10.4456  -18.3571   23.2151 C.ar    1  UNL1        0.0859
     20 H         -11.2114  -16.6211   20.2602 H       1  UNL1        0.2112
     21 C          -0.1183  -18.4943   20.0717 C.3     1  UNL1        0.1109
     22 N          -1.6120  -18.3581   20.0943 N.am    1  UNL1       -0.2992
     23 C          -2.4397  -19.3102   20.9056 C.2     1  UNL1        0.2459
     24 O          -1.7738  -20.3985   21.6943 O.2     1  UNL1       -0.2701
     25 H          -2.0490  -17.6438   19.5766 H       1  UNL1        0.1498
@<TRIPOS>BOND
     1    21    22    1
     2    22    23   am
     3    23    24    2
     4    23     1    1
     5     1     2   ar
     6     2     3   ar
     7     3     4   ar
     8     4     5   ar
     9     5     6   ar
    10     6    11    1
    11    11    12    1
    12    11    13    1
    13    13    14    1
    14    14    15    1
    15    15    16   ar
    16    16    17   ar
    17    17    18   ar
    18    18    19   ar
    19     6     7   ar
    20     7     8   ar
    21     8     9   ar
    22     9    10   ar
    23    10     1   ar
    24     9     4   ar
    25    19    11    1
    26    19    15   ar
    27    22    25    1
    28    12    20    1
@<TRIPOS>MOLECULE
*****
 25 28 0 0 0
SMALL
GASTEIGER

@<TRIPOS>ATOM
      1 C           5.6724   -3.6353   23.7372 C.ar    1  UNL1        0.0534
      2 C           5.1809   -2.4597   24.5286 C.ar    1  UNL1        0.0045
      3 C           4.2724   -1.4520   23.8889 C.ar    1  UNL1        0.0001
      4 C           3.8555   -1.6198   22.4579 C.ar    1  UNL1       -0.0002
      5 C           2.9470   -0.6121   21.8183 C.ar    1  UNL1       -0.0017
      6 C           2.5301   -0.7799   20.3872 C.ar    1  UNL1        0.0071
      7 C           3.0216   -1.9556   19.5957 C.ar    1  UNL1       -0.0017
      8 C           3.9300   -2.9633   20.2354 C.ar    1  UNL1       -0.0002
      9 C           4.3470   -2.7954   21.6665 C.ar    1  UNL1        0.0001
     10 C           5.2555   -3.8032   22.3061 C.ar    1  UNL1        0.0045
     11 C           1.6216    0.2278   19.7476 C.3     1  UNL1        0.1432
     12 O           0.5307   -0.6749   20.2424 O.3     1  UNL1       -0.3770
     13 C           0.4851    1.0469   19.2114 C.3     1  UNL1        0.0614
     14 C           1.0635    2.2451   18.5189 C.3     1  UNL1        0.1105
     15 N           2.5576    2.1666   18.6271 N.ar    1  UNL1       -0.3101
     16 C           3.8384    2.8587   18.2660 C.ar    1  UNL1        0.1784
     17 N           4.9750    2.0398   18.8022 N.ar    1  UNL1       -0.2226
     18 C           4.3965    0.8415   19.4947 C.ar    1  UNL1        0.1160
     19 C           2.9025    0.9199   19.3865 C.ar    1  UNL1        0.0859
     20 H          -0.3313   -0.3096   19.9886 H       1  UNL1        0.2112
     21 C           7.4739   -5.8363   26.5048 C.3     1  UNL1        0.1109
     22 N           6.5655   -4.8286   25.8652 N.am    1  UNL1       -0.2992
     23 C           6.5809   -4.6431   24.3768 C.2     1  UNL1        0.2459
     24 O           7.5048   -5.4653   23.5281 O.2     1  UNL1       -0.2701
     25 H           5.9591   -4.2890   26.4223 H       1  UNL1        0.1498
@<TRIPOS>BOND
     1    21    22    1
     2    22    23   am
     3    23    24    2
     4    23     1    1
     5     1     2   ar
     6     2     3   ar
     7     3     4   ar
     8     4     5   ar
     9     5     6   ar
    10     6    11    1
    11    11    12    1
    12    11    13    1
    13    13    14    1
    14    14    15    1
    15    15    16   ar
    16    16    17   ar
    17    17    18   ar
    18    18    19   ar
    19     6     7   ar
    20     7     8   ar
    21     8     9   ar
    22     9    10   ar
    23    10     1   ar
    24     9     4   ar
    25    19    11    1
    26    19    15   ar
    27    22    25    1
    28    12    20    1
@<TRIPOS>MOLECULE
*****
 25 28 0 0 0
SMALL
GASTEIGER

@<TRIPOS>ATOM
      1 C          -0.1912    2.6504   19.7418 C.ar    1  UNL1        0.0534
      2 C           0.8017    3.3383   18.8526 C.ar    1  UNL1        0.0045
      3 C           2.0546    2.6265   18.4358 C.ar    1  UNL1        0.0001
      4 C           2.3145    1.2268   18.9084 C.ar    1  UNL1       -0.0002
      5 C           3.5674    0.5150   18.4917 C.ar    1  UNL1       -0.0017
      6 C           3.8272   -0.8847   18.9642 C.ar    1  UNL1        0.0071
      7 C           2.8342   -1.5726   19.8534 C.ar    1  UNL1       -0.0017
      8 C           1.5814   -0.8608   20.2702 C.ar    1  UNL1       -0.0002
      9 C           1.3215    0.5389   19.7976 C.ar    1  UNL1        0.0001
     10 C           0.0686    1.2507   20.2143 C.ar    1  UNL1        0.0045
     11 C           5.0801   -1.5965   18.5475 C.3     1  UNL1        0.1432
     12 O           4.2618   -2.0119   17.3611 O.3     1  UNL1       -0.3770
     13 C           6.1619   -2.3951   17.8828 C.3     1  UNL1        0.0614
     14 C           7.3869   -2.3245   18.7455 C.3     1  UNL1        0.1105
     15 N           7.0622   -1.4822   19.9435 N.ar    1  UNL1       -0.3101
     16 C           7.6187   -0.9180   21.2171 C.ar    1  UNL1        0.1784
     17 N           6.5369   -0.1193   21.8818 N.ar    1  UNL1       -0.2226
     18 C           5.3119   -0.1900   21.0190 C.ar    1  UNL1        0.1160
     19 C           5.6366   -1.0323   19.8211 C.ar    1  UNL1        0.0859
     20 H           4.8010   -2.5644   16.7738 H       1  UNL1        0.2112
     21 C          -3.9134    3.2866   20.9627 C.3     1  UNL1        0.1109
     22 N          -2.6606    2.5748   20.5460 N.am    1  UNL1       -0.2992
     23 C          -1.4441    3.3622   20.1585 C.2     1  UNL1        0.2459
     24 O          -1.4806    4.8615   20.1877 O.2     1  UNL1       -0.2701
     25 H          -2.6367    1.5908   20.5268 H       1  UNL1        0.1498
@<TRIPOS>BOND
     1    21    22    1
     2    22    23   am
     3    23    24    2
     4    23     1    1
     5     1     2   ar
     6     2     3   ar
     7     3     4   ar
     8     4     5   ar
     9     5     6   ar
    10     6    11    1
    11    11    12    1
    12    11    13    1
    13    13    14    1
    14    14    15    1
    15    15    16   ar
    16    16    17   ar
    17    17    18   ar
    18    18    19   ar
    19     6     7   ar
    20     7     8   ar
    21     8     9   ar
    22     9    10   ar
    23    10     1   ar
    24     9     4   ar
    25    19    11    1
    26    19    15   ar
    27    22    25    1
    28    12    20    1
