@<TRIPOS>MOLECULE
*****
 35 37 0 0 0
SMALL
GASTEIGER

@<TRIPOS>ATOM
      1 C         -10.2143  -19.0767   25.3051 C.3     1  UNL1        0.1152
      2 N          -9.4659  -18.2599   24.2937 N.am    1  UNL1       -0.2729
      3 C          -8.8549  -18.9251   23.0962 C.2     1  UNL1        0.2459
      4 O          -8.9923  -20.4072   22.9100 O.2     1  UNL1       -0.2730
      5 C          -8.1065  -18.1084   22.0849 C.3     1  UNL1        0.1738
      6 N          -6.6139  -17.9890   22.1735 N.pl3   1  UNL1       -0.3255
      7 H          -6.2085  -17.2539   22.6878 H       1  UNL1        0.1472
      8 C          -5.7389  -18.9897   21.4783 C.ar    1  UNL1        0.0423
      9 C          -6.3330  -19.9425   20.4837 C.ar    1  UNL1        0.0140
     10 C          -5.4580  -20.9430   19.7886 C.ar    1  UNL1        0.0012
     11 C          -3.9890  -20.9908   20.0880 C.ar    1  UNL1       -0.0002
     12 C          -3.3949  -20.0380   21.0826 C.ar    1  UNL1       -0.0017
     13 C          -4.2699  -19.0374   21.7777 C.ar    1  UNL1        0.0084
     14 C          -3.6758  -18.0845   22.7723 C.3     1  UNL1        0.1186
     15 N          -2.2203  -17.7303   22.6947 N.3     1  UNL1       -0.1788
     16 H          -1.6985  -18.5829   22.8978 H       1  UNL1        0.1488
     17 S          -1.6522  -17.1668   21.4260 S.O2    1  UNL1        0.0429
     18 C          -1.0840  -16.6033   20.1572 C.3     1  UNL1        0.1957
     19 O          -0.7990  -18.3899   21.2648 O.2     1  UNL1       -0.1574
     20 O          -2.5053  -15.9436   21.5872 O.2     1  UNL1       -0.1574
     21 C          -9.3285  -16.7779   24.4800 C.3     1  UNL1        0.1139
     22 C          -8.1792  -16.2245   25.2692 C.ar    1  UNL1       -0.0029
     23 C          -8.2248  -16.2348   26.7684 C.ar    1  UNL1       -0.0026
     24 C          -7.0755  -15.6814   27.5576 C.ar    1  UNL1       -0.0003
     25 C          -5.8806  -15.1177   26.8476 C.ar    1  UNL1       -0.0000
     26 C          -5.8349  -15.1073   25.3482 C.ar    1  UNL1       -0.0003
     27 C          -6.9842  -15.6607   24.5590 C.ar    1  UNL1       -0.0026
     28 C         -10.3405  -15.8492   23.8770 C.3     1  UNL1        0.0968
     29 N         -11.1499  -16.2884   22.6930 N.3     1  UNL1       -0.2689
     30 C         -12.2922  -17.2603   22.7175 C.3     1  UNL1        0.0748
     31 C         -12.8074  -17.4055   21.3163 C.3     1  UNL1        0.0480
     32 C         -11.9834  -16.5234   20.4257 C.3     1  UNL1        0.1278
     33 O         -12.1539  -16.3603   18.9444 O.3     1  UNL1       -0.3830
     34 C         -10.9591  -15.8330   21.2766 C.3     1  UNL1        0.1017
     35 H         -12.8872  -16.9176   18.6400 H       1  UNL1        0.2104
@<TRIPOS>BOND
     1     1     2    1
     2     2     3   am
     3     3     4    2
     4     3     5    1
     5     5     6    1
     6     6     8    1
     7     8     9   ar
     8     9    10   ar
     9    10    11   ar
    10    11    12   ar
    11    12    13   ar
    12    13    14    1
    13    14    15    1
    14    15    17    1
    15    17    18    1
    16    17    19    2
    17    17    20    2
    18     2    21    1
    19    21    28    1
    20    28    29    1
    21    29    30    1
    22    30    31    1
    23    31    32    1
    24    32    33    1
    25    32    34    1
    26    21    22    1
    27    22    23   ar
    28    23    24   ar
    29    24    25   ar
    30    25    26   ar
    31    26    27   ar
    32    13     8   ar
    33    34    29    1
    34    27    22   ar
    35     6     7    1
    36    15    16    1
    37    33    35    1
@<TRIPOS>MOLECULE
*****
 35 37 0 0 0
SMALL
GASTEIGER

@<TRIPOS>ATOM
      1 C          -9.9443  -19.2430   25.0366 C.3     1  UNL1        0.1152
      2 N          -9.3625  -18.2763   24.0481 N.am    1  UNL1       -0.2729
      3 C          -8.8276  -18.7740   22.7381 C.2     1  UNL1        0.2459
      4 O          -8.8746  -20.2385   22.4165 O.2     1  UNL1       -0.2730
      5 C          -8.2459  -17.8074   21.7496 C.3     1  UNL1        0.1738
      6 N          -7.2198  -18.2735   20.7597 N.pl3   1  UNL1       -0.3255
      7 H          -6.3778  -17.7748   20.6517 H       1  UNL1        0.1472
      8 C          -7.4765  -19.4994   19.9342 C.ar    1  UNL1        0.0423
      9 C          -8.6777  -19.5622   19.0381 C.ar    1  UNL1        0.0140
     10 C          -8.9344  -20.7881   18.2128 C.ar    1  UNL1        0.0012
     11 C          -7.9899  -21.9512   18.2836 C.ar    1  UNL1       -0.0002
     12 C          -6.7887  -21.8884   19.1797 C.ar    1  UNL1       -0.0017
     13 C          -6.5320  -20.6625   20.0050 C.ar    1  UNL1        0.0084
     14 C          -5.3308  -20.5997   20.9013 C.3     1  UNL1        0.1186
     15 N          -3.9623  -20.4314   20.3105 N.3     1  UNL1       -0.1788
     16 H          -4.0908  -20.2671   19.3121 H       1  UNL1        0.1488
     17 S          -3.0560  -19.3476   20.8145 S.O2    1  UNL1        0.0429
     18 C          -2.1496  -18.2639   21.3186 C.3     1  UNL1        0.1957
     19 O          -2.0290  -20.3774   21.1818 O.2     1  UNL1       -0.1574
     20 O          -4.0830  -18.3179   20.4472 O.2     1  UNL1       -0.1574
     21 C          -9.3155  -16.8120   24.3697 C.3     1  UNL1        0.1139
     22 C          -8.1584  -16.2503   25.1415 C.ar    1  UNL1       -0.0029
     23 C          -8.2385  -16.1345   26.6348 C.ar    1  UNL1       -0.0026
     24 C          -7.0814  -15.5728   27.4067 C.ar    1  UNL1       -0.0003
     25 C          -5.8443  -15.1270   26.6851 C.ar    1  UNL1       -0.0000
     26 C          -5.7642  -15.2428   25.1917 C.ar    1  UNL1       -0.0003
     27 C          -6.9213  -15.8044   24.4199 C.ar    1  UNL1       -0.0026
     28 C         -10.4257  -15.9092   23.9194 C.3     1  UNL1        0.0968
     29 N         -11.2523  -16.2763   22.7228 N.3     1  UNL1       -0.2689
     30 C         -12.3601  -17.2872   22.6931 C.3     1  UNL1        0.0748
     31 C         -12.9087  -17.3326   21.2977 C.3     1  UNL1        0.0480
     32 C         -12.1400  -16.3499   20.4651 C.3     1  UNL1        0.1278
     33 O         -12.3569  -16.0692   19.0077 O.3     1  UNL1       -0.3830
     34 C         -11.1162  -15.6970   21.3459 C.3     1  UNL1        0.1017
     35 H         -13.0790  -16.6250   18.6753 H       1  UNL1        0.2104
@<TRIPOS>BOND
     1     1     2    1
     2     2     3   am
     3     3     4    2
     4     3     5    1
     5     5     6    1
     6     6     8    1
     7     8     9   ar
     8     9    10   ar
     9    10    11   ar
    10    11    12   ar
    11    12    13   ar
    12    13    14    1
    13    14    15    1
    14    15    17    1
    15    17    18    1
    16    17    19    2
    17    17    20    2
    18     2    21    1
    19    21    28    1
    20    28    29    1
    21    29    30    1
    22    30    31    1
    23    31    32    1
    24    32    33    1
    25    32    34    1
    26    21    22    1
    27    22    23   ar
    28    23    24   ar
    29    24    25   ar
    30    25    26   ar
    31    26    27   ar
    32    13     8   ar
    33    34    29    1
    34    27    22   ar
    35     6     7    1
    36    15    16    1
    37    33    35    1
@<TRIPOS>MOLECULE
*****
 35 37 0 0 0
SMALL
GASTEIGER

@<TRIPOS>ATOM
      1 C         -10.3999  -17.8769   19.9558 C.3     1  UNL1        0.1152
      2 N          -9.4210  -18.4554   20.9343 N.am    1  UNL1       -0.2729
      3 C          -8.2125  -19.1930   20.4389 C.2     1  UNL1        0.2459
      4 O          -7.9829  -19.3522   18.9651 O.2     1  UNL1       -0.2730
      5 C          -7.2337  -19.7715   21.4173 C.3     1  UNL1        0.1738
      6 N          -5.7608  -19.6770   21.1495 N.pl3   1  UNL1       -0.3255
      7 H          -5.3665  -20.1628   20.3894 H       1  UNL1        0.1472
      8 C          -4.8887  -18.8421   22.0398 C.ar    1  UNL1        0.0423
      9 C          -5.5086  -17.8668   22.9960 C.ar    1  UNL1        0.0140
     10 C          -4.6365  -17.0320   23.8863 C.ar    1  UNL1        0.0012
     11 C          -3.1445  -17.1726   23.8203 C.ar    1  UNL1       -0.0002
     12 C          -2.5247  -18.1480   22.8640 C.ar    1  UNL1       -0.0017
     13 C          -3.3968  -18.9827   21.9738 C.ar    1  UNL1        0.0084
     14 C          -2.7769  -19.9582   21.0175 C.3     1  UNL1        0.1186
     15 N          -2.8749  -19.7243   19.5391 N.3     1  UNL1       -0.1788
     16 H          -3.7898  -20.0677   19.2466 H       1  UNL1        0.1488
     17 S          -2.7373  -18.3358   18.9886 S.O2    1  UNL1        0.0429
     18 C          -2.5998  -16.9472   18.4382 C.3     1  UNL1        0.1957
     19 O          -4.2310  -18.2098   18.9331 O.2     1  UNL1       -0.1574
     20 O          -1.2437  -18.4617   19.0441 O.2     1  UNL1       -0.1574
     21 C          -9.6507  -18.2962   22.4080 C.3     1  UNL1        0.1139
     22 C          -9.0193  -17.1534   23.1463 C.ar    1  UNL1       -0.0029
     23 C          -9.0843  -17.1007   24.6440 C.ar    1  UNL1       -0.0026
     24 C          -8.4529  -15.9578   25.3823 C.ar    1  UNL1       -0.0003
     25 C          -7.7565  -14.8677   24.6231 C.ar    1  UNL1       -0.0000
     26 C          -7.6914  -14.9204   23.1254 C.ar    1  UNL1       -0.0003
     27 C          -8.3228  -16.0632   22.3870 C.ar    1  UNL1       -0.0026
     28 C         -10.5119  -19.2800   23.1434 C.3     1  UNL1        0.0968
     29 N         -11.8416  -18.8514   23.6894 N.3     1  UNL1       -0.2689
     30 C         -12.8826  -18.0597   22.9549 C.3     1  UNL1        0.0748
     31 C         -14.0482  -17.8583   23.8773 C.3     1  UNL1        0.0480
     32 C         -13.7275  -18.5255   25.1820 C.3     1  UNL1        0.1278
     33 O         -14.6148  -18.5709   26.3905 O.3     1  UNL1       -0.3830
     34 C         -12.3638  -19.1392   25.0658 C.3     1  UNL1        0.1017
     35 H         -15.4408  -18.0980   26.2032 H       1  UNL1        0.2104
@<TRIPOS>BOND
     1     1     2    1
     2     2     3   am
     3     3     4    2
     4     3     5    1
     5     5     6    1
     6     6     8    1
     7     8     9   ar
     8     9    10   ar
     9    10    11   ar
    10    11    12   ar
    11    12    13   ar
    12    13    14    1
    13    14    15    1
    14    15    17    1
    15    17    18    1
    16    17    19    2
    17    17    20    2
    18     2    21    1
    19    21    28    1
    20    28    29    1
    21    29    30    1
    22    30    31    1
    23    31    32    1
    24    32    33    1
    25    32    34    1
    26    21    22    1
    27    22    23   ar
    28    23    24   ar
    29    24    25   ar
    30    25    26   ar
    31    26    27   ar
    32    13     8   ar
    33    34    29    1
    34    27    22   ar
    35     6     7    1
    36    15    16    1
    37    33    35    1
@<TRIPOS>MOLECULE
*****
 35 37 0 0 0
SMALL
GASTEIGER

@<TRIPOS>ATOM
      1 C          -4.0536  -20.1613   22.7219 C.3     1  UNL1        0.1152
      2 N          -4.8536  -18.9766   22.2672 N.am    1  UNL1       -0.2729
      3 C          -4.7903  -17.6895   23.0349 C.2     1  UNL1        0.2459
      4 O          -3.9270  -17.5871   24.2573 O.2     1  UNL1       -0.2730
      5 C          -5.5902  -16.5049   22.5802 C.3     1  UNL1        0.1738
      6 N          -5.7418  -15.3130   23.4781 N.pl3   1  UNL1       -0.3255
      7 H          -5.3141  -14.4590   23.2392 H       1  UNL1        0.1472
      8 C          -6.5452  -15.4221   24.7402 C.ar    1  UNL1        0.0423
      9 C          -5.8788  -15.2394   26.0716 C.ar    1  UNL1        0.0140
     10 C          -6.6822  -15.3486   27.3336 C.ar    1  UNL1        0.0012
     11 C          -8.1518  -15.6405   27.2642 C.ar    1  UNL1       -0.0002
     12 C          -8.8182  -15.8232   25.9329 C.ar    1  UNL1       -0.0017
     13 C          -8.0149  -15.7140   24.6709 C.ar    1  UNL1        0.0084
     14 C          -8.6812  -15.8967   23.3394 C.3     1  UNL1        0.1186
     15 N         -10.1757  -15.9932   23.2557 N.3     1  UNL1       -0.1788
     16 H         -10.5504  -15.1565   23.7028 H       1  UNL1        0.1488
     17 S         -10.8462  -16.1069   21.9188 S.O2    1  UNL1        0.0429
     18 C         -11.5168  -16.2206   20.5818 C.3     1  UNL1        0.1957
     19 O         -12.1879  -16.0324   22.5853 O.2     1  UNL1       -0.1574
     20 O          -9.5046  -16.1814   21.2522 O.2     1  UNL1       -0.1574
     21 C          -5.7168  -19.0791   21.0448 C.3     1  UNL1        0.1139
     22 C          -7.1968  -19.2781   21.1863 C.ar    1  UNL1       -0.0029
     23 C          -8.0700  -19.3043   19.9669 C.ar    1  UNL1       -0.0026
     24 C          -9.5500  -19.5034   20.1084 C.ar    1  UNL1       -0.0003
     25 C         -10.1568  -19.6762   21.4692 C.ar    1  UNL1       -0.0000
     26 C          -9.2836  -19.6499   22.6887 C.ar    1  UNL1       -0.0003
     27 C          -7.8036  -19.4509   22.5472 C.ar    1  UNL1       -0.0026
     28 C          -5.1000  -18.9825   19.6808 C.3     1  UNL1        0.0968
     29 N          -3.6765  -18.5339   19.5314 N.3     1  UNL1       -0.2689
     30 C          -3.2186  -17.2427   18.9206 C.3     1  UNL1        0.0748
     31 C          -1.7201  -17.2085   18.9783 C.3     1  UNL1        0.0480
     32 C          -1.2519  -18.4786   19.6247 C.3     1  UNL1        0.1278
     33 O           0.1749  -18.8621   19.8838 O.3     1  UNL1       -0.3830
     34 C          -2.4611  -19.2977   19.9665 C.3     1  UNL1        0.1017
     35 H           0.7617  -18.1575   19.5672 H       1  UNL1        0.2104
@<TRIPOS>BOND
     1     1     2    1
     2     2     3   am
     3     3     4    2
     4     3     5    1
     5     5     6    1
     6     6     8    1
     7     8     9   ar
     8     9    10   ar
     9    10    11   ar
    10    11    12   ar
    11    12    13   ar
    12    13    14    1
    13    14    15    1
    14    15    17    1
    15    17    18    1
    16    17    19    2
    17    17    20    2
    18     2    21    1
    19    21    28    1
    20    28    29    1
    21    29    30    1
    22    30    31    1
    23    31    32    1
    24    32    33    1
    25    32    34    1
    26    21    22    1
    27    22    23   ar
    28    23    24   ar
    29    24    25   ar
    30    25    26   ar
    31    26    27   ar
    32    13     8   ar
    33    34    29    1
    34    27    22   ar
    35     6     7    1
    36    15    16    1
    37    33    35    1
@<TRIPOS>MOLECULE
*****
 35 37 0 0 0
SMALL
GASTEIGER

@<TRIPOS>ATOM
      1 C          -4.5393  -18.1599   23.4005 C.3     1  UNL1        0.1152
      2 N          -5.7803  -18.0423   22.5661 N.am    1  UNL1       -0.2729
      3 C          -6.5692  -16.7665   22.5709 C.2     1  UNL1        0.2459
      4 O          -6.1171  -15.6084   23.4102 O.2     1  UNL1       -0.2730
      5 C          -7.8101  -16.6489   21.7365 C.3     1  UNL1        0.1738
      6 N          -8.9673  -15.8290   22.2249 N.pl3   1  UNL1       -0.3255
      7 H          -8.8429  -14.8738   22.4282 H       1  UNL1        0.1472
      8 C         -10.3143  -16.4646   22.4037 C.ar    1  UNL1        0.0423
      9 C         -11.3260  -16.4016   21.2980 C.ar    1  UNL1        0.0140
     10 C         -12.6728  -17.0371   21.4768 C.ar    1  UNL1        0.0012
     11 C         -13.0080  -17.7357   22.7612 C.ar    1  UNL1       -0.0002
     12 C         -11.9963  -17.7987   23.8668 C.ar    1  UNL1       -0.0017
     13 C         -10.6495  -17.1632   23.6881 C.ar    1  UNL1        0.0084
     14 C          -9.6377  -17.2261   24.7937 C.3     1  UNL1        0.1186
     15 N          -8.9139  -15.9833   25.2197 N.3     1  UNL1       -0.1788
     16 H          -9.6256  -15.2754   25.4004 H       1  UNL1        0.1488
     17 S          -8.0170  -16.0124   26.4216 S.O2    1  UNL1        0.0429
     18 C          -7.1201  -16.0414   27.6237 C.3     1  UNL1        0.1957
     19 O          -7.2653  -14.8285   25.8893 O.2     1  UNL1       -0.1574
     20 O          -8.7688  -17.1962   26.9539 O.2     1  UNL1       -0.1574
     21 C          -6.2323  -19.2004   21.7268 C.3     1  UNL1        0.1139
     22 C          -7.6948  -19.5079   21.5982 C.ar    1  UNL1       -0.0029
     23 C          -8.3848  -19.3325   20.2780 C.ar    1  UNL1       -0.0026
     24 C          -9.8473  -19.6400   20.1495 C.ar    1  UNL1       -0.0003
     25 C         -10.6198  -20.1228   21.3411 C.ar    1  UNL1       -0.0000
     26 C          -9.9298  -20.2981   22.6615 C.ar    1  UNL1       -0.0003
     27 C          -8.4673  -19.9907   22.7900 C.ar    1  UNL1       -0.0026
     28 C          -5.2217  -20.0512   21.0161 C.3     1  UNL1        0.0968
     29 N          -4.0058  -19.4195   20.4058 N.3     1  UNL1       -0.2689
     30 C          -4.0004  -18.3947   19.3105 C.3     1  UNL1        0.0748
     31 C          -2.5731  -18.0435   19.0114 C.3     1  UNL1        0.0480
     32 C          -1.6963  -18.8513   19.9219 C.3     1  UNL1        0.1278
     33 O          -0.1974  -18.8150   19.9634 O.3     1  UNL1       -0.3830
     34 C          -2.5819  -19.7017   20.7837 C.3     1  UNL1        0.1017
     35 H           0.1291  -18.1824   19.3045 H       1  UNL1        0.2104
@<TRIPOS>BOND
     1     1     2    1
     2     2     3   am
     3     3     4    2
     4     3     5    1
     5     5     6    1
     6     6     8    1
     7     8     9   ar
     8     9    10   ar
     9    10    11   ar
    10    11    12   ar
    11    12    13   ar
    12    13    14    1
    13    14    15    1
    14    15    17    1
    15    17    18    1
    16    17    19    2
    17    17    20    2
    18     2    21    1
    19    21    28    1
    20    28    29    1
    21    29    30    1
    22    30    31    1
    23    31    32    1
    24    32    33    1
    25    32    34    1
    26    21    22    1
    27    22    23   ar
    28    23    24   ar
    29    24    25   ar
    30    25    26   ar
    31    26    27   ar
    32    13     8   ar
    33    34    29    1
    34    27    22   ar
    35     6     7    1
    36    15    16    1
    37    33    35    1
@<TRIPOS>MOLECULE
*****
 35 37 0 0 0
SMALL
GASTEIGER

@<TRIPOS>ATOM
      1 C          -3.6229  -17.5189   25.6138 C.3     1  UNL1        0.1152
      2 N          -4.4437  -16.8453   24.5543 N.am    1  UNL1       -0.2729
      3 C          -5.4846  -15.8365   24.9402 C.2     1  UNL1        0.2459
      4 O          -5.7046  -15.5014   26.3857 O.2     1  UNL1       -0.2730
      5 C          -6.3054  -15.1629   23.8808 C.3     1  UNL1        0.1738
      6 N          -7.7823  -14.9869   24.0750 N.pl3   1  UNL1       -0.3255
      7 H          -8.1814  -14.0882   24.0278 H       1  UNL1        0.1472
      8 C          -8.6512  -16.1804   24.3413 C.ar    1  UNL1        0.0423
      9 C          -8.6879  -16.7906   25.7110 C.ar    1  UNL1        0.0140
     10 C          -9.5567  -17.9840   25.9773 C.ar    1  UNL1        0.0012
     11 C         -10.3888  -18.5671   24.8738 C.ar    1  UNL1       -0.0002
     12 C         -10.3521  -17.9568   23.5041 C.ar    1  UNL1       -0.0017
     13 C          -9.4832  -16.7634   23.2379 C.ar    1  UNL1        0.0084
     14 C          -9.4464  -16.1531   21.8681 C.3     1  UNL1        0.1186
     15 N         -10.0605  -16.8780   20.7073 N.3     1  UNL1       -0.1788
     16 H         -10.3774  -17.7815   21.0587 H       1  UNL1        0.1488
     17 S         -11.2168  -16.2702   19.9702 S.O2    1  UNL1        0.0429
     18 C         -12.3732  -15.6623   19.2331 C.3     1  UNL1        0.1957
     19 O         -10.3570  -15.1036   19.5832 O.2     1  UNL1       -0.1574
     20 O         -12.0767  -17.4367   20.3573 O.2     1  UNL1       -0.1574
     21 C          -4.2236  -17.1804   23.1089 C.3     1  UNL1        0.1139
     22 C          -4.9779  -18.3134   22.4784 C.ar    1  UNL1       -0.0029
     23 C          -4.2386  -19.5151   21.9691 C.ar    1  UNL1       -0.0026
     24 C          -4.9928  -20.6481   21.3386 C.ar    1  UNL1       -0.0003
     25 C          -6.4863  -20.5794   21.2175 C.ar    1  UNL1       -0.0000
     26 C          -7.2257  -19.3777   21.7269 C.ar    1  UNL1       -0.0003
     27 C          -6.4714  -18.2447   22.3573 C.ar    1  UNL1       -0.0026
     28 C          -3.2493  -16.3826   22.2939 C.3     1  UNL1        0.0968
     29 N          -2.4808  -17.0416   21.1870 N.3     1  UNL1       -0.2689
     30 C          -2.8932  -17.1097   19.7465 C.3     1  UNL1        0.0748
     31 C          -1.8323  -17.8584   18.9955 C.3     1  UNL1        0.0480
     32 C          -0.7642  -18.2531   19.9720 C.3     1  UNL1        0.1278
     33 O           0.4853  -19.0182   19.6505 O.3     1  UNL1       -0.3830
     34 C          -1.1651  -17.7482   21.3264 C.3     1  UNL1        0.1017
     35 H           0.5032  -19.2246   18.7029 H       1  UNL1        0.2104
@<TRIPOS>BOND
     1     1     2    1
     2     2     3   am
     3     3     4    2
     4     3     5    1
     5     5     6    1
     6     6     8    1
     7     8     9   ar
     8     9    10   ar
     9    10    11   ar
    10    11    12   ar
    11    12    13   ar
    12    13    14    1
    13    14    15    1
    14    15    17    1
    15    17    18    1
    16    17    19    2
    17    17    20    2
    18     2    21    1
    19    21    28    1
    20    28    29    1
    21    29    30    1
    22    30    31    1
    23    31    32    1
    24    32    33    1
    25    32    34    1
    26    21    22    1
    27    22    23   ar
    28    23    24   ar
    29    24    25   ar
    30    25    26   ar
    31    26    27   ar
    32    13     8   ar
    33    34    29    1
    34    27    22   ar
    35     6     7    1
    36    15    16    1
    37    33    35    1
@<TRIPOS>MOLECULE
*****
 35 37 0 0 0
SMALL
GASTEIGER

@<TRIPOS>ATOM
      1 C          -3.5495  -17.4704   24.7241 C.3     1  UNL1        0.1152
      2 N          -4.5246  -17.5906   23.5906 N.am    1  UNL1       -0.2729
      3 C          -5.7858  -16.7787   23.5970 C.2     1  UNL1        0.2459
      4 O          -6.0720  -15.8466   24.7369 O.2     1  UNL1       -0.2730
      5 C          -6.7609  -16.8988   22.4635 C.3     1  UNL1        0.1738
      6 N          -8.2236  -16.6703   22.7050 N.pl3   1  UNL1       -0.3255
      7 H          -8.6177  -15.7841   22.5363 H       1  UNL1        0.1472
      8 C          -9.0857  -17.7920   23.2036 C.ar    1  UNL1        0.0423
      9 C          -8.5113  -19.1695   23.3540 C.ar    1  UNL1        0.0140
     10 C          -9.3734  -20.2912   23.8526 C.ar    1  UNL1        0.0012
     11 C         -10.8099  -20.0353   24.2007 C.ar    1  UNL1       -0.0002
     12 C         -11.3842  -18.6579   24.0503 C.ar    1  UNL1       -0.0017
     13 C         -10.5221  -17.5362   23.5518 C.ar    1  UNL1        0.0084
     14 C         -11.0964  -16.1587   23.4013 C.3     1  UNL1        0.1186
     15 N         -11.8297  -15.7847   22.1473 N.3     1  UNL1       -0.1788
     16 H         -11.6315  -14.7994   21.9731 H       1  UNL1        0.1488
     17 S         -11.5489  -16.5156   20.8680 S.O2    1  UNL1        0.0429
     18 C         -11.2680  -17.2466   19.5885 C.3     1  UNL1        0.1957
     19 O         -10.2892  -15.7209   20.6903 O.2     1  UNL1       -0.1574
     20 O         -12.8085  -17.3104   21.0456 O.2     1  UNL1       -0.1574
     21 C          -4.2384  -18.5227   22.4507 C.3     1  UNL1        0.1139
     22 C          -3.2279  -18.1448   21.4085 C.ar    1  UNL1       -0.0029
     23 C          -2.2608  -17.0288   21.6713 C.ar    1  UNL1       -0.0026
     24 C          -1.2503  -16.6509   20.6292 C.ar    1  UNL1       -0.0003
     25 C          -1.2069  -17.3892   19.3242 C.ar    1  UNL1       -0.0000
     26 C          -2.1740  -18.5053   19.0613 C.ar    1  UNL1       -0.0003
     27 C          -3.1845  -18.8831   20.1034 C.ar    1  UNL1       -0.0026
     28 C          -4.9627  -19.8326   22.3529 C.3     1  UNL1        0.0968
     29 N          -5.8619  -20.1070   21.1842 N.3     1  UNL1       -0.2689
     30 C          -5.9621  -21.4020   20.4339 C.3     1  UNL1        0.0748
     31 C          -6.9809  -21.2300   19.3465 C.3     1  UNL1        0.0480
     32 C          -7.5103  -19.8287   19.4247 C.3     1  UNL1        0.1278
     33 O          -8.5490  -19.2271   18.5251 O.3     1  UNL1       -0.3830
     34 C          -6.8187  -19.1347   20.5604 C.3     1  UNL1        0.1017
     35 H          -8.8340  -19.8869   17.8737 H       1  UNL1        0.2104
@<TRIPOS>BOND
     1     1     2    1
     2     2     3   am
     3     3     4    2
     4     3     5    1
     5     5     6    1
     6     6     8    1
     7     8     9   ar
     8     9    10   ar
     9    10    11   ar
    10    11    12   ar
    11    12    13   ar
    12    13    14    1
    13    14    15    1
    14    15    17    1
    15    17    18    1
    16    17    19    2
    17    17    20    2
    18     2    21    1
    19    21    28    1
    20    28    29    1
    21    29    30    1
    22    30    31    1
    23    31    32    1
    24    32    33    1
    25    32    34    1
    26    21    22    1
    27    22    23   ar
    28    23    24   ar
    29    24    25   ar
    30    25    26   ar
    31    26    27   ar
    32    13     8   ar
    33    34    29    1
    34    27    22   ar
    35     6     7    1
    36    15    16    1
    37    33    35    1
@<TRIPOS>MOLECULE
*****
 35 37 0 0 0
SMALL
GASTEIGER

@<TRIPOS>ATOM
      1 C          -3.7822  -17.5404   24.5855 C.3     1  UNL1        0.1152
      2 N          -4.7766  -17.5481   23.4624 N.am    1  UNL1       -0.2729
      3 C          -5.9137  -16.5699   23.4608 C.2     1  UNL1        0.2459
      4 O          -6.0564  -15.5838   24.5822 O.2     1  UNL1       -0.2730
      5 C          -6.9081  -16.5776   22.3378 C.3     1  UNL1        0.1738
      6 N          -7.9939  -15.5437   22.2903 N.pl3   1  UNL1       -0.3255
      7 H          -7.7774  -14.5952   22.4410 H       1  UNL1        0.1472
      8 C          -9.4095  -15.9550   22.0131 C.ar    1  UNL1        0.0423
      9 C         -10.0467  -15.6118   20.6993 C.ar    1  UNL1        0.0140
     10 C         -11.4623  -16.0231   20.4222 C.ar    1  UNL1        0.0012
     11 C         -12.2407  -16.7776   21.4589 C.ar    1  UNL1       -0.0002
     12 C         -11.6036  -17.1209   22.7727 C.ar    1  UNL1       -0.0017
     13 C         -10.1880  -16.7096   23.0498 C.ar    1  UNL1        0.0084
     14 C          -9.5507  -17.0528   24.3637 C.3     1  UNL1        0.1186
     15 N          -9.0560  -15.9608   25.2652 N.3     1  UNL1       -0.1788
     16 H          -9.8423  -15.3306   25.4233 H       1  UNL1        0.1488
     17 S          -8.4942  -16.2989   26.6143 S.O2    1  UNL1        0.0429
     18 C          -7.9324  -16.6371   27.9634 C.3     1  UNL1        0.1957
     19 O          -8.9737  -17.7118   26.4599 O.2     1  UNL1       -0.1574
     20 O          -8.0147  -14.8861   26.7687 O.2     1  UNL1       -0.1574
     21 C          -4.6339  -18.5341   22.3411 C.3     1  UNL1        0.1139
     22 C          -3.6196  -18.3001   21.2611 C.ar    1  UNL1       -0.0029
     23 C          -2.4865  -17.3444   21.4907 C.ar    1  UNL1       -0.0026
     24 C          -1.4722  -17.1103   20.4107 C.ar    1  UNL1       -0.0003
     25 C          -1.5910  -17.8319   19.1011 C.ar    1  UNL1       -0.0000
     26 C          -2.7241  -18.7877   18.8715 C.ar    1  UNL1       -0.0003
     27 C          -3.7384  -19.0218   19.9514 C.ar    1  UNL1       -0.0026
     28 C          -5.5055  -19.7542   22.2997 C.3     1  UNL1        0.0968
     29 N          -6.9199  -19.6494   21.8114 N.3     1  UNL1       -0.2689
     30 C          -8.1519  -19.9803   22.6004 C.3     1  UNL1        0.0748
     31 C          -9.3440  -19.7306   21.7249 C.3     1  UNL1        0.0480
     32 C          -8.8488  -19.2454   20.3947 C.3     1  UNL1        0.1278
     33 O          -9.7020  -18.8753   19.2178 O.3     1  UNL1       -0.3830
     34 C          -7.3506  -19.1952   20.4482 C.3     1  UNL1        0.1017
     35 H         -10.6370  -18.9973   19.4452 H       1  UNL1        0.2104
@<TRIPOS>BOND
     1     1     2    1
     2     2     3   am
     3     3     4    2
     4     3     5    1
     5     5     6    1
     6     6     8    1
     7     8     9   ar
     8     9    10   ar
     9    10    11   ar
    10    11    12   ar
    11    12    13   ar
    12    13    14    1
    13    14    15    1
    14    15    17    1
    15    17    18    1
    16    17    19    2
    17    17    20    2
    18     2    21    1
    19    21    28    1
    20    28    29    1
    21    29    30    1
    22    30    31    1
    23    31    32    1
    24    32    33    1
    25    32    34    1
    26    21    22    1
    27    22    23   ar
    28    23    24   ar
    29    24    25   ar
    30    25    26   ar
    31    26    27   ar
    32    13     8   ar
    33    34    29    1
    34    27    22   ar
    35     6     7    1
    36    15    16    1
    37    33    35    1
@<TRIPOS>MOLECULE
*****
 35 37 0 0 0
SMALL
GASTEIGER

@<TRIPOS>ATOM
      1 C           5.9207    1.2425   22.7006 C.3     1  UNL1        0.1152
      2 N           4.6188    0.5608   23.0012 N.am    1  UNL1       -0.2729
      3 C           3.9695    0.7413   24.3413 C.2     1  UNL1        0.2459
      4 O           4.6222    1.6037   25.3808 O.2     1  UNL1       -0.2730
      5 C           2.6677    0.0596   24.6419 C.3     1  UNL1        0.1738
      6 N           1.8300    0.5191   25.7982 N.pl3   1  UNL1       -0.3255
      7 H           2.0562    0.2353   26.7134 H       1  UNL1        0.1472
      8 C           0.6476    1.4109   25.5602 C.ar    1  UNL1        0.0423
      9 C           0.3143    1.8589   24.1680 C.ar    1  UNL1        0.0140
     10 C          -0.8680    2.7507   23.9300 C.ar    1  UNL1        0.0012
     11 C          -1.7171    3.1946   25.0842 C.ar    1  UNL1       -0.0002
     12 C          -1.3838    2.7466   26.4764 C.ar    1  UNL1       -0.0017
     13 C          -0.2015    1.8548   26.7144 C.ar    1  UNL1        0.0084
     14 C           0.1319    1.4067   28.1066 C.3     1  UNL1        0.1186
     15 N           0.5657   -0.0074   28.3557 N.3     1  UNL1       -0.1788
     16 H           0.8968   -0.3752   27.4638 H       1  UNL1        0.1488
     17 S           1.6349   -0.2967   29.3672 S.O2    1  UNL1        0.0429
     18 C           2.7041   -0.5861   30.3788 C.3     1  UNL1        0.1957
     19 O           0.8641    0.4694   30.4011 O.2     1  UNL1       -0.1574
     20 O           2.4056   -1.0629   28.3333 O.2     1  UNL1       -0.1574
     21 C           3.9663   -0.3016   21.9617 C.3     1  UNL1        0.1139
     22 C           2.9267    0.2797   21.0499 C.ar    1  UNL1       -0.0029
     23 C           3.2878    1.3971   20.1167 C.ar    1  UNL1       -0.0026
     24 C           2.2482    1.9783   19.2049 C.ar    1  UNL1       -0.0003
     25 C           0.8475    1.4422   19.2263 C.ar    1  UNL1       -0.0000
     26 C           0.4863    0.3247   20.1596 C.ar    1  UNL1       -0.0003
     27 C           1.5259   -0.2565   21.0714 C.ar    1  UNL1       -0.0026
     28 C           4.3533   -1.7452   21.8340 C.3     1  UNL1        0.0968
     29 N           4.8124   -2.2844   20.5118 N.3     1  UNL1       -0.2689
     30 C           4.3225   -3.5401   19.8536 C.3     1  UNL1        0.0748
     31 C           5.0493   -3.6945   18.5506 C.3     1  UNL1        0.0480
     32 C           5.9885   -2.5341   18.4034 C.3     1  UNL1        0.1278
     33 O           6.9119   -2.2884   17.2472 O.3     1  UNL1       -0.3830
     34 C           5.8420   -1.6627   19.6155 C.3     1  UNL1        0.1017
     35 H           6.8123   -3.0010   16.5967 H       1  UNL1        0.2104
@<TRIPOS>BOND
     1     1     2    1
     2     2     3   am
     3     3     4    2
     4     3     5    1
     5     5     6    1
     6     6     8    1
     7     8     9   ar
     8     9    10   ar
     9    10    11   ar
    10    11    12   ar
    11    12    13   ar
    12    13    14    1
    13    14    15    1
    14    15    17    1
    15    17    18    1
    16    17    19    2
    17    17    20    2
    18     2    21    1
    19    21    28    1
    20    28    29    1
    21    29    30    1
    22    30    31    1
    23    31    32    1
    24    32    33    1
    25    32    34    1
    26    21    22    1
    27    22    23   ar
    28    23    24   ar
    29    24    25   ar
    30    25    26   ar
    31    26    27   ar
    32    13     8   ar
    33    34    29    1
    34    27    22   ar
    35     6     7    1
    36    15    16    1
    37    33    35    1
