@<TRIPOS>MOLECULE
*****
 19 20 0 0 0
SMALL
GASTEIGER

@<TRIPOS>ATOM
      1 C          -7.3608  -16.4008   23.3131 C.ar    1  UNL1        0.1351
      2 C          -5.9809  -15.9541   23.6956 C.ar    1  UNL1        0.0375
      3 C          -5.7011  -15.5009   25.0979 C.ar    1  UNL1        0.0145
      4 C          -6.8012  -15.4944   26.1176 C.ar    1  UNL1        0.0576
      5 CL         -6.5214  -15.0412   27.5198 Cl      1  UNL1       -0.0823
      6 C          -8.1811  -15.9412   25.7350 C.ar    1  UNL1        0.0101
      7 C          -8.4609  -16.3944   24.3328 C.ar    1  UNL1        0.0123
      8 C          -9.8407  -16.8411   23.9501 C.3     1  UNL1        0.0253
      9 C         -10.5589  -15.9654   22.9664 C.3     1  UNL1        0.0045
     10 C         -11.9337  -16.1369   22.3914 C.3     1  UNL1        0.0003
     11 C         -12.9297  -17.2261   22.6580 C.3     1  UNL1        0.0000
     12 C         -12.7972  -18.4131   23.5655 C.3     1  UNL1        0.0000
     13 C         -11.6357  -18.8040   24.4305 C.3     1  UNL1        0.0003
     14 C         -10.3200  -18.1043   24.6016 C.3     1  UNL1        0.0045
     15 O          -7.6405  -16.8540   21.9108 O.3     1  UNL1       -0.4697
     16 C          -7.5546  -18.3104   21.5620 C.3     1  UNL1        0.2468
     17 O          -8.3796  -19.1776   19.2560 O.co2   1  UNL1       -0.5454
     18 C          -8.6207  -18.9435   20.7179 C.2     1  UNL1        0.0940
     19 O          -9.9281  -19.3427   21.3357 O.co2   1  UNL1       -0.5454
@<TRIPOS>UNITY_ATOM_ATTR
17 1
charge -1
@<TRIPOS>BOND
     1    17    18   ar
     2    18    19   ar
     3    18    16    1
     4    16    15    1
     5    15     1    1
     6     1     2   ar
     7     2     3   ar
     8     3     4   ar
     9     4     5    1
    10     4     6   ar
    11     6     7   ar
    12     7     8    1
    13     8     9    1
    14     9    10    1
    15    10    11    1
    16    11    12    1
    17    12    13    1
    18    13    14    1
    19     7     1   ar
    20    14     8    1
@<TRIPOS>MOLECULE
*****
 19 20 0 0 0
SMALL
GASTEIGER

@<TRIPOS>ATOM
      1 C          -7.1754  -16.5437   23.5014 C.ar    1  UNL1        0.1351
      2 C          -5.8078  -16.0922   23.9209 C.ar    1  UNL1        0.0375
      3 C          -5.5950  -15.5172   25.2900 C.ar    1  UNL1        0.0145
      4 C          -6.7497  -15.3938   26.2394 C.ar    1  UNL1        0.0576
      5 CL         -6.5369  -14.8188   27.6083 Cl      1  UNL1       -0.0823
      6 C          -8.1173  -15.8453   25.8198 C.ar    1  UNL1        0.0101
      7 C          -8.3301  -16.4202   24.4509 C.ar    1  UNL1        0.0123
      8 C          -9.6976  -16.8717   24.0312 C.3     1  UNL1        0.0253
      9 C         -10.1648  -18.1685   24.6232 C.3     1  UNL1        0.0045
     10 C         -11.4670  -18.8806   24.4052 C.3     1  UNL1        0.0003
     11 C         -12.6233  -18.4719   23.5417 C.3     1  UNL1        0.0000
     12 C         -12.7632  -17.2502   22.6827 C.3     1  UNL1        0.0000
     13 C         -11.7813  -16.1354   22.4751 C.3     1  UNL1        0.0003
     14 C         -10.4169  -15.9670   23.0753 C.3     1  UNL1        0.0045
     15 O          -7.3882  -17.1187   22.1324 O.3     1  UNL1       -0.4697
     16 C          -7.0721  -18.5608   21.8671 C.3     1  UNL1        0.2468
     17 O          -4.8233  -19.6052   22.6429 O.co2   1  UNL1       -0.5454
     18 C          -5.6622  -18.9771   21.5697 C.2     1  UNL1        0.0940
     19 O          -5.0909  -18.7653   20.1989 O.co2   1  UNL1       -0.5454
@<TRIPOS>UNITY_ATOM_ATTR
17 1
charge -1
@<TRIPOS>BOND
     1    17    18   ar
     2    18    19   ar
     3    18    16    1
     4    16    15    1
     5    15     1    1
     6     1     2   ar
     7     2     3   ar
     8     3     4   ar
     9     4     5    1
    10     4     6   ar
    11     6     7   ar
    12     7     8    1
    13     8     9    1
    14     9    10    1
    15    10    11    1
    16    11    12    1
    17    12    13    1
    18    13    14    1
    19     7     1   ar
    20    14     8    1
@<TRIPOS>MOLECULE
*****
 19 20 0 0 0
SMALL
GASTEIGER

@<TRIPOS>ATOM
      1 C          -9.0484  -18.6288   22.0891 C.ar    1  UNL1        0.1351
      2 C          -9.8650  -19.1722   20.9542 C.ar    1  UNL1        0.0375
      3 C         -10.8403  -18.2843   20.2396 C.ar    1  UNL1        0.0145
      4 C         -10.9990  -16.8532   20.6599 C.ar    1  UNL1        0.0576
      5 CL        -11.9743  -15.9654   19.9454 Cl      1  UNL1       -0.0823
      6 C         -10.1825  -16.3099   21.7949 C.ar    1  UNL1        0.0101
      7 C          -9.2072  -17.1977   22.5095 C.ar    1  UNL1        0.0123
      8 C          -8.3906  -16.6544   23.6444 C.3     1  UNL1        0.0253
      9 C          -9.0278  -16.7324   25.0002 C.3     1  UNL1        0.0045
     10 C          -8.4765  -16.2803   26.3200 C.3     1  UNL1        0.0003
     11 C          -7.1522  -15.6385   26.6099 C.3     1  UNL1        0.0000
     12 C          -6.0518  -15.2903   25.6517 C.3     1  UNL1        0.0000
     13 C          -6.0042  -15.4979   24.1669 C.3     1  UNL1        0.0003
     14 C          -7.0451  -16.1050   23.2736 C.3     1  UNL1        0.0045
     15 O          -8.0731  -19.5166   22.8037 O.3     1  UNL1       -0.4697
     16 C          -6.8330  -19.9859   22.1024 C.3     1  UNL1        0.2468
     17 O          -4.7512  -18.4393   21.9463 O.co2   1  UNL1       -0.5454
     18 C          -5.9936  -19.0113   21.3306 C.2     1  UNL1        0.0940
     19 O          -6.3968  -18.6088   19.9429 O.co2   1  UNL1       -0.5454
@<TRIPOS>UNITY_ATOM_ATTR
17 1
charge -1
@<TRIPOS>BOND
     1    17    18   ar
     2    18    19   ar
     3    18    16    1
     4    16    15    1
     5    15     1    1
     6     1     2   ar
     7     2     3   ar
     8     3     4   ar
     9     4     5    1
    10     4     6   ar
    11     6     7   ar
    12     7     8    1
    13     8     9    1
    14     9    10    1
    15    10    11    1
    16    11    12    1
    17    12    13    1
    18    13    14    1
    19     7     1   ar
    20    14     8    1
@<TRIPOS>MOLECULE
*****
 19 20 0 0 0
SMALL
GASTEIGER

@<TRIPOS>ATOM
      1 C          -8.7119  -17.7164   22.1147 C.ar    1  UNL1        0.1351
      2 C          -9.6461  -18.2925   21.0922 C.ar    1  UNL1        0.0375
      3 C         -11.1259  -18.2822   21.3381 C.ar    1  UNL1        0.0145
      4 C         -11.6713  -17.6958   22.6064 C.ar    1  UNL1        0.0576
      5 CL        -13.1509  -17.6855   22.8523 Cl      1  UNL1       -0.0823
      6 C         -10.7370  -17.1198   23.6289 C.ar    1  UNL1        0.0101
      7 C          -9.2574  -17.1301   23.3830 C.ar    1  UNL1        0.0123
      8 C          -8.3231  -16.5541   24.4055 C.3     1  UNL1        0.0253
      9 C          -7.0520  -15.9666   23.8676 C.3     1  UNL1        0.0045
     10 C          -5.9272  -15.3216   24.6221 C.3     1  UNL1        0.0003
     11 C          -5.7959  -15.1049   26.1004 C.3     1  UNL1        0.0000
     12 C          -6.7567  -15.4795   27.1896 C.3     1  UNL1        0.0000
     13 C          -8.0863  -16.1634   27.0694 C.3     1  UNL1        0.0003
     14 C          -8.7834  -16.6416   25.8303 C.3     1  UNL1        0.0045
     15 O          -7.2322  -17.7267   21.8688 O.3     1  UNL1       -0.4697
     16 C          -6.4849  -19.0271   21.8452 C.3     1  UNL1        0.2468
     17 O          -4.1659  -19.4912   22.9207 O.co2   1  UNL1       -0.5454
     18 C          -4.9877  -19.0301   21.7537 C.2     1  UNL1        0.0940
     19 O          -4.3124  -18.5718   20.4951 O.co2   1  UNL1       -0.5454
@<TRIPOS>UNITY_ATOM_ATTR
17 1
charge -1
@<TRIPOS>BOND
     1    17    18   ar
     2    18    19   ar
     3    18    16    1
     4    16    15    1
     5    15     1    1
     6     1     2   ar
     7     2     3   ar
     8     3     4   ar
     9     4     5    1
    10     4     6   ar
    11     6     7   ar
    12     7     8    1
    13     8     9    1
    14     9    10    1
    15    10    11    1
    16    11    12    1
    17    12    13    1
    18    13    14    1
    19     7     1   ar
    20    14     8    1
@<TRIPOS>MOLECULE
*****
 19 20 0 0 0
SMALL
GASTEIGER

@<TRIPOS>ATOM
      1 C          -6.0342  -17.6072   23.0919 C.ar    1  UNL1        0.1351
      2 C          -4.6141  -17.2385   23.4041 C.ar    1  UNL1        0.0375
      3 C          -3.4860  -18.0259   22.8062 C.ar    1  UNL1        0.0145
      4 C          -3.7780  -19.1819   21.8961 C.ar    1  UNL1        0.0576
      5 CL         -2.6500  -19.9693   21.2982 Cl      1  UNL1       -0.0823
      6 C          -5.1981  -19.5506   21.5839 C.ar    1  UNL1        0.0101
      7 C          -6.3262  -18.7633   22.1818 C.ar    1  UNL1        0.0123
      8 C          -7.7463  -19.1319   21.8696 C.3     1  UNL1        0.0253
      9 C          -8.5763  -19.5724   23.0389 C.3     1  UNL1        0.0045
     10 C         -10.0137  -20.0011   23.0568 C.3     1  UNL1        0.0003
     11 C         -10.9759  -20.0951   21.9101 C.3     1  UNL1        0.0000
     12 C         -10.7385  -19.7838   20.4620 C.3     1  UNL1        0.0000
     13 C          -9.4802  -19.3015   19.8032 C.3     1  UNL1        0.0003
     14 C          -8.1486  -19.0114   20.4297 C.3     1  UNL1        0.0045
     15 O          -7.1623  -16.8198   23.6898 O.3     1  UNL1       -0.4697
     16 C          -7.5258  -15.4801   23.1214 C.3     1  UNL1        0.2468
     17 O          -9.6999  -16.2040   21.8968 O.co2   1  UNL1       -0.5454
     18 C          -8.4394  -15.3917   21.9351 C.2     1  UNL1        0.0940
     19 O          -8.0925  -14.4909   20.7869 O.co2   1  UNL1       -0.5454
@<TRIPOS>UNITY_ATOM_ATTR
17 1
charge -1
@<TRIPOS>BOND
     1    17    18   ar
     2    18    19   ar
     3    18    16    1
     4    16    15    1
     5    15     1    1
     6     1     2   ar
     7     2     3   ar
     8     3     4   ar
     9     4     5    1
    10     4     6   ar
    11     6     7   ar
    12     7     8    1
    13     8     9    1
    14     9    10    1
    15    10    11    1
    16    11    12    1
    17    12    13    1
    18    13    14    1
    19     7     1   ar
    20    14     8    1
@<TRIPOS>MOLECULE
*****
 19 20 0 0 0
SMALL
GASTEIGER

@<TRIPOS>ATOM
      1 C          -6.9536  -16.1355   23.7169 C.ar    1  UNL1        0.1351
      2 C          -5.4612  -16.1551   23.8669 C.ar    1  UNL1        0.0375
      3 C          -4.6632  -17.2812   23.2793 C.ar    1  UNL1        0.0145
      4 C          -5.3575  -18.3875   22.5418 C.ar    1  UNL1        0.0576
      5 CL         -4.5595  -19.5135   21.9542 Cl      1  UNL1       -0.0823
      6 C          -6.8499  -18.3678   22.3918 C.ar    1  UNL1        0.0101
      7 C          -7.6479  -17.2419   22.9794 C.ar    1  UNL1        0.0123
      8 C          -9.1403  -17.2222   22.8295 C.3     1  UNL1        0.0253
      9 C          -9.9001  -18.1160   23.7644 C.3     1  UNL1        0.0045
     10 C         -11.3828  -18.3197   23.8652 C.3     1  UNL1        0.0003
     11 C         -12.4718  -17.6799   23.0562 C.3     1  UNL1        0.0000
     12 C         -12.3472  -16.6784   21.9465 C.3     1  UNL1        0.0000
     13 C         -11.1028  -16.0694   21.3717 C.3     1  UNL1        0.0003
     14 C          -9.6755  -16.3114   21.7648 C.3     1  UNL1        0.0045
     15 O          -7.7517  -15.0095   24.3046 O.3     1  UNL1       -0.4697
     16 C          -8.5459  -15.2275   25.5582 C.3     1  UNL1        0.2468
     17 O          -8.5543  -16.8225   27.6091 O.co2   1  UNL1       -0.5454
     18 C          -7.8754  -15.7679   26.7863 C.2     1  UNL1        0.0940
     19 O          -6.5258  -15.2536   27.1917 O.co2   1  UNL1       -0.5454
@<TRIPOS>UNITY_ATOM_ATTR
17 1
charge -1
@<TRIPOS>BOND
     1    17    18   ar
     2    18    19   ar
     3    18    16    1
     4    16    15    1
     5    15     1    1
     6     1     2   ar
     7     2     3   ar
     8     3     4   ar
     9     4     5    1
    10     4     6   ar
    11     6     7   ar
    12     7     8    1
    13     8     9    1
    14     9    10    1
    15    10    11    1
    16    11    12    1
    17    12    13    1
    18    13    14    1
    19     7     1   ar
    20    14     8    1
@<TRIPOS>MOLECULE
*****
 19 20 0 0 0
SMALL
GASTEIGER

@<TRIPOS>ATOM
      1 C          -7.3139  -17.4817   22.7392 C.ar    1  UNL1        0.1351
      2 C          -5.8378  -17.7312   22.6440 C.ar    1  UNL1        0.0375
      3 C          -5.3278  -18.9559   21.9440 C.ar    1  UNL1        0.0145
      4 C          -6.2939  -19.9311   21.3392 C.ar    1  UNL1        0.0576
      5 CL         -5.7840  -21.1558   20.6392 Cl      1  UNL1       -0.0823
      6 C          -7.7700  -19.6815   21.4343 C.ar    1  UNL1        0.0101
      7 C          -8.2799  -18.4568   22.1343 C.ar    1  UNL1        0.0123
      8 C          -9.7559  -18.2072   22.2295 C.3     1  UNL1        0.0253
      9 C         -10.4064  -17.6701   20.9891 C.3     1  UNL1        0.0045
     10 C         -11.8480  -17.3208   20.7653 C.3     1  UNL1        0.0003
     11 C         -12.9949  -17.4223   21.7266 C.3     1  UNL1        0.0000
     12 C         -12.9838  -17.8981   23.1491 C.3     1  UNL1        0.0000
     13 C         -11.8228  -18.3900   23.9616 C.3     1  UNL1        0.0003
     14 C         -10.3863  -18.5275   23.5523 C.3     1  UNL1        0.0045
     15 O          -7.8239  -16.2569   23.4392 O.3     1  UNL1       -0.4697
     16 C          -7.6990  -16.1379   24.9292 C.3     1  UNL1        0.2468
     17 O          -6.4115  -15.2841   27.0181 O.co2   1  UNL1       -0.5454
     18 C          -6.5361  -15.4039   25.5281 C.2     1  UNL1        0.0940
     19 O          -5.4976  -14.7895   24.6369 O.co2   1  UNL1       -0.5454
@<TRIPOS>UNITY_ATOM_ATTR
17 1
charge -1
@<TRIPOS>BOND
     1    17    18   ar
     2    18    19   ar
     3    18    16    1
     4    16    15    1
     5    15     1    1
     6     1     2   ar
     7     2     3   ar
     8     3     4   ar
     9     4     5    1
    10     4     6   ar
    11     6     7   ar
    12     7     8    1
    13     8     9    1
    14     9    10    1
    15    10    11    1
    16    11    12    1
    17    12    13    1
    18    13    14    1
    19     7     1   ar
    20    14     8    1
@<TRIPOS>MOLECULE
*****
 19 20 0 0 0
SMALL
GASTEIGER

@<TRIPOS>ATOM
      1 C          -6.4732  -17.0727   23.1906 C.ar    1  UNL1        0.1351
      2 C          -5.0999  -16.5965   23.5613 C.ar    1  UNL1        0.0375
      3 C          -3.8996  -17.4273   23.2161 C.ar    1  UNL1        0.0145
      4 C          -4.0726  -18.7341   22.5003 C.ar    1  UNL1        0.0576
      5 CL         -2.8723  -19.5648   22.1551 Cl      1  UNL1       -0.0823
      6 C          -5.4460  -19.2102   22.1296 C.ar    1  UNL1        0.0101
      7 C          -6.6462  -18.3794   22.4748 C.ar    1  UNL1        0.0123
      8 C          -8.0196  -18.8555   22.1042 C.3     1  UNL1        0.0253
      9 C          -8.3795  -18.7377   20.6527 C.3     1  UNL1        0.0045
     10 C          -9.6602  -19.1217   19.9726 C.3     1  UNL1        0.0003
     11 C         -10.8970  -19.7182   20.5759 C.3     1  UNL1        0.0000
     12 C         -11.1590  -20.0781   22.0084 C.3     1  UNL1        0.0000
     13 C         -10.2485  -19.9304   23.1913 C.3     1  UNL1        0.0003
     14 C          -8.8514  -19.3862   23.2339 C.3     1  UNL1        0.0045
     15 O          -7.6736  -16.2419   23.5358 O.3     1  UNL1       -0.4697
     16 C          -7.5686  -15.1695   24.5794 C.3     1  UNL1        0.2468
     17 O          -6.2837  -15.0439   26.8340 O.co2   1  UNL1       -0.5454
     18 C          -7.4463  -15.5415   26.0273 C.2     1  UNL1        0.0940
     19 O          -8.4867  -16.4113   26.6686 O.co2   1  UNL1       -0.5454
@<TRIPOS>UNITY_ATOM_ATTR
17 1
charge -1
@<TRIPOS>BOND
     1    17    18   ar
     2    18    19   ar
     3    18    16    1
     4    16    15    1
     5    15     1    1
     6     1     2   ar
     7     2     3   ar
     8     3     4   ar
     9     4     5    1
    10     4     6   ar
    11     6     7   ar
    12     7     8    1
    13     8     9    1
    14     9    10    1
    15    10    11    1
    16    11    12    1
    17    12    13    1
    18    13    14    1
    19     7     1   ar
    20    14     8    1
@<TRIPOS>MOLECULE
*****
 19 20 0 0 0
SMALL
GASTEIGER

@<TRIPOS>ATOM
      1 C          -7.0259  -16.5436   23.2100 C.ar    1  UNL1        0.1351
      2 C          -8.1930  -15.9937   23.9753 C.ar    1  UNL1        0.0375
      3 C          -7.9966  -15.4663   25.3658 C.ar    1  UNL1        0.0145
      4 C          -6.6333  -15.4889   25.9910 C.ar    1  UNL1        0.0576
      5 CL         -6.4369  -14.9616   27.3814 Cl      1  UNL1       -0.0823
      6 C          -5.4662  -16.0388   25.2256 C.ar    1  UNL1        0.0101
      7 C          -5.6626  -16.5661   23.8352 C.ar    1  UNL1        0.0123
      8 C          -4.4956  -17.1160   23.0698 C.3     1  UNL1        0.0253
      9 C          -3.4727  -16.1102   22.6315 C.3     1  UNL1        0.0045
     10 C          -2.2073  -16.3390   21.8590 C.3     1  UNL1        0.0003
     11 C          -1.6525  -17.6299   21.3342 C.3     1  UNL1        0.0000
     12 C          -2.2258  -19.0110   21.4521 C.3     1  UNL1        0.0000
     13 C          -3.4957  -19.4422   22.1240 C.3     1  UNL1        0.0003
     14 C          -4.5058  -18.5988   22.8439 C.3     1  UNL1        0.0045
     15 O          -7.2223  -17.0709   21.8195 O.3     1  UNL1       -0.4697
     16 C          -8.0268  -18.3171   21.5967 C.3     1  UNL1        0.2468
     17 O          -9.8443  -18.2970   19.7402 O.co2   1  UNL1       -0.5454
     18 C          -9.4670  -18.2172   21.1898 C.2     1  UNL1        0.0940
     19 O         -10.5302  -18.0376   22.2327 O.co2   1  UNL1       -0.5454
@<TRIPOS>UNITY_ATOM_ATTR
17 1
charge -1
@<TRIPOS>BOND
     1    17    18   ar
     2    18    19   ar
     3    18    16    1
     4    16    15    1
     5    15     1    1
     6     1     2   ar
     7     2     3   ar
     8     3     4   ar
     9     4     5    1
    10     4     6   ar
    11     6     7   ar
    12     7     8    1
    13     8     9    1
    14     9    10    1
    15    10    11    1
    16    11    12    1
    17    12    13    1
    18    13    14    1
    19     7     1   ar
    20    14     8    1
