@<TRIPOS>MOLECULE
*****
 28 30 0 0 0
SMALL
GASTEIGER

@<TRIPOS>ATOM
      1 C          -6.4407  -18.5183   21.9322 C.2     1  UNL1        0.0731
      2 C          -4.9837  -18.3759   22.2588 C.2     1  UNL1        0.0529
      3 N          -4.5412  -17.3900   23.2992 N.pl3   1  UNL1       -0.3173
      4 C          -5.5557  -16.5466   24.0128 C.2     1  UNL1        0.0317
      5 C          -5.1133  -15.5607   25.0532 C.3     1  UNL1        0.0475
      6 C          -7.0128  -16.6891   23.6862 C.2     1  UNL1        0.0635
      7 C          -7.4552  -17.6750   22.6459 C.3     1  UNL1        0.0855
      8 H          -3.5849  -17.2965   23.5135 H       1  UNL1        0.1517
      9 C          -8.9123  -17.8174   22.3192 C.ar    1  UNL1       -0.0026
     10 C          -9.5898  -16.7977   21.4525 C.ar    1  UNL1       -0.0005
     11 C         -11.0468  -16.9401   21.1258 C.ar    1  UNL1        0.0294
     12 C         -11.8265  -18.1023   21.6659 C.ar    1  UNL1        0.1410
     13 F         -13.2835  -18.2447   21.3393 F       1  UNL1       -0.2041
     14 C         -11.1490  -19.1220   22.5327 C.ar    1  UNL1        0.0407
     15 C          -9.6919  -18.9796   22.8593 C.ar    1  UNL1        0.0566
     16 CL         -9.0144  -19.9993   23.7260 Cl      1  UNL1       -0.0825
     17 C          -6.8832  -19.5042   20.8919 C.2     1  UNL1        0.3389
     18 O          -6.7002  -20.9745   21.1259 O.2     1  UNL1       -0.2452
     19 C          -8.7607  -19.6664   19.1034 C.3     1  UNL1        0.2559
     20 O          -7.5086  -19.0198   19.6175 O.3     1  UNL1       -0.4415
     21 C          -8.0274  -15.8457   24.3999 C.1     1  UNL1        0.0976
     22 N          -9.0420  -15.0023   25.1135 N.1     1  UNL1       -0.1911
     23 C          -3.9690  -19.2193   21.5451 C.3     1  UNL1        0.1681
     24 N          -3.0558  -18.5965   20.5312 N.ar    1  UNL1       -0.2436
     25 C          -1.5578  -18.5598   20.5987 C.ar    1  UNL1        0.0971
     26 C          -1.0564  -17.8418   19.3809 C.ar    1  UNL1        0.0427
     27 C          -2.2446  -17.4347   18.5607 C.ar    1  UNL1        0.1217
     28 N          -3.4803  -17.9012   19.2717 N.ar    1  UNL1       -0.1673
@<TRIPOS>BOND
     1    19    20    1
     2    20    17    1
     3    17    18    2
     4    17     1    1
     5     1     2    2
     6     2    23    1
     7    23    24    1
     8    24    25   ar
     9    25    26   ar
    10    26    27   ar
    11    27    28   ar
    12     2     3    1
    13     3     4    1
    14     4     5    1
    15     4     6    2
    16     6    21    1
    17    21    22    3
    18     6     7    1
    19     7     9    1
    20     9    10   ar
    21    10    11   ar
    22    11    12   ar
    23    12    13    1
    24    12    14   ar
    25    14    15   ar
    26    15    16    1
    27     7     1    1
    28    15     9   ar
    29    28    24   ar
    30     3     8    1
@<TRIPOS>MOLECULE
*****
 28 30 0 0 0
SMALL
GASTEIGER

@<TRIPOS>ATOM
      1 C          -7.9655  -18.4115   21.9953 C.2     1  UNL1        0.0731
      2 C          -6.4844  -18.3449   21.7675 C.2     1  UNL1        0.0529
      3 N          -5.6324  -17.4588   22.6272 N.pl3   1  UNL1       -0.3173
      4 C          -6.2615  -16.6394   23.7147 C.2     1  UNL1        0.0317
      5 C          -5.4096  -15.7533   24.5743 C.3     1  UNL1        0.0475
      6 C          -7.7426  -16.7060   23.9425 C.2     1  UNL1        0.0635
      7 C          -8.5946  -17.5920   23.0828 C.3     1  UNL1        0.0855
      8 H          -4.6603  -17.4151   22.4777 H       1  UNL1        0.1517
      9 C         -10.0757  -17.6586   23.3107 C.ar    1  UNL1       -0.0026
     10 C         -10.6330  -18.5779   24.3568 C.ar    1  UNL1       -0.0005
     11 C         -12.1141  -18.6445   24.5847 C.ar    1  UNL1        0.0294
     12 C         -13.0379  -17.7918   23.7664 C.ar    1  UNL1        0.1410
     13 F         -14.5190  -17.8584   23.9943 F       1  UNL1       -0.2041
     14 C         -12.4806  -16.8725   22.7203 C.ar    1  UNL1        0.0407
     15 C         -10.9995  -16.8059   22.4925 C.ar    1  UNL1        0.0566
     16 CL        -10.4422  -15.8866   21.4464 Cl      1  UNL1       -0.0825
     17 C          -8.8175  -19.2976   21.1357 C.2     1  UNL1        0.3389
     18 O          -9.5417  -20.4615   21.7445 O.2     1  UNL1       -0.2452
     19 C          -8.9533  -20.1551   18.6870 C.3     1  UNL1        0.2559
     20 O          -8.9452  -19.0197   19.6672 O.3     1  UNL1       -0.4415
     21 C          -8.3718  -15.8865   25.0300 C.1     1  UNL1        0.0976
     22 N          -9.0009  -15.0671   26.1175 N.1     1  UNL1       -0.1911
     23 C          -5.8552  -19.1644   20.6800 C.3     1  UNL1        0.1681
     24 N          -4.3888  -19.0317   20.3940 N.ar    1  UNL1       -0.2436
     25 C          -3.2807  -19.7246   21.1302 C.ar    1  UNL1        0.0971
     26 C          -1.9800  -19.3040   20.5127 C.ar    1  UNL1        0.0427
     27 C          -2.2842  -18.3512   19.3948 C.ar    1  UNL1        0.1217
     28 N          -3.7729  -18.1829   19.3214 N.ar    1  UNL1       -0.1673
@<TRIPOS>BOND
     1    19    20    1
     2    20    17    1
     3    17    18    2
     4    17     1    1
     5     1     2    2
     6     2    23    1
     7    23    24    1
     8    24    25   ar
     9    25    26   ar
    10    26    27   ar
    11    27    28   ar
    12     2     3    1
    13     3     4    1
    14     4     5    1
    15     4     6    2
    16     6    21    1
    17    21    22    3
    18     6     7    1
    19     7     9    1
    20     9    10   ar
    21    10    11   ar
    22    11    12   ar
    23    12    13    1
    24    12    14   ar
    25    14    15   ar
    26    15    16    1
    27     7     1    1
    28    15     9   ar
    29    28    24   ar
    30     3     8    1
@<TRIPOS>MOLECULE
*****
 28 30 0 0 0
SMALL
GASTEIGER

@<TRIPOS>ATOM
      1 C          -6.6073  -18.8811   21.5685 C.2     1  UNL1        0.0731
      2 C          -6.4106  -19.7266   20.3453 C.2     1  UNL1        0.0529
      3 N          -7.5658  -19.9987   19.4280 N.pl3   1  UNL1       -0.3173
      4 C          -8.9177  -19.4254   19.7339 C.2     1  UNL1        0.0317
      5 C         -10.0728  -19.6975   18.8165 C.3     1  UNL1        0.0475
      6 C          -9.1144  -18.5799   20.9571 C.2     1  UNL1        0.0635
      7 C          -7.9592  -18.3077   21.8744 C.3     1  UNL1        0.0855
      8 H          -7.4366  -20.5537   18.6251 H       1  UNL1        0.1517
      9 C          -8.1560  -17.4621   23.0977 C.ar    1  UNL1       -0.0026
     10 C          -7.6683  -16.0437   23.1154 C.ar    1  UNL1       -0.0005
     11 C          -7.8650  -15.1982   24.3386 C.ar    1  UNL1        0.0294
     12 C          -8.5495  -15.7710   25.5442 C.ar    1  UNL1        0.1410
     13 F          -8.7462  -14.9255   26.7674 F       1  UNL1       -0.2041
     14 C          -9.0371  -17.1894   25.5266 C.ar    1  UNL1        0.0407
     15 C          -8.8404  -18.0350   24.3033 C.ar    1  UNL1        0.0566
     16 CL         -9.3280  -19.4534   24.2856 Cl      1  UNL1       -0.0825
     17 C          -5.4521  -18.6089   22.4859 C.2     1  UNL1        0.3389
     18 O          -4.7815  -19.7423   23.2040 O.2     1  UNL1       -0.2452
     19 C          -3.5237  -16.9453   22.9989 C.3     1  UNL1        0.2559
     20 O          -4.9676  -17.2034   22.6851 O.3     1  UNL1       -0.4415
     21 C         -10.4663  -18.0064   21.2631 C.1     1  UNL1        0.0976
     22 N         -11.8182  -17.4331   21.5690 N.1     1  UNL1       -0.1911
     23 C          -5.0587  -20.3000   20.0393 C.3     1  UNL1        0.1681
     24 N          -3.8698  -19.3936   19.9168 N.ar    1  UNL1       -0.2436
     25 C          -2.5067  -19.6450   20.4902 C.ar    1  UNL1        0.0971
     26 C          -1.6297  -18.4835   20.1272 C.ar    1  UNL1        0.0427
     27 C          -2.4508  -17.5142   19.3294 C.ar    1  UNL1        0.1217
     28 N          -3.8353  -18.0767   19.1994 N.ar    1  UNL1       -0.1673
@<TRIPOS>BOND
     1    19    20    1
     2    20    17    1
     3    17    18    2
     4    17     1    1
     5     1     2    2
     6     2    23    1
     7    23    24    1
     8    24    25   ar
     9    25    26   ar
    10    26    27   ar
    11    27    28   ar
    12     2     3    1
    13     3     4    1
    14     4     5    1
    15     4     6    2
    16     6    21    1
    17    21    22    3
    18     6     7    1
    19     7     9    1
    20     9    10   ar
    21    10    11   ar
    22    11    12   ar
    23    12    13    1
    24    12    14   ar
    25    14    15   ar
    26    15    16    1
    27     7     1    1
    28    15     9   ar
    29    28    24   ar
    30     3     8    1
@<TRIPOS>MOLECULE
*****
 28 30 0 0 0
SMALL
GASTEIGER

@<TRIPOS>ATOM
      1 C          -8.0864  -17.2531   23.3512 C.2     1  UNL1        0.0731
      2 C          -6.6747  -17.3084   22.8473 C.2     1  UNL1        0.0529
      3 N          -6.3499  -18.0933   21.6110 N.pl3   1  UNL1       -0.3173
      4 C          -7.4368  -18.8229   20.8787 C.2     1  UNL1        0.0317
      5 C          -7.1119  -19.6078   19.6424 C.3     1  UNL1        0.0475
      6 C          -8.8485  -18.7676   21.3826 C.2     1  UNL1        0.0635
      7 C          -9.1733  -17.9827   22.6189 C.3     1  UNL1        0.0855
      8 H          -5.4233  -18.1296   21.2803 H       1  UNL1        0.1517
      9 C         -10.5851  -17.9274   23.1228 C.ar    1  UNL1       -0.0026
     10 C         -11.5268  -16.8824   22.6023 C.ar    1  UNL1       -0.0005
     11 C         -12.9385  -16.8271   23.1062 C.ar    1  UNL1        0.0294
     12 C         -13.4086  -17.8168   24.1307 C.ar    1  UNL1        0.1410
     13 F         -14.8203  -17.7615   24.6345 F       1  UNL1       -0.2041
     14 C         -12.4668  -18.8619   24.6512 C.ar    1  UNL1        0.0407
     15 C         -11.0550  -18.9172   24.1473 C.ar    1  UNL1        0.0566
     16 CL        -10.1133  -19.9622   24.6678 Cl      1  UNL1       -0.0825
     17 C          -8.4113  -16.4682   24.5875 C.2     1  UNL1        0.3389
     18 O          -8.5194  -14.9737   24.5202 O.2     1  UNL1       -0.2452
     19 C          -8.3386  -16.4755   27.1846 C.3     1  UNL1        0.2559
     20 O          -8.6280  -17.1779   25.8911 O.3     1  UNL1       -0.4415
     21 C          -9.9354  -19.4972   20.6503 C.1     1  UNL1        0.0976
     22 N         -11.0223  -20.2268   19.9179 N.1     1  UNL1       -0.1911
     23 C          -5.5878  -16.5788   23.5797 C.3     1  UNL1        0.1681
     24 N          -4.1679  -16.6766   23.1060 N.ar    1  UNL1       -0.2436
     25 C          -3.2434  -17.8373   23.3251 C.ar    1  UNL1        0.0971
     26 C          -1.9274  -17.5090   22.6845 C.ar    1  UNL1        0.0427
     27 C          -2.0386  -16.1453   22.0695 C.ar    1  UNL1        0.1217
     28 N          -3.4233  -15.6310   22.3299 N.ar    1  UNL1       -0.1673
@<TRIPOS>BOND
     1    19    20    1
     2    20    17    1
     3    17    18    2
     4    17     1    1
     5     1     2    2
     6     2    23    1
     7    23    24    1
     8    24    25   ar
     9    25    26   ar
    10    26    27   ar
    11    27    28   ar
    12     2     3    1
    13     3     4    1
    14     4     5    1
    15     4     6    2
    16     6    21    1
    17    21    22    3
    18     6     7    1
    19     7     9    1
    20     9    10   ar
    21    10    11   ar
    22    11    12   ar
    23    12    13    1
    24    12    14   ar
    25    14    15   ar
    26    15    16    1
    27     7     1    1
    28    15     9   ar
    29    28    24   ar
    30     3     8    1
@<TRIPOS>MOLECULE
*****
 28 30 0 0 0
SMALL
GASTEIGER

@<TRIPOS>ATOM
      1 C          -6.7929  -17.6941   22.5419 C.2     1  UNL1        0.0731
      2 C          -5.4765  -18.3763   22.3153 C.2     1  UNL1        0.0529
      3 N          -5.3849  -19.5327   21.3643 N.pl3   1  UNL1       -0.3173
      4 C          -6.6098  -20.0068   20.6399 C.2     1  UNL1        0.0317
      5 C          -6.5183  -21.1632   19.6889 C.3     1  UNL1        0.0475
      6 C          -7.9263  -19.3246   20.8665 C.2     1  UNL1        0.0635
      7 C          -8.0178  -18.1682   21.8175 C.3     1  UNL1        0.0855
      8 H          -4.5209  -19.9805   21.2156 H       1  UNL1        0.1517
      9 C          -9.3344  -17.4859   22.0442 C.ar    1  UNL1       -0.0026
     10 C          -9.7174  -16.2992   21.2104 C.ar    1  UNL1       -0.0005
     11 C         -11.0339  -15.6170   21.4370 C.ar    1  UNL1        0.0294
     12 C         -11.9674  -16.1214   22.4973 C.ar    1  UNL1        0.1410
     13 F         -13.2839  -15.4391   22.7239 F       1  UNL1       -0.2041
     14 C         -11.5844  -17.3081   23.3310 C.ar    1  UNL1        0.0407
     15 C         -10.2678  -17.9903   23.1044 C.ar    1  UNL1        0.0566
     16 CL         -9.8848  -19.1770   23.9381 Cl      1  UNL1       -0.0825
     17 C          -6.8845  -16.5377   23.4929 C.2     1  UNL1        0.3389
     18 O          -6.2409  -15.2281   23.1454 O.2     1  UNL1       -0.2452
     19 C          -8.5147  -15.5912   25.2808 C.3     1  UNL1        0.2559
     20 O          -7.6196  -16.6909   24.7914 O.3     1  UNL1       -0.4415
     21 C          -9.1513  -19.7987   20.1422 C.1     1  UNL1        0.0976
     22 N         -10.3762  -20.2727   19.4178 N.1     1  UNL1       -0.1911
     23 C          -4.2515  -17.9022   23.0397 C.3     1  UNL1        0.1681
     24 N          -3.0148  -17.5466   22.2688 N.ar    1  UNL1       -0.2436
     25 C          -2.0106  -18.5150   21.7177 C.ar    1  UNL1        0.0971
     26 C          -0.9404  -17.7271   21.0220 C.ar    1  UNL1        0.0427
     27 C          -1.2833  -16.2718   21.1431 C.ar    1  UNL1        0.1217
     28 N          -2.5654  -16.1603   21.9137 N.ar    1  UNL1       -0.1673
@<TRIPOS>BOND
     1    19    20    1
     2    20    17    1
     3    17    18    2
     4    17     1    1
     5     1     2    2
     6     2    23    1
     7    23    24    1
     8    24    25   ar
     9    25    26   ar
    10    26    27   ar
    11    27    28   ar
    12     2     3    1
    13     3     4    1
    14     4     5    1
    15     4     6    2
    16     6    21    1
    17    21    22    3
    18     6     7    1
    19     7     9    1
    20     9    10   ar
    21    10    11   ar
    22    11    12   ar
    23    12    13    1
    24    12    14   ar
    25    14    15   ar
    26    15    16    1
    27     7     1    1
    28    15     9   ar
    29    28    24   ar
    30     3     8    1
@<TRIPOS>MOLECULE
*****
 28 30 0 0 0
SMALL
GASTEIGER

@<TRIPOS>ATOM
      1 C         -14.3577   -5.4091   18.5941 C.2     1  UNL1        0.0731
      2 C         -14.3479   -6.8670   18.9466 C.2     1  UNL1        0.0529
      3 N         -13.0798   -7.6592   18.8265 N.pl3   1  UNL1       -0.3173
      4 C         -11.8215   -6.9935   18.3539 C.2     1  UNL1        0.0317
      5 C         -10.5535   -7.7857   18.2338 C.3     1  UNL1        0.0475
      6 C         -11.8313   -5.5355   18.0014 C.2     1  UNL1        0.0635
      7 C         -13.0994   -4.7433   18.1214 C.3     1  UNL1        0.0855
      8 H         -13.0735   -8.6161   19.0579 H       1  UNL1        0.1517
      9 C         -13.1091   -3.2853   17.7688 C.ar    1  UNL1       -0.0026
     10 C         -13.2285   -2.8613   16.3350 C.ar    1  UNL1       -0.0005
     11 C         -13.2383   -1.4034   15.9824 C.ar    1  UNL1        0.0294
     12 C         -13.1285   -0.3695   17.0636 C.ar    1  UNL1        0.1410
     13 F         -13.1382    1.0884   16.7110 F       1  UNL1       -0.2041
     14 C         -13.0090   -0.7935   18.4975 C.ar    1  UNL1        0.0407
     15 C         -12.9993   -2.2515   18.8501 C.ar    1  UNL1        0.0566
     16 CL        -12.8798   -2.6756   20.2839 Cl      1  UNL1       -0.0825
     17 C         -15.6257   -4.6169   18.7141 C.2     1  UNL1        0.3389
     18 O         -16.0614   -4.0969   20.0519 O.2     1  UNL1       -0.2452
     19 C         -16.3591   -5.2479   16.3030 C.3     1  UNL1        0.2559
     20 O         -16.4582   -4.3446   17.4964 O.3     1  UNL1       -0.4415
     21 C         -10.5729   -4.8697   17.5287 C.1     1  UNL1        0.0976
     22 N          -9.3147   -4.2039   17.0561 N.1     1  UNL1       -0.1911
     23 C         -15.6063   -7.5328   19.4193 C.3     1  UNL1        0.1681
     24 N         -15.9229   -8.9329   18.9843 N.ar    1  UNL1       -0.2436
     25 C         -17.2457   -9.6243   19.1326 C.ar    1  UNL1        0.0971
     26 C         -17.1127  -11.0062   18.5645 C.ar    1  UNL1        0.0427
     27 C         -15.7076  -11.1689   18.0651 C.ar    1  UNL1        0.1217
     28 N         -14.9723   -9.8875   18.3245 N.ar    1  UNL1       -0.1673
@<TRIPOS>BOND
     1    19    20    1
     2    20    17    1
     3    17    18    2
     4    17     1    1
     5     1     2    2
     6     2    23    1
     7    23    24    1
     8    24    25   ar
     9    25    26   ar
    10    26    27   ar
    11    27    28   ar
    12     2     3    1
    13     3     4    1
    14     4     5    1
    15     4     6    2
    16     6    21    1
    17    21    22    3
    18     6     7    1
    19     7     9    1
    20     9    10   ar
    21    10    11   ar
    22    11    12   ar
    23    12    13    1
    24    12    14   ar
    25    14    15   ar
    26    15    16    1
    27     7     1    1
    28    15     9   ar
    29    28    24   ar
    30     3     8    1
@<TRIPOS>MOLECULE
*****
 28 30 0 0 0
SMALL
GASTEIGER

@<TRIPOS>ATOM
      1 C           4.0404    1.0435   34.7537 C.2     1  UNL1        0.0731
      2 C           3.0559    2.0865   35.1929 C.2     1  UNL1        0.0529
      3 N           1.9566    2.5172   34.2676 N.pl3   1  UNL1       -0.3173
      4 C           1.8418    1.9049   32.9032 C.2     1  UNL1        0.0317
      5 C           0.7425    2.3355   31.9779 C.3     1  UNL1        0.0475
      6 C           2.8263    0.8618   32.4640 C.2     1  UNL1        0.0635
      7 C           3.9255    0.4312   33.3892 C.3     1  UNL1        0.0855
      8 H           1.3105    3.2018   34.5559 H       1  UNL1        0.1517
      9 C           4.9100   -0.6119   32.9500 C.ar    1  UNL1       -0.0026
     10 C           4.6170   -2.0646   33.1818 C.ar    1  UNL1       -0.0005
     11 C           5.6014   -3.1076   32.7426 C.ar    1  UNL1        0.0294
     12 C           6.8789   -2.6980   32.0715 C.ar    1  UNL1        0.1410
     13 F           7.8633   -3.7410   31.6323 F       1  UNL1       -0.2041
     14 C           7.1719   -1.2453   31.8397 C.ar    1  UNL1        0.0407
     15 C           6.1874   -0.2022   32.2789 C.ar    1  UNL1        0.0566
     16 CL          6.4804    1.2505   32.0471 Cl      1  UNL1       -0.0825
     17 C           5.1396    0.6129   35.6790 C.2     1  UNL1        0.3389
     18 O           4.9208   -0.5334   36.6213 O.2     1  UNL1       -0.2452
     19 C           7.7348    0.5463   35.5757 C.3     1  UNL1        0.2559
     20 O           6.4578    1.3285   35.6619 O.3     1  UNL1       -0.4415
     21 C           2.7115    0.2494   31.0994 C.1     1  UNL1        0.0976
     22 N           2.5968   -0.3629   29.7350 N.1     1  UNL1       -0.1911
     23 C           3.1707    2.6989   36.5574 C.3     1  UNL1        0.1681
     24 N           2.2421    2.2676   37.6536 N.ar    1  UNL1       -0.2436
     25 C           2.3580    1.0104   38.4635 C.ar    1  UNL1        0.0971
     26 C           1.2221    0.9835   39.4428 C.ar    1  UNL1        0.0427
     27 C           0.4042    2.2242   39.2381 C.ar    1  UNL1        0.1217
     28 N           1.0346    3.0178   38.1324 N.ar    1  UNL1       -0.1673
@<TRIPOS>BOND
     1    19    20    1
     2    20    17    1
     3    17    18    2
     4    17     1    1
     5     1     2    2
     6     2    23    1
     7    23    24    1
     8    24    25   ar
     9    25    26   ar
    10    26    27   ar
    11    27    28   ar
    12     2     3    1
    13     3     4    1
    14     4     5    1
    15     4     6    2
    16     6    21    1
    17    21    22    3
    18     6     7    1
    19     7     9    1
    20     9    10   ar
    21    10    11   ar
    22    11    12   ar
    23    12    13    1
    24    12    14   ar
    25    14    15   ar
    26    15    16    1
    27     7     1    1
    28    15     9   ar
    29    28    24   ar
    30     3     8    1
@<TRIPOS>MOLECULE
*****
 28 30 0 0 0
SMALL
GASTEIGER

@<TRIPOS>ATOM
      1 C         -14.1449   -6.3899   17.8725 C.2     1  UNL1        0.0731
      2 C         -13.7575   -7.8227   17.6563 C.2     1  UNL1        0.0529
      3 N         -12.3307   -8.2493   17.8365 N.pl3   1  UNL1       -0.3173
      4 C         -11.2914   -7.2430   18.2329 C.2     1  UNL1        0.0317
      5 C          -9.8647   -7.6696   18.4131 C.3     1  UNL1        0.0475
      6 C         -11.6789   -5.8102   18.4491 C.2     1  UNL1        0.0635
      7 C         -13.1056   -5.3836   18.2689 C.3     1  UNL1        0.0855
      8 H         -12.0765   -9.1897   17.6946 H       1  UNL1        0.1517
      9 C         -13.4930   -3.9506   18.4851 C.ar    1  UNL1       -0.0026
     10 C         -13.9558   -3.4947   19.8372 C.ar    1  UNL1       -0.0005
     11 C         -14.3431   -2.0618   20.0534 C.ar    1  UNL1        0.0294
     12 C         -14.2678   -1.0848   18.9176 C.ar    1  UNL1        0.1410
     13 F         -14.6552    0.3480   19.1339 F       1  UNL1       -0.2041
     14 C         -13.8050   -1.5408   17.5656 C.ar    1  UNL1        0.0407
     15 C         -13.4176   -2.9738   17.3494 C.ar    1  UNL1        0.0566
     16 CL        -12.9549   -3.4297   15.9974 Cl      1  UNL1       -0.0825
     17 C         -15.5717   -5.9633   17.6924 C.2     1  UNL1        0.3389
     18 O         -16.0994   -5.6712   16.3190 O.2     1  UNL1       -0.2452
     19 C         -17.9598   -5.8222   18.7056 C.3     1  UNL1        0.2559
     20 O         -16.4707   -5.8289   18.8855 O.3     1  UNL1       -0.4415
     21 C         -10.6395   -4.8038   18.8455 C.1     1  UNL1        0.0976
     22 N          -9.6003   -3.7974   19.2419 N.1     1  UNL1       -0.1911
     23 C         -14.7968   -8.8291   17.2599 C.3     1  UNL1        0.1681
     24 N         -15.9651   -9.0958   18.1621 N.ar    1  UNL1       -0.2436
     25 C         -17.3785   -9.3427   17.7247 C.ar    1  UNL1        0.0971
     26 C         -18.2121   -9.5619   18.9523 C.ar    1  UNL1        0.0427
     27 C         -17.3139   -9.4505   20.1485 C.ar    1  UNL1        0.1217
     28 N         -15.9252   -9.1624   19.6601 N.ar    1  UNL1       -0.1673
@<TRIPOS>BOND
     1    19    20    1
     2    20    17    1
     3    17    18    2
     4    17     1    1
     5     1     2    2
     6     2    23    1
     7    23    24    1
     8    24    25   ar
     9    25    26   ar
    10    26    27   ar
    11    27    28   ar
    12     2     3    1
    13     3     4    1
    14     4     5    1
    15     4     6    2
    16     6    21    1
    17    21    22    3
    18     6     7    1
    19     7     9    1
    20     9    10   ar
    21    10    11   ar
    22    11    12   ar
    23    12    13    1
    24    12    14   ar
    25    14    15   ar
    26    15    16    1
    27     7     1    1
    28    15     9   ar
    29    28    24   ar
    30     3     8    1
@<TRIPOS>MOLECULE
*****
 28 30 0 0 0
SMALL
GASTEIGER

@<TRIPOS>ATOM
      1 C           4.1150   -2.0572   21.6921 C.2     1  UNL1        0.0731
      2 C           4.8041   -2.8912   22.7312 C.2     1  UNL1        0.0529
      3 N           4.6665   -2.5439   24.1839 N.pl3   1  UNL1       -0.3173
      4 C           3.8399   -1.3627   24.5976 C.2     1  UNL1        0.0317
      5 C           3.7023   -1.0154   26.0504 C.3     1  UNL1        0.0475
      6 C           3.1508   -0.5287   23.5586 C.2     1  UNL1        0.0635
      7 C           3.2884   -0.8760   22.1059 C.3     1  UNL1        0.0855
      8 H           5.1188   -3.0913   24.8659 H       1  UNL1        0.1517
      9 C           2.5993   -0.0419   21.0668 C.ar    1  UNL1       -0.0026
     10 C           1.1995   -0.3763   20.6440 C.ar    1  UNL1       -0.0005
     11 C           0.5104    0.4577   19.6050 C.ar    1  UNL1        0.0294
     12 C           1.2210    1.6262   18.9888 C.ar    1  UNL1        0.1410
     13 F           0.5319    2.4601   17.9498 F       1  UNL1       -0.2041
     14 C           2.6208    1.9606   19.4116 C.ar    1  UNL1        0.0407
     15 C           3.3099    1.1265   20.4506 C.ar    1  UNL1        0.0566
     16 CL          4.7097    1.4609   20.8734 Cl      1  UNL1       -0.0825
     17 C           4.2526   -2.4045   20.2394 C.2     1  UNL1        0.3389
     18 O           3.3133   -3.3913   19.6119 O.2     1  UNL1       -0.2452
     19 C           6.1377   -2.5956   18.4618 C.3     1  UNL1        0.2559
     20 O           5.3296   -1.7649   19.4141 O.3     1  UNL1       -0.4415
     21 C           2.3241    0.6527   23.9723 C.1     1  UNL1        0.0976
     22 N           1.4975    1.8340   24.3860 N.1     1  UNL1       -0.1911
     23 C           5.6308   -4.0725   22.3175 C.3     1  UNL1        0.1681
     24 N           7.0177   -3.8675   21.7841 N.ar    1  UNL1       -0.2436
     25 C           7.8233   -2.6062   21.8843 C.ar    1  UNL1        0.0971
     26 C           9.1460   -2.8470   21.2191 C.ar    1  UNL1        0.0427
     27 C           9.1579   -4.2572   20.7078 C.ar    1  UNL1        0.1217
     28 N           7.8425   -4.8879   21.0570 N.ar    1  UNL1       -0.1673
@<TRIPOS>BOND
     1    19    20    1
     2    20    17    1
     3    17    18    2
     4    17     1    1
     5     1     2    2
     6     2    23    1
     7    23    24    1
     8    24    25   ar
     9    25    26   ar
    10    26    27   ar
    11    27    28   ar
    12     2     3    1
    13     3     4    1
    14     4     5    1
    15     4     6    2
    16     6    21    1
    17    21    22    3
    18     6     7    1
    19     7     9    1
    20     9    10   ar
    21    10    11   ar
    22    11    12   ar
    23    12    13    1
    24    12    14   ar
    25    14    15   ar
    26    15    16    1
    27     7     1    1
    28    15     9   ar
    29    28    24   ar
    30     3     8    1
