@<TRIPOS>MOLECULE
*****
 15 16 0 0 0
SMALL
GASTEIGER

@<TRIPOS>ATOM
      1 C         -11.1826  -17.5213   22.9005 C.ar    1  UNL1        0.0234
      2 C         -11.1701  -18.5868   23.9563 C.ar    1  UNL1        0.0040
      3 C         -10.0711  -18.2661   24.9254 C.ar    1  UNL1        0.0067
      4 C          -9.4044  -17.0024   24.4686 C.ar    1  UNL1        0.0307
      5 S         -10.0914  -16.5421   23.2172 S.2     1  UNL1       -0.0898
      6 C          -8.2529  -16.3189   25.1447 C.ar    1  UNL1        0.0252
      7 C          -8.1928  -16.2552   26.6421 C.ar    1  UNL1        0.0036
      8 C          -7.0414  -15.5718   27.3180 C.ar    1  UNL1        0.0207
      9 C          -5.9499  -14.9521   26.4966 C.ar    1  UNL1        0.0989
     10 N          -6.0100  -15.0158   24.9992 N.ar    1  UNL1       -0.2423
     11 C          -7.1615  -15.6992   24.3232 C.ar    1  UNL1        0.0993
     12 C         -12.1216  -17.4480   21.7330 C.3     1  UNL1        0.1057
     13 C         -10.8458  -18.3749   19.6682 C.3     1  UNL1        0.0899
     14 N         -11.5813  -17.2574   20.3468 N.3     1  UNL1       -0.2661
     15 C         -11.7764  -15.9493   19.6391 C.3     1  UNL1        0.0899
@<TRIPOS>BOND
     1    13    14    1
     2    14    15    1
     3    14    12    1
     4    12     1    1
     5     1     2   ar
     6     2     3   ar
     7     3     4   ar
     8     4     6    1
     9     6     7   ar
    10     7     8   ar
    11     8     9   ar
    12     9    10   ar
    13    10    11   ar
    14     4     5   ar
    15     5     1   ar
    16    11     6   ar
@<TRIPOS>MOLECULE
*****
 15 16 0 0 0
SMALL
GASTEIGER

@<TRIPOS>ATOM
      1 C          -4.3416  -19.2924   21.3628 C.ar    1  UNL1        0.0234
      2 C          -4.6777  -20.3709   20.3758 C.ar    1  UNL1        0.0040
      3 C          -6.1571  -20.6107   20.4373 C.ar    1  UNL1        0.0067
      4 C          -6.7354  -19.6805   21.4621 C.ar    1  UNL1        0.0307
      5 S          -5.6134  -18.8658   22.0342 S.2     1  UNL1       -0.0898
      6 C          -8.1818  -19.5823   21.8473 C.ar    1  UNL1        0.0252
      7 C          -8.6490  -20.1446   23.1571 C.ar    1  UNL1        0.0036
      8 C         -10.0953  -20.0464   23.5423 C.ar    1  UNL1        0.0207
      9 C         -11.0745  -19.3859   22.6176 C.ar    1  UNL1        0.0989
     10 N         -10.6074  -18.8237   21.3078 N.ar    1  UNL1       -0.2423
     11 C          -9.1610  -18.9219   20.9227 C.ar    1  UNL1        0.0993
     12 C          -2.9740  -18.7380   21.6313 C.3     1  UNL1        0.1057
     13 C          -2.1176  -16.2865   21.7130 C.3     1  UNL1        0.0899
     14 N          -2.5150  -17.4980   20.9229 N.3     1  UNL1       -0.2661
     15 C          -2.4534  -17.4697   19.4244 C.3     1  UNL1        0.0899
@<TRIPOS>BOND
     1    13    14    1
     2    14    15    1
     3    14    12    1
     4    12     1    1
     5     1     2   ar
     6     2     3   ar
     7     3     4   ar
     8     4     6    1
     9     6     7   ar
    10     7     8   ar
    11     8     9   ar
    12     9    10   ar
    13    10    11   ar
    14     4     5   ar
    15     5     1   ar
    16    11     6   ar
@<TRIPOS>MOLECULE
*****
 15 16 0 0 0
SMALL
GASTEIGER

@<TRIPOS>ATOM
      1 C          -9.9530  -18.7975   20.7583 C.ar    1  UNL1        0.0234
      2 C          -9.6777  -19.4501   19.4359 C.ar    1  UNL1        0.0040
      3 C          -8.2095  -19.7482   19.3629 C.ar    1  UNL1        0.0067
      4 C          -7.5773  -19.2799   20.6401 C.ar    1  UNL1        0.0307
      5 S          -8.6548  -18.6923   21.5024 S.2     1  UNL1       -0.0898
      6 C          -6.1228  -19.3813   20.9929 C.ar    1  UNL1        0.0252
      7 C          -5.1779  -20.1031   20.0786 C.ar    1  UNL1        0.0036
      8 C          -3.7235  -20.2045   20.4314 C.ar    1  UNL1        0.0207
      9 C          -3.2142  -19.5841   21.6986 C.ar    1  UNL1        0.0989
     10 N          -4.1591  -18.8623   22.6129 N.ar    1  UNL1       -0.2423
     11 C          -5.6135  -18.7609   22.2600 C.ar    1  UNL1        0.0993
     12 C         -11.2914  -18.3319   21.2501 C.3     1  UNL1        0.1057
     13 C         -11.5144  -16.1531   19.8525 C.3     1  UNL1        0.0899
     14 N         -11.6622  -16.8816   21.1554 N.3     1  UNL1       -0.2661
     15 C         -12.1807  -16.1597   22.3637 C.3     1  UNL1        0.0899
@<TRIPOS>BOND
     1    13    14    1
     2    14    15    1
     3    14    12    1
     4    12     1    1
     5     1     2   ar
     6     2     3   ar
     7     3     4   ar
     8     4     6    1
     9     6     7   ar
    10     7     8   ar
    11     8     9   ar
    12     9    10   ar
    13    10    11   ar
    14     4     5   ar
    15     5     1   ar
    16    11     6   ar
@<TRIPOS>MOLECULE
*****
 15 16 0 0 0
SMALL
GASTEIGER

@<TRIPOS>ATOM
      1 C          -9.3272  -17.9701   22.4621 C.ar    1  UNL1        0.0234
      2 C          -9.4626  -19.3802   22.9555 C.ar    1  UNL1        0.0040
      3 C          -8.1562  -20.0798   22.7236 C.ar    1  UNL1        0.0067
      4 C          -7.2134  -19.1021   22.0870 C.ar    1  UNL1        0.0307
      5 S          -7.9371  -17.7982   21.9253 S.2     1  UNL1       -0.0898
      6 C          -5.7957  -19.3796   21.6829 C.ar    1  UNL1        0.0252
      7 C          -5.5112  -20.1853   20.4501 C.ar    1  UNL1        0.0036
      8 C          -4.0935  -20.4628   20.0461 C.ar    1  UNL1        0.0207
      9 C          -2.9604  -19.9345   20.8749 C.ar    1  UNL1        0.0989
     10 N          -3.2449  -19.1288   22.1077 N.ar    1  UNL1       -0.2423
     11 C          -4.6625  -18.8513   22.5117 C.ar    1  UNL1        0.0993
     12 C         -10.3946  -16.9168   22.4990 C.3     1  UNL1        0.1057
     13 C         -12.7165  -17.6844   21.6218 C.3     1  UNL1        0.0899
     14 N         -11.4577  -16.8889   21.4411 N.3     1  UNL1       -0.2661
     15 C         -11.2620  -16.0656   20.2027 C.3     1  UNL1        0.0899
@<TRIPOS>BOND
     1    13    14    1
     2    14    15    1
     3    14    12    1
     4    12     1    1
     5     1     2   ar
     6     2     3   ar
     7     3     4   ar
     8     4     6    1
     9     6     7   ar
    10     7     8   ar
    11     8     9   ar
    12     9    10   ar
    13    10    11   ar
    14     4     5   ar
    15     5     1   ar
    16    11     6   ar
@<TRIPOS>MOLECULE
*****
 15 16 0 0 0
SMALL
GASTEIGER

@<TRIPOS>ATOM
      1 C          -9.6930  -19.2344   21.1924 C.ar    1  UNL1        0.0234
      2 C          -9.4427  -19.4816   19.7342 C.ar    1  UNL1        0.0040
      3 C          -7.9636  -19.6348   19.5372 C.ar    1  UNL1        0.0067
      4 C          -7.2998  -19.4823   20.8737 C.ar    1  UNL1        0.0307
      5 S          -8.3686  -19.2348   21.8966 S.2     1  UNL1       -0.0898
      6 C          -5.8258  -19.5630   21.1404 C.ar    1  UNL1        0.0252
      7 C          -5.2295  -18.8088   22.2917 C.ar    1  UNL1        0.0036
      8 C          -3.7556  -18.8896   22.5583 C.ar    1  UNL1        0.0207
      9 C          -2.8781  -19.7247   21.6736 C.ar    1  UNL1        0.0989
     10 N          -3.4744  -20.4789   20.5223 N.ar    1  UNL1       -0.2423
     11 C          -4.9483  -20.3981   20.2557 C.ar    1  UNL1        0.0993
     12 C         -11.0325  -19.0237   21.8337 C.3     1  UNL1        0.1057
     13 C         -11.0785  -16.6236   22.8274 C.3     1  UNL1        0.0899
     14 N         -11.1627  -18.1094   23.0157 N.3     1  UNL1       -0.2661
     15 C         -11.3770  -18.6808   24.3859 C.3     1  UNL1        0.0899
@<TRIPOS>BOND
     1    13    14    1
     2    14    15    1
     3    14    12    1
     4    12     1    1
     5     1     2   ar
     6     2     3   ar
     7     3     4   ar
     8     4     6    1
     9     6     7   ar
    10     7     8   ar
    11     8     9   ar
    12     9    10   ar
    13    10    11   ar
    14     4     5   ar
    15     5     1   ar
    16    11     6   ar
@<TRIPOS>MOLECULE
*****
 15 16 0 0 0
SMALL
GASTEIGER

@<TRIPOS>ATOM
      1 C          -6.0578  -15.6589   24.0611 C.ar    1  UNL1        0.0234
      2 C          -6.4735  -15.3703   25.4732 C.ar    1  UNL1        0.0040
      3 C          -7.8806  -15.8584   25.6510 C.ar    1  UNL1        0.0067
      4 C          -8.3346  -16.4486   24.3488 C.ar    1  UNL1        0.0307
      5 S          -7.2080  -16.3253   23.3662 S.2     1  UNL1       -0.0898
      6 C          -9.6792  -17.0556   24.0771 C.ar    1  UNL1        0.0252
      7 C         -10.6068  -16.4121   23.0895 C.ar    1  UNL1        0.0036
      8 C         -11.9513  -17.0191   22.8178 C.ar    1  UNL1        0.0207
      9 C         -12.3681  -18.2696   23.5336 C.ar    1  UNL1        0.0989
     10 N         -11.4405  -18.9131   24.5212 N.ar    1  UNL1       -0.2423
     11 C         -10.0960  -18.3062   24.7929 C.ar    1  UNL1        0.0993
     12 C          -4.7257  -15.3375   23.4509 C.3     1  UNL1        0.1057
     13 C          -4.0416  -17.8431   23.5113 C.3     1  UNL1        0.0899
     14 N          -3.8125  -16.4455   23.0171 N.3     1  UNL1       -0.2661
     15 C          -2.6701  -16.1559   22.0891 C.3     1  UNL1        0.0899
@<TRIPOS>BOND
     1    13    14    1
     2    14    15    1
     3    14    12    1
     4    12     1    1
     5     1     2   ar
     6     2     3   ar
     7     3     4   ar
     8     4     6    1
     9     6     7   ar
    10     7     8   ar
    11     8     9   ar
    12     9    10   ar
    13    10    11   ar
    14     4     5   ar
    15     5     1   ar
    16    11     6   ar
@<TRIPOS>MOLECULE
*****
 15 16 0 0 0
SMALL
GASTEIGER

@<TRIPOS>ATOM
      1 C          -7.5105  -19.1095   22.0202 C.ar    1  UNL1        0.0234
      2 C          -7.6618  -19.8413   20.7195 C.ar    1  UNL1        0.0040
      3 C          -6.3184  -19.8857   20.0537 C.ar    1  UNL1        0.0067
      4 C          -5.3369  -19.1814   20.9429 C.ar    1  UNL1        0.0307
      5 S          -6.0737  -18.7017   22.1582 S.2     1  UNL1       -0.0898
      6 C          -3.8751  -18.9903   20.6654 C.ar    1  UNL1        0.0252
      7 C          -3.4282  -18.4426   19.3425 C.ar    1  UNL1        0.0036
      8 C          -1.9666  -18.2515   19.0651 C.ar    1  UNL1        0.0207
      9 C          -0.9518  -18.6082   20.1106 C.ar    1  UNL1        0.0989
     10 N          -1.3987  -19.1560   21.4335 N.ar    1  UNL1       -0.2423
     11 C          -2.8604  -19.3470   21.7109 C.ar    1  UNL1        0.0993
     12 C          -8.6042  -18.8339   23.0091 C.3     1  UNL1        0.1057
     13 C          -8.8293  -16.6749   24.4366 C.3     1  UNL1        0.0899
     14 N          -9.1266  -17.4383   23.1801 N.3     1  UNL1       -0.2661
     15 C          -9.9463  -16.8061   22.0946 C.3     1  UNL1        0.0899
@<TRIPOS>BOND
     1    13    14    1
     2    14    15    1
     3    14    12    1
     4    12     1    1
     5     1     2   ar
     6     2     3   ar
     7     3     4   ar
     8     4     6    1
     9     6     7   ar
    10     7     8   ar
    11     8     9   ar
    12     9    10   ar
    13    10    11   ar
    14     4     5   ar
    15     5     1   ar
    16    11     6   ar
@<TRIPOS>MOLECULE
*****
 15 16 0 0 0
SMALL
GASTEIGER

@<TRIPOS>ATOM
      1 C          -6.3102  -19.2787   21.2427 C.ar    1  UNL1        0.0234
      2 C          -6.1682  -18.2647   22.3389 C.ar    1  UNL1        0.0040
      3 C          -7.5311  -17.7167   22.6428 C.ar    1  UNL1        0.0067
      4 C          -8.5153  -18.3920   21.7343 C.ar    1  UNL1        0.0307
      5 S          -7.7608  -19.3574   20.8691 S.2     1  UNL1       -0.0898
      6 C          -9.9945  -18.1452   21.6977 C.ar    1  UNL1        0.0252
      7 C         -10.8162  -18.3273   22.9393 C.ar    1  UNL1        0.0036
      8 C         -12.2953  -18.0805   22.9026 C.ar    1  UNL1        0.0207
      9 C         -12.9527  -17.6517   21.6243 C.ar    1  UNL1        0.0989
     10 N         -12.1309  -17.4696   20.3827 N.ar    1  UNL1       -0.2423
     11 C         -10.6518  -17.7164   20.4194 C.ar    1  UNL1        0.0993
     12 C          -5.1970  -20.0743   20.6280 C.3     1  UNL1        0.1057
     13 C          -3.4413  -18.6250   19.3763 C.3     1  UNL1        0.0899
     14 N          -3.8176  -19.4915   20.5415 N.3     1  UNL1       -0.2661
     15 C          -2.8146  -19.7752   21.6201 C.3     1  UNL1        0.0899
@<TRIPOS>BOND
     1    13    14    1
     2    14    15    1
     3    14    12    1
     4    12     1    1
     5     1     2   ar
     6     2     3   ar
     7     3     4   ar
     8     4     6    1
     9     6     7   ar
    10     7     8   ar
    11     8     9   ar
    12     9    10   ar
    13    10    11   ar
    14     4     5   ar
    15     5     1   ar
    16    11     6   ar
@<TRIPOS>MOLECULE
*****
 15 16 0 0 0
SMALL
GASTEIGER

@<TRIPOS>ATOM
      1 C          -5.7170  -19.1473   21.5351 C.ar    1  UNL1        0.0234
      2 C          -6.1813  -19.8147   20.2744 C.ar    1  UNL1        0.0040
      3 C          -7.6517  -19.5569   20.1280 C.ar    1  UNL1        0.0067
      4 C          -8.0962  -18.7302   21.2981 C.ar    1  UNL1        0.0307
      5 S          -6.9005  -18.4771   22.1677 S.2     1  UNL1       -0.0898
      6 C          -9.4915  -18.2424   21.5537 C.ar    1  UNL1        0.0252
      7 C         -10.4976  -18.2311   20.4413 C.ar    1  UNL1        0.0036
      8 C         -11.8928  -17.7433   20.6969 C.ar    1  UNL1        0.0207
      9 C         -12.2818  -17.2666   22.0649 C.ar    1  UNL1        0.0989
     10 N         -11.2757  -17.2779   23.1773 N.ar    1  UNL1       -0.2423
     11 C          -9.8805  -17.7657   22.9217 C.ar    1  UNL1        0.0993
     12 C          -4.3154  -19.1498   22.0693 C.3     1  UNL1        0.1057
     13 C          -2.8211  -18.2491   20.1442 C.3     1  UNL1        0.0899
     14 N          -3.3158  -18.1555   21.5572 N.3     1  UNL1       -0.2661
     15 C          -2.8111  -17.0675   22.4580 C.3     1  UNL1        0.0899
@<TRIPOS>BOND
     1    13    14    1
     2    14    15    1
     3    14    12    1
     4    12     1    1
     5     1     2   ar
     6     2     3   ar
     7     3     4   ar
     8     4     6    1
     9     6     7   ar
    10     7     8   ar
    11     8     9   ar
    12     9    10   ar
    13    10    11   ar
    14     4     5   ar
    15     5     1   ar
    16    11     6   ar
