@<TRIPOS>MOLECULE
*****
 21 22 0 0 0
SMALL
GASTEIGER

@<TRIPOS>ATOM
      1 O          -7.0877  -18.3495   22.8905 O.3     1  UNL1       -0.4728
      2 C          -6.1999  -19.1406   21.9761 C.ar    1  UNL1        0.1386
      3 C          -6.7969  -20.1432   21.0336 C.ar    1  UNL1        0.0369
      4 C          -5.9092  -20.9343   20.1192 C.ar    1  UNL1        0.0031
      5 C          -4.4245  -20.7227   20.1473 C.ar    1  UNL1        0.0002
      6 C          -3.8274  -19.7200   21.0898 C.ar    1  UNL1        0.0029
      7 C          -2.3427  -19.5084   21.1179 C.ar    1  UNL1        0.0001
      8 C          -1.7457  -18.5058   22.0603 C.ar    1  UNL1        0.0000
      9 C          -2.6335  -17.7147   22.9747 C.ar    1  UNL1        0.0001
     10 C          -4.1182  -17.9263   22.9467 C.ar    1  UNL1        0.0030
     11 C          -4.7152  -18.9289   22.0042 C.ar    1  UNL1        0.0340
     12 C          -8.1511  -17.4596   22.3185 C.3     1  UNL1        0.2358
     13 C          -8.4654  -16.1484   22.9759 C.3     1  UNL1        0.1697
     14 O          -9.8632  -15.8551   23.4340 O.3     1  UNL1       -0.3793
     15 H          -9.8937  -14.9721   23.8343 H       1  UNL1        0.2106
     16 C          -7.3817  -15.1306   23.1751 C.3     1  UNL1        0.1020
     17 N          -7.2132  -14.4657   24.5091 N.3     1  UNL1       -0.2964
     18 H          -6.5155  -13.7319   24.3864 H       1  UNL1        0.1233
     19 C          -5.3449  -15.6334   25.8858 C.3     1  UNL1        0.0171
     20 C          -6.7888  -15.2719   25.7006 C.3     1  UNL1        0.0541
     21 C          -7.8083  -15.7166   26.7070 C.3     1  UNL1        0.0171
@<TRIPOS>BOND
     1    19    20    1
     2    20    21    1
     3    20    17    1
     4    17    16    1
     5    16    13    1
     6    13    14    1
     7    13    12    1
     8    12     1    1
     9     1     2    1
    10     2     3   ar
    11     3     4   ar
    12     4     5   ar
    13     5     6   ar
    14     6     7   ar
    15     7     8   ar
    16     8     9   ar
    17     9    10   ar
    18    10    11   ar
    19    11     2   ar
    20    11     6   ar
    21    17    18    1
    22    14    15    1
@<TRIPOS>MOLECULE
*****
 21 22 0 0 0
SMALL
GASTEIGER

@<TRIPOS>ATOM
      1 O          -6.5678  -18.3053   21.5911 O.3     1  UNL1       -0.4728
      2 C          -7.9197  -18.7686   21.1353 C.ar    1  UNL1        0.1386
      3 C          -8.0904  -19.3481   19.7624 C.ar    1  UNL1        0.0369
      4 C          -9.4423  -19.8114   19.3066 C.ar    1  UNL1        0.0031
      5 C         -10.6235  -19.6953   20.2238 C.ar    1  UNL1        0.0002
      6 C         -10.4528  -19.1157   21.5968 C.ar    1  UNL1        0.0029
      7 C         -11.6340  -18.9995   22.5140 C.ar    1  UNL1        0.0001
      8 C         -11.4633  -18.4200   23.8869 C.ar    1  UNL1        0.0000
      9 C         -10.1114  -17.9567   24.3427 C.ar    1  UNL1        0.0001
     10 C          -8.9302  -18.0729   23.4255 C.ar    1  UNL1        0.0030
     11 C          -9.1009  -18.6524   22.0526 C.ar    1  UNL1        0.0340
     12 C          -5.4210  -19.2709   21.6394 C.3     1  UNL1        0.2358
     13 C          -4.3387  -19.2025   20.6030 C.3     1  UNL1        0.1697
     14 O          -4.5603  -18.4287   19.3372 O.3     1  UNL1       -0.3793
     15 H          -3.7682  -18.4862   18.7803 H       1  UNL1        0.2106
     16 C          -3.0349  -19.9079   20.8324 C.3     1  UNL1        0.1020
     17 N          -1.8800  -19.1698   21.4419 N.3     1  UNL1       -0.2964
     18 H          -2.1259  -18.9906   22.4154 H       1  UNL1        0.1233
     19 C          -1.9547  -16.5729   21.4260 C.3     1  UNL1        0.0171
     20 C          -1.4351  -17.8610   20.8597 C.3     1  UNL1        0.0541
     21 C          -0.4705  -17.8403   19.7112 C.3     1  UNL1        0.0171
@<TRIPOS>BOND
     1    19    20    1
     2    20    21    1
     3    20    17    1
     4    17    16    1
     5    16    13    1
     6    13    14    1
     7    13    12    1
     8    12     1    1
     9     1     2    1
    10     2     3   ar
    11     3     4   ar
    12     4     5   ar
    13     5     6   ar
    14     6     7   ar
    15     7     8   ar
    16     8     9   ar
    17     9    10   ar
    18    10    11   ar
    19    11     2   ar
    20    11     6   ar
    21    17    18    1
    22    14    15    1
@<TRIPOS>MOLECULE
*****
 21 22 0 0 0
SMALL
GASTEIGER

@<TRIPOS>ATOM
      1 O          -8.2031  -19.9327   21.4408 O.3     1  UNL1       -0.4728
      2 C          -9.2910  -19.5909   22.4153 C.ar    1  UNL1        0.1386
      3 C          -9.2740  -20.1792   23.7950 C.ar    1  UNL1        0.0369
      4 C         -10.3619  -19.8375   24.7695 C.ar    1  UNL1        0.0031
      5 C         -11.4668  -18.9074   24.3644 C.ar    1  UNL1        0.0002
      6 C         -11.4838  -18.3191   22.9846 C.ar    1  UNL1        0.0029
      7 C         -12.5887  -17.3890   22.5795 C.ar    1  UNL1        0.0001
      8 C         -12.6057  -16.8007   21.1998 C.ar    1  UNL1        0.0000
      9 C         -11.5178  -17.1425   20.2253 C.ar    1  UNL1        0.0001
     10 C         -10.4129  -18.0725   20.6304 C.ar    1  UNL1        0.0030
     11 C         -10.3959  -18.6608   22.0101 C.ar    1  UNL1        0.0340
     12 C          -6.7727  -19.9561   21.8915 C.3     1  UNL1        0.2358
     13 C          -5.7349  -19.1820   21.1341 C.3     1  UNL1        0.1697
     14 O          -6.1192  -18.4211   19.8999 O.3     1  UNL1       -0.3793
     15 H          -5.3361  -17.9800   19.5351 H       1  UNL1        0.2106
     16 C          -4.3127  -19.1688   21.6110 C.3     1  UNL1        0.1020
     17 N          -3.5043  -17.9082   21.5242 N.3     1  UNL1       -0.2964
     18 H          -4.1641  -17.1451   21.3732 H       1  UNL1        0.1233
     19 C          -2.5068  -18.5927   19.2250 C.3     1  UNL1        0.0171
     20 C          -2.4377  -17.7717   20.4785 C.3     1  UNL1        0.0541
     21 C          -1.3019  -16.8143   20.6862 C.3     1  UNL1        0.0171
@<TRIPOS>BOND
     1    19    20    1
     2    20    21    1
     3    20    17    1
     4    17    16    1
     5    16    13    1
     6    13    14    1
     7    13    12    1
     8    12     1    1
     9     1     2    1
    10     2     3   ar
    11     3     4   ar
    12     4     5   ar
    13     5     6   ar
    14     6     7   ar
    15     7     8   ar
    16     8     9   ar
    17     9    10   ar
    18    10    11   ar
    19    11     2   ar
    20    11     6   ar
    21    17    18    1
    22    14    15    1
@<TRIPOS>MOLECULE
*****
 21 22 0 0 0
SMALL
GASTEIGER

@<TRIPOS>ATOM
      1 O          -7.2493  -18.1631   22.8541 O.3     1  UNL1       -0.4728
      2 C          -6.3788  -19.0048   21.9688 C.ar    1  UNL1        0.1386
      3 C          -7.0001  -19.9923   21.0260 C.ar    1  UNL1        0.0369
      4 C          -6.1296  -20.8340   20.1407 C.ar    1  UNL1        0.0031
      5 C          -4.6378  -20.6882   20.1981 C.ar    1  UNL1        0.0002
      6 C          -4.0165  -19.7006   21.1409 C.ar    1  UNL1        0.0029
      7 C          -2.5247  -19.5548   21.1983 C.ar    1  UNL1        0.0001
      8 C          -1.9035  -18.5673   22.1410 C.ar    1  UNL1        0.0000
      9 C          -2.7740  -17.7256   23.0263 C.ar    1  UNL1        0.0001
     10 C          -4.2657  -17.8714   22.9689 C.ar    1  UNL1        0.0030
     11 C          -4.8870  -18.8589   22.0262 C.ar    1  UNL1        0.0340
     12 C          -7.8352  -16.8844   22.3330 C.3     1  UNL1        0.2358
     13 C          -9.3240  -16.7102   22.2754 C.3     1  UNL1        0.1697
     14 O          -9.9791  -16.2726   20.9990 O.3     1  UNL1       -0.3793
     15 H         -10.9378  -16.2097   21.1327 H       1  UNL1        0.2106
     16 C         -10.1576  -16.9737   23.4944 C.3     1  UNL1        0.1020
     17 N         -11.0398  -18.1854   23.5521 N.3     1  UNL1       -0.2964
     18 H         -11.2817  -18.3271   24.5328 H       1  UNL1        0.1233
     19 C         -10.9315  -19.9654   21.6626 C.3     1  UNL1        0.0171
     20 C         -10.5406  -19.5019   23.0346 C.3     1  UNL1        0.0541
     21 C          -9.6506  -20.3548   23.8892 C.3     1  UNL1        0.0171
@<TRIPOS>BOND
     1    19    20    1
     2    20    21    1
     3    20    17    1
     4    17    16    1
     5    16    13    1
     6    13    14    1
     7    13    12    1
     8    12     1    1
     9     1     2    1
    10     2     3   ar
    11     3     4   ar
    12     4     5   ar
    13     5     6   ar
    14     6     7   ar
    15     7     8   ar
    16     8     9   ar
    17     9    10   ar
    18    10    11   ar
    19    11     2   ar
    20    11     6   ar
    21    17    18    1
    22    14    15    1
@<TRIPOS>MOLECULE
*****
 21 22 0 0 0
SMALL
GASTEIGER

@<TRIPOS>ATOM
      1 O          -7.0430  -18.2121   20.9260 O.3     1  UNL1       -0.4728
      2 C          -7.8999  -17.5847   21.9854 C.ar    1  UNL1        0.1386
      3 C          -7.2627  -16.8564   23.1314 C.ar    1  UNL1        0.0369
      4 C          -8.1195  -16.2290   24.1908 C.ar    1  UNL1        0.0031
      5 C          -9.6136  -16.3300   24.1040 C.ar    1  UNL1        0.0002
      6 C         -10.2509  -17.0583   22.9579 C.ar    1  UNL1        0.0029
      7 C         -11.7449  -17.1592   22.8712 C.ar    1  UNL1        0.0001
      8 C         -12.3821  -17.8875   21.7252 C.ar    1  UNL1        0.0000
      9 C         -11.5253  -18.5149   20.6658 C.ar    1  UNL1        0.0001
     10 C         -10.0312  -18.4140   20.7526 C.ar    1  UNL1        0.0030
     11 C          -9.3940  -17.6857   21.8986 C.ar    1  UNL1        0.0340
     12 C          -5.8639  -19.0532   21.3159 C.3     1  UNL1        0.2358
     13 C          -4.6341  -19.0649   20.4571 C.3     1  UNL1        0.1697
     14 O          -4.6112  -18.2957   19.1696 O.3     1  UNL1       -0.3793
     15 H          -3.7486  -18.4089   18.7407 H       1  UNL1        0.2106
     16 C          -3.4273  -19.8458   20.8859 C.3     1  UNL1        0.1020
     17 N          -2.2966  -19.1537   21.5877 N.3     1  UNL1       -0.2964
     18 H          -2.6316  -18.9147   22.5210 H       1  UNL1        0.1233
     19 C          -0.7454  -17.9915   19.8577 C.3     1  UNL1        0.0171
     20 C          -1.7061  -17.9034   21.0063 C.3     1  UNL1        0.0541
     21 C          -2.0762  -16.5651   21.5736 C.3     1  UNL1        0.0171
@<TRIPOS>BOND
     1    19    20    1
     2    20    21    1
     3    20    17    1
     4    17    16    1
     5    16    13    1
     6    13    14    1
     7    13    12    1
     8    12     1    1
     9     1     2    1
    10     2     3   ar
    11     3     4   ar
    12     4     5   ar
    13     5     6   ar
    14     6     7   ar
    15     7     8   ar
    16     8     9   ar
    17     9    10   ar
    18    10    11   ar
    19    11     2   ar
    20    11     6   ar
    21    17    18    1
    22    14    15    1
@<TRIPOS>MOLECULE
*****
 21 22 0 0 0
SMALL
GASTEIGER

@<TRIPOS>ATOM
      1 O          -7.0141  -17.9487   22.8658 O.3     1  UNL1       -0.4728
      2 C          -6.2267  -18.8703   21.9822 C.ar    1  UNL1        0.1386
      3 C          -6.9381  -19.8476   21.0943 C.ar    1  UNL1        0.0369
      4 C          -6.1507  -20.7692   20.2107 C.ar    1  UNL1        0.0031
      5 C          -4.6517  -20.7134   20.2152 C.ar    1  UNL1        0.0002
      6 C          -3.9402  -19.7360   21.1032 C.ar    1  UNL1        0.0029
      7 C          -2.4413  -19.6802   21.1076 C.ar    1  UNL1        0.0001
      8 C          -1.7298  -18.7029   21.9956 C.ar    1  UNL1        0.0000
      9 C          -2.5173  -17.7813   22.8792 C.ar    1  UNL1        0.0001
     10 C          -4.0162  -17.8371   22.8747 C.ar    1  UNL1        0.0030
     11 C          -4.7277  -18.8145   21.9867 C.ar    1  UNL1        0.0340
     12 C          -8.4931  -17.7995   22.6652 C.3     1  UNL1        0.2358
     13 C          -9.1646  -16.4953   22.9786 C.3     1  UNL1        0.1697
     14 O          -8.3426  -15.2551   23.1686 O.3     1  UNL1       -0.3793
     15 H          -8.9276  -14.5062   23.3632 H       1  UNL1        0.2106
     16 C         -10.6582  -16.4314   23.1019 C.3     1  UNL1        0.1020
     17 N         -11.4761  -15.8213   22.0024 N.3     1  UNL1       -0.2964
     18 H         -12.4211  -15.7048   22.3683 H       1  UNL1        0.1233
     19 C         -11.6691  -18.0239   20.6381 C.3     1  UNL1        0.0171
     20 C         -11.6058  -16.5259   20.6846 C.3     1  UNL1        0.0541
     21 C         -11.6721  -15.7327   19.4133 C.3     1  UNL1        0.0171
@<TRIPOS>BOND
     1    19    20    1
     2    20    21    1
     3    20    17    1
     4    17    16    1
     5    16    13    1
     6    13    14    1
     7    13    12    1
     8    12     1    1
     9     1     2    1
    10     2     3   ar
    11     3     4   ar
    12     4     5   ar
    13     5     6   ar
    14     6     7   ar
    15     7     8   ar
    16     8     9   ar
    17     9    10   ar
    18    10    11   ar
    19    11     2   ar
    20    11     6   ar
    21    17    18    1
    22    14    15    1
@<TRIPOS>MOLECULE
*****
 21 22 0 0 0
SMALL
GASTEIGER

@<TRIPOS>ATOM
      1 O          -8.6556  -18.5824   20.4705 O.3     1  UNL1       -0.4728
      2 C          -9.1819  -18.6157   21.8748 C.ar    1  UNL1        0.1386
      3 C         -10.0691  -19.7415   22.3167 C.ar    1  UNL1        0.0369
      4 C         -10.5954  -19.7748   23.7209 C.ar    1  UNL1        0.0031
      5 C         -10.2345  -18.6824   24.6833 C.ar    1  UNL1        0.0002
      6 C          -9.3472  -17.5565   24.2414 C.ar    1  UNL1        0.0029
      7 C          -8.9863  -16.4640   25.2038 C.ar    1  UNL1        0.0001
      8 C          -8.0990  -15.3382   24.7619 C.ar    1  UNL1        0.0000
      9 C          -7.5727  -15.3048   23.3576 C.ar    1  UNL1        0.0001
     10 C          -7.9337  -16.3973   22.3953 C.ar    1  UNL1        0.0030
     11 C          -8.8209  -17.5231   22.8372 C.ar    1  UNL1        0.0340
     12 C          -7.5145  -19.4723   20.0759 C.3     1  UNL1        0.2358
     13 C          -6.1194  -19.1439   20.5186 C.3     1  UNL1        0.1697
     14 O          -5.1720  -18.4677   19.5725 O.3     1  UNL1       -0.3793
     15 H          -4.3192  -18.3288   20.0133 H       1  UNL1        0.2106
     16 C          -5.6718  -19.4919   21.9074 C.3     1  UNL1        0.1020
     17 N          -4.2246  -19.3683   22.2819 N.3     1  UNL1       -0.2964
     18 H          -4.0714  -19.9915   23.0747 H       1  UNL1        0.1233
     19 C          -4.4149  -17.1430   23.6090 C.3     1  UNL1        0.0171
     20 C          -3.6606  -18.0325   22.6658 C.3     1  UNL1        0.0541
     21 C          -2.3423  -17.5862   22.1065 C.3     1  UNL1        0.0171
@<TRIPOS>BOND
     1    19    20    1
     2    20    21    1
     3    20    17    1
     4    17    16    1
     5    16    13    1
     6    13    14    1
     7    13    12    1
     8    12     1    1
     9     1     2    1
    10     2     3   ar
    11     3     4   ar
    12     4     5   ar
    13     5     6   ar
    14     6     7   ar
    15     7     8   ar
    16     8     9   ar
    17     9    10   ar
    18    10    11   ar
    19    11     2   ar
    20    11     6   ar
    21    17    18    1
    22    14    15    1
@<TRIPOS>MOLECULE
*****
 21 22 0 0 0
SMALL
GASTEIGER

@<TRIPOS>ATOM
      1 O          -5.5028  -18.6379   21.3891 O.3     1  UNL1       -0.4728
      2 C          -6.8767  -18.2400   21.8407 C.ar    1  UNL1        0.1386
      3 C          -7.0476  -17.3995   23.0713 C.ar    1  UNL1        0.0369
      4 C          -8.4216  -17.0017   23.5229 C.ar    1  UNL1        0.0031
      5 C          -9.6246  -17.4444   22.7441 C.ar    1  UNL1        0.0002
      6 C          -9.4537  -18.2850   21.5135 C.ar    1  UNL1        0.0029
      7 C         -10.6568  -18.7277   20.7346 C.ar    1  UNL1        0.0001
      8 C         -10.4859  -19.5682   19.5041 C.ar    1  UNL1        0.0000
      9 C          -9.1119  -19.9661   19.0524 C.ar    1  UNL1        0.0001
     10 C          -7.9089  -19.5233   19.8313 C.ar    1  UNL1        0.0030
     11 C          -8.0798  -18.6828   21.0618 C.ar    1  UNL1        0.0340
     12 C          -4.5015  -19.1401   22.3866 C.3     1  UNL1        0.2358
     13 C          -3.0341  -18.9640   22.1301 C.3     1  UNL1        0.1697
     14 O          -2.1882  -20.1490   21.7693 O.3     1  UNL1       -0.3793
     15 H          -1.2706  -19.8632   21.6380 H       1  UNL1        0.2106
     16 C          -2.4126  -17.6027   22.2345 C.3     1  UNL1        0.1020
     17 N          -2.1988  -16.7792   20.9992 N.3     1  UNL1       -0.2964
     18 H          -3.1234  -16.5437   20.6386 H       1  UNL1        0.1233
     19 C           0.0479  -17.6280   20.0082 C.3     1  UNL1        0.0171
     20 C          -1.4158  -17.3408   19.8496 C.3     1  UNL1        0.0541
     21 C          -2.0965  -17.6151   18.5415 C.3     1  UNL1        0.0171
@<TRIPOS>BOND
     1    19    20    1
     2    20    21    1
     3    20    17    1
     4    17    16    1
     5    16    13    1
     6    13    14    1
     7    13    12    1
     8    12     1    1
     9     1     2    1
    10     2     3   ar
    11     3     4   ar
    12     4     5   ar
    13     5     6   ar
    14     6     7   ar
    15     7     8   ar
    16     8     9   ar
    17     9    10   ar
    18    10    11   ar
    19    11     2   ar
    20    11     6   ar
    21    17    18    1
    22    14    15    1
@<TRIPOS>MOLECULE
*****
 21 22 0 0 0
SMALL
GASTEIGER

@<TRIPOS>ATOM
      1 O          -7.8855  -17.4985   23.6031 O.3     1  UNL1       -0.4728
      2 C          -9.1864  -17.6914   22.8817 C.ar    1  UNL1        0.1386
      3 C         -10.4566  -17.1506   23.4682 C.ar    1  UNL1        0.0369
      4 C         -11.7575  -17.3436   22.7468 C.ar    1  UNL1        0.0031
      5 C         -11.7882  -18.0773   21.4389 C.ar    1  UNL1        0.0002
      6 C         -10.5179  -18.6181   20.8523 C.ar    1  UNL1        0.0029
      7 C         -10.5486  -19.3518   19.5444 C.ar    1  UNL1        0.0001
      8 C          -9.2784  -19.8926   18.9579 C.ar    1  UNL1        0.0000
      9 C          -7.9775  -19.6997   19.6793 C.ar    1  UNL1        0.0001
     10 C          -7.9468  -18.9660   20.9872 C.ar    1  UNL1        0.0030
     11 C          -9.2170  -18.4252   21.5737 C.ar    1  UNL1        0.0340
     12 C          -7.0443  -16.2888   23.3221 C.3     1  UNL1        0.2358
     13 C          -6.8767  -15.2313   24.3727 C.3     1  UNL1        0.1697
     14 O          -7.6817  -13.9678   24.3001 O.3     1  UNL1       -0.3793
     15 H          -7.4539  -13.3957   25.0496 H       1  UNL1        0.2106
     16 C          -5.9040  -15.4375   25.4959 C.3     1  UNL1        0.1020
     17 N          -6.3940  -15.8943   26.8380 N.3     1  UNL1       -0.2964
     18 H          -6.0458  -16.8437   26.9711 H       1  UNL1        0.1233
     19 C          -8.5403  -14.7286   27.7239 C.3     1  UNL1        0.0171
     20 C          -7.8654  -15.9281   27.1275 C.3     1  UNL1        0.0541
     21 C          -8.6619  -17.1615   26.8206 C.3     1  UNL1        0.0171
@<TRIPOS>BOND
     1    19    20    1
     2    20    21    1
     3    20    17    1
     4    17    16    1
     5    16    13    1
     6    13    14    1
     7    13    12    1
     8    12     1    1
     9     1     2    1
    10     2     3   ar
    11     3     4   ar
    12     4     5   ar
    13     5     6   ar
    14     6     7   ar
    15     7     8   ar
    16     8     9   ar
    17     9    10   ar
    18    10    11   ar
    19    11     2   ar
    20    11     6   ar
    21    17    18    1
    22    14    15    1
