@<TRIPOS>MOLECULE
*****
 35 38 0 0 0
SMALL
GASTEIGER

@<TRIPOS>ATOM
      1 N           6.3274   -2.1341   22.6786 N.am    1  UNL1       -0.2438
      2 C           5.6268   -0.8504   22.3452 C.3     1  UNL1        0.1009
      3 C           4.5633   -0.8291   21.2876 C.3     1  UNL1        0.0662
      4 C           4.2005   -2.0915   20.5633 C.3     1  UNL1        0.1600
      5 O           4.9011   -3.3753   20.8966 O.3     1  UNL1       -0.4374
      6 C           5.9646   -3.3966   21.9543 C.2     1  UNL1        0.4051
      7 O           6.6652   -4.6803   22.2877 O.2     1  UNL1       -0.2262
      8 C           3.2605   -1.1302   19.8981 C.ar    1  UNL1        0.0138
      9 C           1.8399   -1.0241   20.3678 C.ar    1  UNL1       -0.0010
     10 C           0.8998   -0.0629   19.7027 C.ar    1  UNL1       -0.0002
     11 C           1.3805    0.7922   18.5679 C.ar    1  UNL1       -0.0000
     12 C           2.8011    0.6862   18.0982 C.ar    1  UNL1       -0.0002
     13 C           3.7412   -0.2751   18.7634 C.ar    1  UNL1       -0.0010
     14 C           8.8383   -2.1852   23.3439 C.3     1  UNL1        0.0265
     15 C           7.3909   -2.1554   23.7362 C.3     1  UNL1        0.1011
     16 C           7.0068   -2.1469   25.1863 C.ar    1  UNL1       -0.0042
     17 C           6.8261   -3.4416   25.9219 C.ar    1  UNL1       -0.0026
     18 C           6.4421   -3.4330   27.3718 C.ar    1  UNL1        0.0013
     19 C           6.2387   -2.1298   28.0862 C.ar    1  UNL1        0.0193
     20 C           6.4193   -0.8352   27.3506 C.ar    1  UNL1        0.0013
     21 C           6.8034   -0.8437   25.9006 C.ar    1  UNL1       -0.0026
     22 C           5.8546   -2.1213   29.5362 C.ar    1  UNL1        0.1011
     23 C           6.5001   -3.0837   30.4887 C.ar    1  UNL1        0.0258
     24 C           6.1160   -3.0752   31.9387 C.ar    1  UNL1        0.0638
     25 C           5.0865   -2.1043   32.4361 C.ar    1  UNL1        0.2765
     26 O           4.7024   -2.0958   33.8861 O.2     1  UNL1       -0.2655
     27 N           4.4410   -1.1420   31.4836 N.ar    1  UNL1       -0.2146
     28 C           3.4114   -0.1711   31.9810 C.3     1  UNL1        0.1571
     29 N           4.8250   -1.1505   30.0336 N.ar    1  UNL1       -0.1668
     30 C           3.5112   -3.0201   19.6080 C.3     1  UNL1        0.0714
     31 C           4.2395   -4.2138   19.0651 C.3     1  UNL1        0.0922
     32 C           5.1744   -3.3057   18.3226 C.3     1  UNL1        0.0294
     33 C           3.3046   -5.1218   19.8076 C.3     1  UNL1        0.0294
     34 O           4.9678   -5.4074   18.5223 O.3     1  UNL1       -0.3866
     35 H           5.6948   -5.1110   17.9526 H       1  UNL1        0.2102
@<TRIPOS>BOND
     1    15    14    1
     2    15    16    1
     3    16    17   ar
     4    17    18   ar
     5    18    19   ar
     6    19    22    1
     7    22    23   ar
     8    23    24   ar
     9    24    25   ar
    10    25    26    2
    11    25    27   ar
    12    27    28    1
    13    27    29   ar
    14    19    20   ar
    15    20    21   ar
    16    15     1    1
    17     1     2    1
    18     2     3    1
    19     3     4    1
    20     4    30    1
    21    30    31    1
    22    31    32    1
    23    31    33    1
    24    31    34    1
    25     4     8    1
    26     8     9   ar
    27     9    10   ar
    28    10    11   ar
    29    11    12   ar
    30    12    13   ar
    31     4     5    1
    32     5     6    1
    33     6     7    2
    34    21    16   ar
    35     6     1   am
    36    29    22   ar
    37    13     8   ar
    38    34    35    1
@<TRIPOS>MOLECULE
*****
 35 38 0 0 0
SMALL
GASTEIGER

@<TRIPOS>ATOM
      1 N           1.2073    1.5127   19.4557 N.am    1  UNL1       -0.2438
      2 C           0.9150    0.0721   19.7542 C.3     1  UNL1        0.1009
      3 C           2.0415   -0.9082   19.8949 C.3     1  UNL1        0.0662
      4 C           3.4604   -0.4480   19.7371 C.3     1  UNL1        0.1600
      5 O           3.7528    0.9927   19.4385 O.3     1  UNL1       -0.4374
      6 C           2.6262    1.9730   19.2978 C.2     1  UNL1        0.4051
      7 O           2.9185    3.4136   18.9992 O.2     1  UNL1       -0.2262
      8 C           3.6883   -1.9045   20.0142 C.ar    1  UNL1        0.0138
      9 C           4.2916   -2.3342   21.3186 C.ar    1  UNL1       -0.0010
     10 C           4.5195   -3.7907   21.5958 C.ar    1  UNL1       -0.0002
     11 C           4.1442   -4.8173   20.5686 C.ar    1  UNL1       -0.0000
     12 C           3.5410   -4.3875   19.2642 C.ar    1  UNL1       -0.0002
     13 C           3.3130   -2.9310   18.9870 C.ar    1  UNL1       -0.0010
     14 C          -0.2365    3.0835   17.9731 C.3     1  UNL1        0.0265
     15 C           0.0807    2.4931   19.3150 C.3     1  UNL1        0.1011
     16 C          -0.7286    2.8830   20.5163 C.ar    1  UNL1       -0.0042
     17 C          -2.1767    3.2418   20.3607 C.ar    1  UNL1       -0.0026
     18 C          -2.9859    3.6317   21.5620 C.ar    1  UNL1        0.0013
     19 C          -2.3471    3.6628   22.9188 C.ar    1  UNL1        0.0193
     20 C          -0.8990    3.3040   23.0743 C.ar    1  UNL1        0.0013
     21 C          -0.0897    2.9141   21.8731 C.ar    1  UNL1       -0.0026
     22 C          -3.1564    4.0527   24.1201 C.ar    1  UNL1        0.1011
     23 C          -2.6995    3.6570   25.4928 C.ar    1  UNL1        0.0258
     24 C          -3.5088    4.0470   26.6941 C.ar    1  UNL1        0.0638
     25 C          -4.7750    4.8326   26.5225 C.ar    1  UNL1        0.2765
     26 O          -5.5844    5.2225   27.7237 O.2     1  UNL1       -0.2655
     27 N          -5.2319    5.2283   25.1497 N.ar    1  UNL1       -0.2146
     28 C          -6.4982    6.0139   24.9781 C.3     1  UNL1        0.1571
     29 N          -4.4226    4.8384   23.9485 N.ar    1  UNL1       -0.1668
     30 C           4.9585   -0.4935   19.6755 C.3     1  UNL1        0.0714
     31 C           5.7020    0.4606   18.7885 C.3     1  UNL1        0.0922
     32 C           5.1383   -0.2244   17.5789 C.3     1  UNL1        0.0294
     33 C           6.2657    1.1456   19.9980 C.3     1  UNL1        0.0294
     34 O           6.4455    1.4147   17.9015 O.3     1  UNL1       -0.3866
     35 H           6.2620    1.2027   16.9729 H       1  UNL1        0.2102
@<TRIPOS>BOND
     1    15    14    1
     2    15    16    1
     3    16    17   ar
     4    17    18   ar
     5    18    19   ar
     6    19    22    1
     7    22    23   ar
     8    23    24   ar
     9    24    25   ar
    10    25    26    2
    11    25    27   ar
    12    27    28    1
    13    27    29   ar
    14    19    20   ar
    15    20    21   ar
    16    15     1    1
    17     1     2    1
    18     2     3    1
    19     3     4    1
    20     4    30    1
    21    30    31    1
    22    31    32    1
    23    31    33    1
    24    31    34    1
    25     4     8    1
    26     8     9   ar
    27     9    10   ar
    28    10    11   ar
    29    11    12   ar
    30    12    13   ar
    31     4     5    1
    32     5     6    1
    33     6     7    2
    34    21    16   ar
    35     6     1   am
    36    29    22   ar
    37    13     8   ar
    38    34    35    1
@<TRIPOS>MOLECULE
*****
 35 38 0 0 0
SMALL
GASTEIGER

@<TRIPOS>ATOM
      1 N           3.0339    0.9356   23.2897 N.am    1  UNL1       -0.2438
      2 C           2.9831   -0.5486   23.0786 C.3     1  UNL1        0.1009
      3 C           3.5360   -1.1464   21.8189 C.3     1  UNL1        0.0662
      4 C           4.1397   -0.2599   20.7702 C.3     1  UNL1        0.1600
      5 O           4.1906    1.2243   20.9813 O.3     1  UNL1       -0.4374
      6 C           3.6376    1.8221   22.2410 C.2     1  UNL1        0.4051
      7 O           3.6884    3.3062   22.4521 O.2     1  UNL1       -0.2262
      8 C           4.3204   -1.5976   20.1160 C.ar    1  UNL1        0.0138
      9 C           5.6913   -2.0595   19.7194 C.ar    1  UNL1       -0.0010
     10 C           5.8720   -3.3972   19.0652 C.ar    1  UNL1       -0.0002
     11 C           4.6818   -4.2729   18.8076 C.ar    1  UNL1       -0.0000
     12 C           3.3108   -3.8111   19.2042 C.ar    1  UNL1       -0.0002
     13 C           3.1302   -2.4734   19.8584 C.ar    1  UNL1       -0.0010
     14 C           3.3399    1.6255   25.7757 C.3     1  UNL1        0.0265
     15 C           2.4810    1.5333   24.5495 C.3     1  UNL1        0.1011
     16 C           1.0691    2.0388   24.5829 C.ar    1  UNL1       -0.0042
     17 C           0.2627    1.9288   25.8429 C.ar    1  UNL1       -0.0026
     18 C          -1.1491    2.4343   25.8764 C.ar    1  UNL1        0.0013
     19 C          -1.7546    3.0498   24.6498 C.ar    1  UNL1        0.0193
     20 C          -0.9483    3.1598   23.3897 C.ar    1  UNL1        0.0013
     21 C           0.4636    2.6543   23.3563 C.ar    1  UNL1       -0.0026
     22 C          -3.1665    3.5553   24.6832 C.ar    1  UNL1        0.1011
     23 C          -3.7721    4.0036   25.9802 C.ar    1  UNL1        0.0258
     24 C          -5.1840    4.5091   26.0137 C.ar    1  UNL1        0.0638
     25 C          -5.9903    4.5663   24.7501 C.ar    1  UNL1        0.2765
     26 O          -7.4021    5.0718   24.7835 O.2     1  UNL1       -0.2655
     27 N          -5.3846    4.1180   23.4530 N.ar    1  UNL1       -0.2146
     28 C          -6.1909    4.1751   22.1894 C.3     1  UNL1        0.1571
     29 N          -3.9728    3.6125   23.4196 N.ar    1  UNL1       -0.1668
     30 C           4.8062    0.1620   19.4943 C.3     1  UNL1        0.0714
     31 C           4.4054    1.4442   18.8272 C.3     1  UNL1        0.0922
     32 C           3.0433    0.8775   18.5562 C.3     1  UNL1        0.0294
     33 C           5.7675    2.0110   19.0982 C.3     1  UNL1        0.0294
     34 O           4.0045    2.7265   18.1600 O.3     1  UNL1       -0.3866
     35 H           3.0876    2.6573   17.8510 H       1  UNL1        0.2102
@<TRIPOS>BOND
     1    15    14    1
     2    15    16    1
     3    16    17   ar
     4    17    18   ar
     5    18    19   ar
     6    19    22    1
     7    22    23   ar
     8    23    24   ar
     9    24    25   ar
    10    25    26    2
    11    25    27   ar
    12    27    28    1
    13    27    29   ar
    14    19    20   ar
    15    20    21   ar
    16    15     1    1
    17     1     2    1
    18     2     3    1
    19     3     4    1
    20     4    30    1
    21    30    31    1
    22    31    32    1
    23    31    33    1
    24    31    34    1
    25     4     8    1
    26     8     9   ar
    27     9    10   ar
    28    10    11   ar
    29    11    12   ar
    30    12    13   ar
    31     4     5    1
    32     5     6    1
    33     6     7    2
    34    21    16   ar
    35     6     1   am
    36    29    22   ar
    37    13     8   ar
    38    34    35    1
@<TRIPOS>MOLECULE
*****
 35 38 0 0 0
SMALL
GASTEIGER

@<TRIPOS>ATOM
      1 N          -1.0347    3.9324   19.4711 N.am    1  UNL1       -0.2438
      2 C          -1.0478    4.1403   20.9565 C.3     1  UNL1        0.1009
      3 C          -2.3526    4.2871   21.6818 C.3     1  UNL1        0.0662
      4 C          -3.6443    4.2260   20.9217 C.3     1  UNL1        0.1600
      5 O          -3.6312    4.0180   19.4362 O.3     1  UNL1       -0.4374
      6 C          -2.3264    3.8712   18.7109 C.2     1  UNL1        0.4051
      7 O          -2.3133    3.6633   17.2254 O.2     1  UNL1       -0.2262
      8 C          -4.1693    4.4383   22.3107 C.ar    1  UNL1        0.0138
      9 C          -4.8877    3.3281   23.0187 C.ar    1  UNL1       -0.0010
     10 C          -5.4128    3.5404   24.4078 C.ar    1  UNL1       -0.0002
     11 C          -5.2193    4.8629   25.0886 C.ar    1  UNL1       -0.0000
     12 C          -4.5008    5.9731   24.3806 C.ar    1  UNL1       -0.0002
     13 C          -3.9758    5.7608   22.9916 C.ar    1  UNL1       -0.0010
     14 C           0.7580    4.8852   17.8500 C.3     1  UNL1        0.0265
     15 C           0.2700    3.7856   18.7458 C.3     1  UNL1        0.1011
     16 C           1.0868    2.5390   18.9164 C.ar    1  UNL1       -0.0042
     17 C           2.5450    2.5438   18.5647 C.ar    1  UNL1       -0.0026
     18 C           3.3617    1.2973   18.7353 C.ar    1  UNL1        0.0013
     19 C           2.7203    0.0460   19.2576 C.ar    1  UNL1        0.0193
     20 C           1.2621    0.0412   19.6093 C.ar    1  UNL1        0.0013
     21 C           0.4454    1.2877   19.4387 C.ar    1  UNL1       -0.0026
     22 C           3.5371   -1.2005   19.4282 C.ar    1  UNL1        0.1011
     23 C           4.2245   -1.8145   18.2448 C.ar    1  UNL1        0.0258
     24 C           5.0413   -3.0611   18.4154 C.ar    1  UNL1        0.0638
     25 C           5.1706   -3.6936   19.7694 C.ar    1  UNL1        0.2765
     26 O           5.9874   -4.9400   19.9400 O.2     1  UNL1       -0.2655
     27 N           4.4831   -3.0795   20.9528 N.ar    1  UNL1       -0.2146
     28 C           4.6124   -3.7120   22.3068 C.3     1  UNL1        0.1571
     29 N           3.6664   -1.8330   20.7822 N.ar    1  UNL1       -0.1668
     30 C          -5.1183    4.2386   20.6439 C.3     1  UNL1        0.0714
     31 C          -5.6275    4.7197   19.3176 C.3     1  UNL1        0.0922
     32 C          -5.1785    6.1118   19.6502 C.3     1  UNL1        0.0294
     33 C          -6.0764    3.3277   18.9850 C.3     1  UNL1        0.0294
     34 O          -6.1366    5.2010   17.9913 O.3     1  UNL1       -0.3866
     35 H          -5.9726    6.1534   17.9083 H       1  UNL1        0.2102
@<TRIPOS>BOND
     1    15    14    1
     2    15    16    1
     3    16    17   ar
     4    17    18   ar
     5    18    19   ar
     6    19    22    1
     7    22    23   ar
     8    23    24   ar
     9    24    25   ar
    10    25    26    2
    11    25    27   ar
    12    27    28    1
    13    27    29   ar
    14    19    20   ar
    15    20    21   ar
    16    15     1    1
    17     1     2    1
    18     2     3    1
    19     3     4    1
    20     4    30    1
    21    30    31    1
    22    31    32    1
    23    31    33    1
    24    31    34    1
    25     4     8    1
    26     8     9   ar
    27     9    10   ar
    28    10    11   ar
    29    11    12   ar
    30    12    13   ar
    31     4     5    1
    32     5     6    1
    33     6     7    2
    34    21    16   ar
    35     6     1   am
    36    29    22   ar
    37    13     8   ar
    38    34    35    1
@<TRIPOS>MOLECULE
*****
 35 38 0 0 0
SMALL
GASTEIGER

@<TRIPOS>ATOM
      1 N          -1.9908    4.2688   19.6723 N.am    1  UNL1       -0.2438
      2 C          -2.2012    4.7041   21.0922 C.3     1  UNL1        0.1009
      3 C          -3.5926    4.8679   21.6281 C.3     1  UNL1        0.0662
      4 C          -4.7736    4.5964   20.7441 C.3     1  UNL1        0.1600
      5 O          -4.5632    4.1611   19.3241 O.3     1  UNL1       -0.4374
      6 C          -3.1718    3.9973   18.7882 C.2     1  UNL1        0.4051
      7 O          -2.9613    3.5620   17.3683 O.2     1  UNL1       -0.2262
      8 C          -5.4793    4.9842   22.0097 C.ar    1  UNL1        0.0138
      9 C          -6.5847    4.1236   22.5458 C.ar    1  UNL1       -0.0010
     10 C          -7.2904    4.5114   23.8114 C.ar    1  UNL1       -0.0002
     11 C          -6.8907    5.7597   24.5407 C.ar    1  UNL1       -0.0000
     12 C          -5.7852    6.6203   24.0046 C.ar    1  UNL1       -0.0002
     13 C          -5.0795    6.2325   22.7390 C.ar    1  UNL1       -0.0010
     14 C          -0.0191    5.1460   18.2255 C.3     1  UNL1        0.0265
     15 C          -0.5994    4.1051   19.1364 C.3     1  UNL1        0.1011
     16 C           0.2118    2.9003   19.5115 C.ar    1  UNL1       -0.0042
     17 C           0.6751    2.7190   20.9266 C.ar    1  UNL1       -0.0026
     18 C           1.4862    1.5143   21.3016 C.ar    1  UNL1        0.0013
     19 C           1.8341    0.4909   20.2616 C.ar    1  UNL1        0.0193
     20 C           1.3708    0.6722   18.8465 C.ar    1  UNL1        0.0013
     21 C           0.5597    1.8769   18.4715 C.ar    1  UNL1       -0.0026
     22 C           2.6453   -0.7139   20.6367 C.ar    1  UNL1        0.1011
     23 C           3.1410   -0.8760   22.0430 C.ar    1  UNL1        0.0258
     24 C           3.9522   -2.0808   22.4181 C.ar    1  UNL1        0.0638
     25 C           4.2676   -3.1233   21.3868 C.ar    1  UNL1        0.2765
     26 O           5.0787   -4.3280   21.7618 O.2     1  UNL1       -0.2655
     27 N           3.7718   -2.9611   19.9804 N.ar    1  UNL1       -0.2146
     28 C           4.0872   -4.0037   18.9491 C.3     1  UNL1        0.1571
     29 N           2.9606   -1.7564   19.6054 N.ar    1  UNL1       -0.1668
     30 C          -6.1997    4.4596   20.2995 C.3     1  UNL1        0.0714
     31 C          -6.5699    4.7336   18.8720 C.3     1  UNL1        0.0922
     32 C          -6.8045    3.2685   18.6516 C.3     1  UNL1        0.0294
     33 C          -6.3353    6.1986   19.0924 C.3     1  UNL1        0.0294
     34 O          -6.9401    5.0075   17.4445 O.3     1  UNL1       -0.3866
     35 H          -7.1629    4.1733   17.0025 H       1  UNL1        0.2102
@<TRIPOS>BOND
     1    15    14    1
     2    15    16    1
     3    16    17   ar
     4    17    18   ar
     5    18    19   ar
     6    19    22    1
     7    22    23   ar
     8    23    24   ar
     9    24    25   ar
    10    25    26    2
    11    25    27   ar
    12    27    28    1
    13    27    29   ar
    14    19    20   ar
    15    20    21   ar
    16    15     1    1
    17     1     2    1
    18     2     3    1
    19     3     4    1
    20     4    30    1
    21    30    31    1
    22    31    32    1
    23    31    33    1
    24    31    34    1
    25     4     8    1
    26     8     9   ar
    27     9    10   ar
    28    10    11   ar
    29    11    12   ar
    30    12    13   ar
    31     4     5    1
    32     5     6    1
    33     6     7    2
    34    21    16   ar
    35     6     1   am
    36    29    22   ar
    37    13     8   ar
    38    34    35    1
@<TRIPOS>MOLECULE
*****
 35 38 0 0 0
SMALL
GASTEIGER

@<TRIPOS>ATOM
      1 N           4.3594    3.0178   35.1468 N.am    1  UNL1       -0.2438
      2 C           5.4256    3.4707   36.0997 C.3     1  UNL1        0.1009
      3 C           5.1272    3.5717   37.5662 C.3     1  UNL1        0.0662
      4 C           3.7625    3.2198   38.0799 C.3     1  UNL1        0.1600
      5 O           2.6962    2.7668   37.1270 O.3     1  UNL1       -0.4374
      6 C           2.9947    2.6659   35.6605 C.2     1  UNL1        0.4051
      7 O           1.9285    2.2129   34.7076 O.2     1  UNL1       -0.2262
      8 C           4.4361    3.5958   39.3664 C.ar    1  UNL1        0.0138
      9 C           5.7477    2.9696   39.7372 C.ar    1  UNL1       -0.0010
     10 C           6.4212    3.3456   41.0237 C.ar    1  UNL1       -0.0002
     11 C           5.7831    4.3479   41.9392 C.ar    1  UNL1       -0.0000
     12 C           4.4715    4.9742   41.5684 C.ar    1  UNL1       -0.0002
     13 C           3.7980    4.5981   40.2819 C.ar    1  UNL1       -0.0010
     14 C           4.5707    4.1365   32.8115 C.3     1  UNL1        0.0265
     15 C           4.6578    2.9168   33.6803 C.3     1  UNL1        0.1011
     16 C           5.0434    1.5962   33.0826 C.ar    1  UNL1       -0.0042
     17 C           4.8213    1.3408   31.6213 C.ar    1  UNL1       -0.0026
     18 C           5.2069    0.0202   31.0236 C.ar    1  UNL1        0.0013
     19 C           5.8146   -1.0451   31.8873 C.ar    1  UNL1        0.0193
     20 C           6.0366   -0.7898   33.3486 C.ar    1  UNL1        0.0013
     21 C           5.6511    0.5309   33.9462 C.ar    1  UNL1       -0.0026
     22 C           6.2002   -2.3658   31.2896 C.ar    1  UNL1        0.1011
     23 C           6.5563   -3.5176   32.1820 C.ar    1  UNL1        0.0258
     24 C           6.9419   -4.8383   31.5843 C.ar    1  UNL1        0.0638
     25 C           6.9713   -5.0071   30.0941 C.ar    1  UNL1        0.2765
     26 O           7.3569   -6.3277   29.4964 O.2     1  UNL1       -0.2655
     27 N           6.6152   -3.8552   29.2017 N.ar    1  UNL1       -0.2146
     28 C           6.6446   -4.0240   27.7115 C.3     1  UNL1        0.1571
     29 N           6.2296   -2.5346   29.7994 N.ar    1  UNL1       -0.1668
     30 C           2.6318    2.9984   39.0404 C.3     1  UNL1        0.0714
     31 C           1.7311    1.8101   38.8775 C.3     1  UNL1        0.0922
     32 C           0.5348    2.7148   38.8912 C.3     1  UNL1        0.0294
     33 C           2.9274    0.9053   38.8638 C.3     1  UNL1        0.0294
     34 O           0.8304    0.6217   38.7147 O.3     1  UNL1       -0.3866
     35 H          -0.0931    0.9172   38.6879 H       1  UNL1        0.2102
@<TRIPOS>BOND
     1    15    14    1
     2    15    16    1
     3    16    17   ar
     4    17    18   ar
     5    18    19   ar
     6    19    22    1
     7    22    23   ar
     8    23    24   ar
     9    24    25   ar
    10    25    26    2
    11    25    27   ar
    12    27    28    1
    13    27    29   ar
    14    19    20   ar
    15    20    21   ar
    16    15     1    1
    17     1     2    1
    18     2     3    1
    19     3     4    1
    20     4    30    1
    21    30    31    1
    22    31    32    1
    23    31    33    1
    24    31    34    1
    25     4     8    1
    26     8     9   ar
    27     9    10   ar
    28    10    11   ar
    29    11    12   ar
    30    12    13   ar
    31     4     5    1
    32     5     6    1
    33     6     7    2
    34    21    16   ar
    35     6     1   am
    36    29    22   ar
    37    13     8   ar
    38    34    35    1
@<TRIPOS>MOLECULE
*****
 35 38 0 0 0
SMALL
GASTEIGER

@<TRIPOS>ATOM
      1 N           2.8336    1.3815   20.1272 N.am    1  UNL1       -0.2438
      2 C           3.6130    1.3712   21.4088 C.3     1  UNL1        0.1009
      3 C           4.3223    0.1236   21.8452 C.3     1  UNL1        0.0662
      4 C           4.2523   -1.1136   21.0001 C.3     1  UNL1        0.1600
      5 O           3.4729   -1.1033   19.7184 O.3     1  UNL1       -0.4374
      6 C           2.7636    0.1442   19.2820 C.2     1  UNL1        0.4051
      7 O           1.9842    0.1546   18.0004 O.2     1  UNL1       -0.2262
      8 C           5.1109   -1.6140   22.1237 C.ar    1  UNL1        0.0138
      9 C           4.7620   -2.8954   22.8209 C.ar    1  UNL1       -0.0010
     10 C           5.6206   -3.3958   23.9445 C.ar    1  UNL1       -0.0002
     11 C           6.8281   -2.6147   24.3708 C.ar    1  UNL1       -0.0000
     12 C           7.1770   -1.3332   23.6736 C.ar    1  UNL1       -0.0002
     13 C           6.3184   -0.8329   22.5500 C.ar    1  UNL1       -0.0010
     14 C           2.8220    3.6173   18.8040 C.3     1  UNL1        0.0265
     15 C           2.1243    2.6291   19.6908 C.3     1  UNL1        0.1011
     16 C           0.7172    2.8883   20.1412 C.ar    1  UNL1       -0.0042
     17 C           0.3378    2.6750   21.5767 C.ar    1  UNL1       -0.0026
     18 C          -1.0693    2.9342   22.0270 C.ar    1  UNL1        0.0013
     19 C          -2.0970    3.4068   21.0419 C.ar    1  UNL1        0.0193
     20 C          -1.7177    3.6201   19.6065 C.ar    1  UNL1        0.0013
     21 C          -0.3106    3.3609   19.1561 C.ar    1  UNL1       -0.0026
     22 C          -3.5042    3.6661   21.4923 C.ar    1  UNL1        0.1011
     23 C          -4.5843    3.9034   20.4790 C.ar    1  UNL1        0.0258
     24 C          -5.9915    4.1626   20.9294 C.ar    1  UNL1        0.0638
     25 C          -6.3184    4.1845   22.3932 C.ar    1  UNL1        0.2765
     26 O          -7.7254    4.4438   22.8436 O.2     1  UNL1       -0.2655
     27 N          -5.2381    3.9472   23.4065 N.ar    1  UNL1       -0.2146
     28 C          -5.5651    3.9691   24.8703 C.3     1  UNL1        0.1571
     29 N          -3.8311    3.6879   22.9561 N.ar    1  UNL1       -0.1668
     30 C           4.4805   -2.5247   20.5451 C.3     1  UNL1        0.0714
     31 C           4.7233   -2.8147   19.0936 C.3     1  UNL1        0.0922
     32 C           3.5150   -3.7033   19.0690 C.3     1  UNL1        0.0294
     33 C           5.9315   -1.9261   19.1182 C.3     1  UNL1        0.0294
     34 O           4.9661   -3.1048   17.6421 O.3     1  UNL1       -0.3866
     35 H           4.2817   -3.7091   17.3143 H       1  UNL1        0.2102
@<TRIPOS>BOND
     1    15    14    1
     2    15    16    1
     3    16    17   ar
     4    17    18   ar
     5    18    19   ar
     6    19    22    1
     7    22    23   ar
     8    23    24   ar
     9    24    25   ar
    10    25    26    2
    11    25    27   ar
    12    27    28    1
    13    27    29   ar
    14    19    20   ar
    15    20    21   ar
    16    15     1    1
    17     1     2    1
    18     2     3    1
    19     3     4    1
    20     4    30    1
    21    30    31    1
    22    31    32    1
    23    31    33    1
    24    31    34    1
    25     4     8    1
    26     8     9   ar
    27     9    10   ar
    28    10    11   ar
    29    11    12   ar
    30    12    13   ar
    31     4     5    1
    32     5     6    1
    33     6     7    2
    34    21    16   ar
    35     6     1   am
    36    29    22   ar
    37    13     8   ar
    38    34    35    1
@<TRIPOS>MOLECULE
*****
 35 38 0 0 0
SMALL
GASTEIGER

@<TRIPOS>ATOM
      1 N           2.8565    2.1108   19.0368 N.am    1  UNL1       -0.2438
      2 C           2.8238    0.8313   18.2547 C.3     1  UNL1        0.1009
      3 C           3.4203   -0.4172   18.8339 C.3     1  UNL1        0.0662
      4 C           4.0495   -0.3861   20.1951 C.3     1  UNL1        0.1600
      5 O           4.0822    0.8935   20.9773 O.3     1  UNL1       -0.4374
      6 C           3.4857    2.1419   20.3981 C.2     1  UNL1        0.4051
      7 O           3.5184    3.4215   21.1801 O.2     1  UNL1       -0.2262
      8 C           4.2609   -1.8289   19.8434 C.ar    1  UNL1        0.0138
      9 C           5.6416   -2.4142   19.8755 C.ar    1  UNL1       -0.0010
     10 C           5.8529   -3.8570   19.5238 C.ar    1  UNL1       -0.0002
     11 C           4.6835   -4.7144   19.1399 C.ar    1  UNL1       -0.0000
     12 C           3.3028   -4.1291   19.1078 C.ar    1  UNL1       -0.0002
     13 C           3.0915   -2.6863   19.4596 C.ar    1  UNL1       -0.0010
     14 C           3.1514    4.4191   17.8814 C.3     1  UNL1        0.0265
     15 C           2.2599    3.3593   18.4576 C.3     1  UNL1        0.1011
     16 C           0.7718    3.5479   18.4545 C.ar    1  UNL1       -0.0042
     17 C           0.0833    4.0606   17.2245 C.ar    1  UNL1       -0.0026
     18 C          -1.4048    4.2493   17.2215 C.ar    1  UNL1        0.0013
     19 C          -2.2044    3.9251   18.4486 C.ar    1  UNL1        0.0193
     20 C          -1.5159    3.4124   19.6786 C.ar    1  UNL1        0.0013
     21 C          -0.0278    3.2238   19.6816 C.ar    1  UNL1       -0.0026
     22 C          -3.6925    4.1138   18.4455 C.ar    1  UNL1        0.1011
     23 C          -4.5197    3.5702   19.5725 C.ar    1  UNL1        0.0258
     24 C          -6.0078    3.7588   19.5695 C.ar    1  UNL1        0.0638
     25 C          -6.6687    4.4910   18.4394 C.ar    1  UNL1        0.2765
     26 O          -8.1567    4.6797   18.4363 O.2     1  UNL1       -0.2655
     27 N          -5.8414    5.0346   17.3124 N.ar    1  UNL1       -0.2146
     28 C          -6.5023    5.7669   16.1823 C.3     1  UNL1        0.1571
     29 N          -4.3534    4.8460   17.3154 N.ar    1  UNL1       -0.1668
     30 C           4.7522   -0.8561   21.4343 C.3     1  UNL1        0.0714
     31 C           4.4084   -0.2554   22.7650 C.3     1  UNL1        0.0922
     32 C           3.0351   -0.8528   22.6799 C.3     1  UNL1        0.0294
     33 C           5.7816    0.3420   22.8501 C.3     1  UNL1        0.0294
     34 O           4.0645    0.3454   24.0957 O.3     1  UNL1       -0.3866
     35 H           3.1531    0.1106   24.3306 H       1  UNL1        0.2102
@<TRIPOS>BOND
     1    15    14    1
     2    15    16    1
     3    16    17   ar
     4    17    18   ar
     5    18    19   ar
     6    19    22    1
     7    22    23   ar
     8    23    24   ar
     9    24    25   ar
    10    25    26    2
    11    25    27   ar
    12    27    28    1
    13    27    29   ar
    14    19    20   ar
    15    20    21   ar
    16    15     1    1
    17     1     2    1
    18     2     3    1
    19     3     4    1
    20     4    30    1
    21    30    31    1
    22    31    32    1
    23    31    33    1
    24    31    34    1
    25     4     8    1
    26     8     9   ar
    27     9    10   ar
    28    10    11   ar
    29    11    12   ar
    30    12    13   ar
    31     4     5    1
    32     5     6    1
    33     6     7    2
    34    21    16   ar
    35     6     1   am
    36    29    22   ar
    37    13     8   ar
    38    34    35    1
@<TRIPOS>MOLECULE
*****
 35 38 0 0 0
SMALL
GASTEIGER

@<TRIPOS>ATOM
      1 N           1.9595    1.0562   21.9683 N.am    1  UNL1       -0.2438
      2 C           1.8623   -0.4387   21.8936 C.3     1  UNL1        0.1009
      3 C           2.8535   -1.2149   21.0782 C.3     1  UNL1        0.0662
      4 C           3.9420   -0.4962   20.3375 C.3     1  UNL1        0.1600
      5 O           4.0392    0.9988   20.4122 O.3     1  UNL1       -0.4374
      6 C           3.0480    1.7750   21.2276 C.2     1  UNL1        0.4051
      7 O           3.1452    3.2700   21.3023 O.2     1  UNL1       -0.2262
      8 C           4.2613   -1.9125   19.9600 C.ar    1  UNL1        0.0138
      9 C           3.1850   -2.8045   19.4160 C.ar    1  UNL1       -0.0010
     10 C           3.5043   -4.2207   19.0386 C.ar    1  UNL1       -0.0002
     11 C           4.8999   -4.7447   19.2051 C.ar    1  UNL1       -0.0000
     12 C           5.9762   -3.8527   19.7491 C.ar    1  UNL1       -0.0002
     13 C           5.6569   -2.4365   20.1266 C.ar    1  UNL1       -0.0010
     14 C          -0.1321    2.5915   22.1032 C.3     1  UNL1        0.0265
     15 C           0.9682    1.8325   22.7837 C.3     1  UNL1        0.1011
     16 C           1.0774    1.8497   24.2797 C.ar    1  UNL1       -0.0042
     17 C          -0.0522    1.3325   25.1201 C.ar    1  UNL1       -0.0026
     18 C           0.0569    1.3497   26.6160 C.ar    1  UNL1        0.0013
     19 C           1.2958    1.8842   27.2715 C.ar    1  UNL1        0.0193
     20 C           2.4254    2.4014   26.4311 C.ar    1  UNL1        0.0013
     21 C           2.3162    2.3842   24.9352 C.ar    1  UNL1       -0.0026
     22 C           1.4049    1.9014   28.7675 C.ar    1  UNL1        0.1011
     23 C           0.7046    2.9663   29.5583 C.ar    1  UNL1        0.0258
     24 C           0.8137    2.9835   31.0543 C.ar    1  UNL1        0.0638
     25 C           1.6232    1.9358   31.7593 C.ar    1  UNL1        0.2765
     26 O           1.7324    1.9530   33.2552 O.2     1  UNL1       -0.2655
     27 N           2.3235    0.8709   30.9684 N.ar    1  UNL1       -0.2146
     28 C           3.1330   -0.1768   31.6734 C.3     1  UNL1        0.1571
     29 N           2.2144    0.8537   29.4725 N.ar    1  UNL1       -0.1668
     30 C           5.1414   -0.2693   19.4657 C.3     1  UNL1        0.0714
     31 C           5.1942    0.9240   18.5584 C.3     1  UNL1        0.0922
     32 C           4.0099    0.4005   17.8010 C.3     1  UNL1        0.0294
     33 C           6.3784    1.4474   19.3158 C.3     1  UNL1        0.0294
     34 O           5.2469    2.1172   17.6511 O.3     1  UNL1       -0.3866
     35 H           4.5362    2.0553   16.9938 H       1  UNL1        0.2102
@<TRIPOS>BOND
     1    15    14    1
     2    15    16    1
     3    16    17   ar
     4    17    18   ar
     5    18    19   ar
     6    19    22    1
     7    22    23   ar
     8    23    24   ar
     9    24    25   ar
    10    25    26    2
    11    25    27   ar
    12    27    28    1
    13    27    29   ar
    14    19    20   ar
    15    20    21   ar
    16    15     1    1
    17     1     2    1
    18     2     3    1
    19     3     4    1
    20     4    30    1
    21    30    31    1
    22    31    32    1
    23    31    33    1
    24    31    34    1
    25     4     8    1
    26     8     9   ar
    27     9    10   ar
    28    10    11   ar
    29    11    12   ar
    30    12    13   ar
    31     4     5    1
    32     5     6    1
    33     6     7    2
    34    21    16   ar
    35     6     1   am
    36    29    22   ar
    37    13     8   ar
    38    34    35    1
