@<TRIPOS>MOLECULE
*****
 25 27 0 0 0
SMALL
GASTEIGER

@<TRIPOS>ATOM
      1 N          -7.8051  -20.3379   22.3770 N.pl3   1  UNL1       -0.2150
      2 H          -7.8819  -21.1977   22.8504 H       1  UNL1        0.1737
      3 C          -6.4789  -19.8981   21.8311 C.ar    1  UNL1        0.0648
      4 C          -5.7615  -18.7352   22.4499 C.ar    1  UNL1        0.0159
      5 C          -4.4354  -18.2955   21.9040 C.ar    1  UNL1        0.0028
      6 C          -3.8267  -19.0186   20.7393 C.ar    1  UNL1        0.0172
      7 C          -4.5442  -20.1815   20.1205 C.ar    1  UNL1        0.0028
      8 C          -5.8702  -20.6213   20.6664 C.ar    1  UNL1        0.0159
      9 C          -2.5006  -18.5788   20.1934 C.ar    1  UNL1        0.0754
     10 C          -1.3382  -18.0776   20.9982 C.ar    1  UNL1        0.0409
     11 C          -0.2232  -17.7521   20.0491 C.ar    1  UNL1        0.1214
     12 N          -0.6965  -18.0521   18.6577 N.ar    1  UNL1       -0.1711
     13 N          -2.1040  -18.5630   18.7469 N.ar    1  UNL1       -0.2757
     14 H          -2.6683  -18.8395   17.9890 H       1  UNL1        0.1889
     15 O          -8.7599  -19.4119   20.7246 O.2     1  UNL1       -0.1499
     16 S          -9.0142  -19.4676   22.2018 S.O2    1  UNL1        0.0736
     17 O          -9.2684  -19.5234   23.6790 O.2     1  UNL1       -0.1499
     18 C         -10.2233  -18.5974   22.0265 C.ar    1  UNL1        0.1268
     19 C         -10.2923  -17.6311   20.8813 C.ar    1  UNL1        0.0316
     20 C         -11.5013  -16.7608   20.7061 C.ar    1  UNL1        0.0599
     21 CL        -11.5703  -15.7945   19.5608 Cl      1  UNL1       -0.0822
     22 C         -12.6414  -16.8568   21.6760 C.ar    1  UNL1        0.0229
     23 C         -12.5725  -17.8231   22.8213 C.ar    1  UNL1        0.0599
     24 CL        -13.7127  -17.9191   23.7913 Cl      1  UNL1       -0.0822
     25 C         -11.3634  -18.6934   22.9965 C.ar    1  UNL1        0.0316
@<TRIPOS>BOND
     1    15    16    2
     2    16    17    2
     3    16     1    1
     4     1     3    1
     5     3     4   ar
     6     4     5   ar
     7     5     6   ar
     8     6     9    1
     9     9    10   ar
    10    10    11   ar
    11    11    12   ar
    12    12    13   ar
    13     6     7   ar
    14     7     8   ar
    15    16    18    1
    16    18    19   ar
    17    19    20   ar
    18    20    21    1
    19    20    22   ar
    20    22    23   ar
    21    23    24    1
    22    23    25   ar
    23     8     3   ar
    24    25    18   ar
    25    13     9   ar
    26     1     2    1
    27    13    14    1
@<TRIPOS>MOLECULE
*****
 25 27 0 0 0
SMALL
GASTEIGER

@<TRIPOS>ATOM
      1 N          -7.7943  -20.3494   22.3581 N.pl3   1  UNL1       -0.2150
      2 H          -7.8733  -21.2119   22.8263 H       1  UNL1        0.1737
      3 C          -6.4669  -19.9093   21.8155 C.ar    1  UNL1        0.0648
      4 C          -5.7656  -18.7274   22.4163 C.ar    1  UNL1        0.0159
      5 C          -4.4383  -18.2874   21.8737 C.ar    1  UNL1        0.0028
      6 C          -3.8122  -19.0293   20.7302 C.ar    1  UNL1        0.0172
      7 C          -4.5135  -20.2113   20.1293 C.ar    1  UNL1        0.0028
      8 C          -5.8409  -20.6513   20.6720 C.ar    1  UNL1        0.0159
      9 C          -2.4848  -18.5893   20.1875 C.ar    1  UNL1        0.0754
     10 C          -1.3126  -18.1209   20.9978 C.ar    1  UNL1        0.0409
     11 C          -0.1999  -17.7825   20.0505 C.ar    1  UNL1        0.1214
     12 N          -0.6845  -18.0417   18.6547 N.ar    1  UNL1       -0.1711
     13 N          -2.0967  -18.5403   18.7395 N.ar    1  UNL1       -0.2757
     14 H          -2.6684  -18.7914   17.9783 H       1  UNL1        0.1889
     15 O          -9.2342  -19.5077   23.6689 O.2     1  UNL1       -0.1499
     16 S          -9.0014  -19.4755   22.1874 S.O2    1  UNL1        0.0736
     17 O          -8.7685  -19.4432   20.7060 O.2     1  UNL1       -0.1499
     18 C         -10.2085  -18.6014   22.0167 C.ar    1  UNL1        0.1268
     19 C         -11.3416  -18.6879   22.9958 C.ar    1  UNL1        0.0316
     20 C         -12.5486  -17.8139   22.8251 C.ar    1  UNL1        0.0599
     21 CL        -13.6817  -17.9004   23.8042 Cl      1  UNL1       -0.0822
     22 C         -12.6226  -16.8535   21.6753 C.ar    1  UNL1        0.0229
     23 C         -11.4895  -16.7671   20.6962 C.ar    1  UNL1        0.0599
     24 CL        -11.5636  -15.8066   19.5463 Cl      1  UNL1       -0.0822
     25 C         -10.2825  -17.6410   20.8669 C.ar    1  UNL1        0.0316
@<TRIPOS>BOND
     1    15    16    2
     2    16    17    2
     3    16     1    1
     4     1     3    1
     5     3     4   ar
     6     4     5   ar
     7     5     6   ar
     8     6     9    1
     9     9    10   ar
    10    10    11   ar
    11    11    12   ar
    12    12    13   ar
    13     6     7   ar
    14     7     8   ar
    15    16    18    1
    16    18    19   ar
    17    19    20   ar
    18    20    21    1
    19    20    22   ar
    20    22    23   ar
    21    23    24    1
    22    23    25   ar
    23     8     3   ar
    24    25    18   ar
    25    13     9   ar
    26     1     2    1
    27    13    14    1
@<TRIPOS>MOLECULE
*****
 25 27 0 0 0
SMALL
GASTEIGER

@<TRIPOS>ATOM
      1 N          -7.3593  -16.5707   24.2579 N.pl3   1  UNL1       -0.2150
      2 H          -7.3104  -16.3085   25.2055 H       1  UNL1        0.1737
      3 C          -6.1036  -16.8925   23.5030 C.ar    1  UNL1        0.0648
      4 C          -6.0499  -18.1020   22.6174 C.ar    1  UNL1        0.0159
      5 C          -4.7943  -18.4237   21.8626 C.ar    1  UNL1        0.0028
      6 C          -3.5923  -17.5360   21.9933 C.ar    1  UNL1        0.0172
      7 C          -3.6459  -16.3265   22.8789 C.ar    1  UNL1        0.0028
      8 C          -4.9016  -16.0048   23.6337 C.ar    1  UNL1        0.0159
      9 C          -2.3366  -17.8578   21.2385 C.ar    1  UNL1        0.0754
     10 C          -1.2935  -16.8724   20.8015 C.ar    1  UNL1        0.0409
     11 C          -0.2158  -17.6270   20.0810 C.ar    1  UNL1        0.1214
     12 N          -0.5929  -19.0788   20.0727 N.ar    1  UNL1       -0.1711
     13 N          -1.9036  -19.2214   20.7880 N.ar    1  UNL1       -0.2757
     14 H          -2.3936  -20.0624   20.9359 H       1  UNL1        0.1889
     15 O          -9.1420  -17.6802   24.5591 O.2     1  UNL1       -0.1499
     16 S          -8.6893  -16.6485   23.5688 S.O2    1  UNL1        0.0736
     17 O          -8.2367  -15.6168   22.5786 O.2     1  UNL1       -0.1499
     18 C         -10.0195  -16.7262   22.8798 C.ar    1  UNL1        0.1268
     19 C         -10.1720  -16.2024   21.4825 C.ar    1  UNL1        0.0316
     20 C         -11.5021  -16.2801   20.7934 C.ar    1  UNL1        0.0599
     21 CL        -11.6546  -15.7562   19.3961 Cl      1  UNL1       -0.0822
     22 C         -12.6796  -16.8816   21.5016 C.ar    1  UNL1        0.0229
     23 C         -12.5271  -17.4054   22.8989 C.ar    1  UNL1        0.0599
     24 CL        -13.7047  -18.0070   23.6070 Cl      1  UNL1       -0.0822
     25 C         -11.1970  -17.3277   23.5879 C.ar    1  UNL1        0.0316
@<TRIPOS>BOND
     1    15    16    2
     2    16    17    2
     3    16     1    1
     4     1     3    1
     5     3     4   ar
     6     4     5   ar
     7     5     6   ar
     8     6     9    1
     9     9    10   ar
    10    10    11   ar
    11    11    12   ar
    12    12    13   ar
    13     6     7   ar
    14     7     8   ar
    15    16    18    1
    16    18    19   ar
    17    19    20   ar
    18    20    21    1
    19    20    22   ar
    20    22    23   ar
    21    23    24    1
    22    23    25   ar
    23     8     3   ar
    24    25    18   ar
    25    13     9   ar
    26     1     2    1
    27    13    14    1
@<TRIPOS>MOLECULE
*****
 25 27 0 0 0
SMALL
GASTEIGER

@<TRIPOS>ATOM
      1 N          -7.1417  -20.4503   21.6742 N.pl3   1  UNL1       -0.2150
      2 H          -7.3463  -21.4125   21.6348 H       1  UNL1        0.1737
      3 C          -5.7606  -19.9632   21.3491 C.ar    1  UNL1        0.0648
      4 C          -5.1080  -20.3645   20.0596 C.ar    1  UNL1        0.0159
      5 C          -3.7271  -19.8775   19.7345 C.ar    1  UNL1        0.0028
      6 C          -2.9987  -18.9892   20.6991 C.ar    1  UNL1        0.0172
      7 C          -3.6513  -18.5878   21.9886 C.ar    1  UNL1        0.0028
      8 C          -5.0323  -19.0749   22.3136 C.ar    1  UNL1        0.0159
      9 C          -1.6177  -18.5021   20.3740 C.ar    1  UNL1        0.0754
     10 C          -1.1638  -17.9554   19.0529 C.ar    1  UNL1        0.0409
     11 C           0.2863  -17.5917   19.1753 C.ar    1  UNL1        0.1214
     12 N           0.7286  -17.9136   20.5720 N.ar    1  UNL1       -0.1711
     13 N          -0.4481  -18.4763   21.3128 N.ar    1  UNL1       -0.2757
     14 H          -0.4521  -18.7761   22.2505 H       1  UNL1        0.1889
     15 O          -7.8933  -18.6474   20.8468 O.2     1  UNL1       -0.1499
     16 S          -8.2109  -19.4713   22.0594 S.O2    1  UNL1        0.0736
     17 O          -8.5284  -20.2952   23.2719 O.2     1  UNL1       -0.1499
     18 C          -9.2801  -18.4923   22.4446 C.ar    1  UNL1        0.1268
     19 C          -8.9646  -17.3700   23.3884 C.ar    1  UNL1        0.0316
     20 C         -10.0338  -16.3910   23.7736 C.ar    1  UNL1        0.0599
     21 CL         -9.7183  -15.2687   24.7175 Cl      1  UNL1       -0.0822
     22 C         -11.4185  -16.5344   23.2151 C.ar    1  UNL1        0.0229
     23 C         -11.7340  -17.6568   22.2712 C.ar    1  UNL1        0.0599
     24 CL        -13.1188  -17.8001   21.7127 Cl      1  UNL1       -0.0822
     25 C         -10.6648  -18.6357   21.8860 C.ar    1  UNL1        0.0316
@<TRIPOS>BOND
     1    15    16    2
     2    16    17    2
     3    16     1    1
     4     1     3    1
     5     3     4   ar
     6     4     5   ar
     7     5     6   ar
     8     6     9    1
     9     9    10   ar
    10    10    11   ar
    11    11    12   ar
    12    12    13   ar
    13     6     7   ar
    14     7     8   ar
    15    16    18    1
    16    18    19   ar
    17    19    20   ar
    18    20    21    1
    19    20    22   ar
    20    22    23   ar
    21    23    24    1
    22    23    25   ar
    23     8     3   ar
    24    25    18   ar
    25    13     9   ar
    26     1     2    1
    27    13    14    1
@<TRIPOS>MOLECULE
*****
 25 27 0 0 0
SMALL
GASTEIGER

@<TRIPOS>ATOM
      1 N          -4.8374  -19.1591   22.5004 N.pl3   1  UNL1       -0.2150
      2 H          -4.6217  -19.6751   23.3107 H       1  UNL1        0.1737
      3 C          -6.2597  -18.7835   22.2069 C.ar    1  UNL1        0.0648
      4 C          -6.8539  -17.5539   22.8271 C.ar    1  UNL1        0.0159
      5 C          -8.2762  -17.1783   22.5336 C.ar    1  UNL1        0.0028
      6 C          -9.1041  -18.0325   21.6198 C.ar    1  UNL1        0.0172
      7 C          -8.5099  -19.2622   20.9996 C.ar    1  UNL1        0.0028
      8 C          -7.0876  -19.6377   21.2932 C.ar    1  UNL1        0.0159
      9 C         -10.5264  -17.6569   21.3263 C.ar    1  UNL1        0.0754
     10 C         -11.7377  -18.1465   22.0633 C.ar    1  UNL1        0.0409
     11 C         -12.9470  -17.5181   21.4368 C.ar    1  UNL1        0.1214
     12 N         -12.4831  -16.6400   20.3126 N.ar    1  UNL1       -0.1711
     13 N         -10.9871  -16.7258   20.2443 N.ar    1  UNL1       -0.2757
     14 H         -10.4091  -16.2539   19.6021 H       1  UNL1        0.1889
     15 O          -3.6444  -17.4225   22.2536 O.2     1  UNL1       -0.1499
     16 S          -3.7438  -18.7485   21.5595 S.O2    1  UNL1        0.0736
     17 O          -3.8431  -20.0745   20.8654 O.2     1  UNL1       -0.1499
     18 C          -2.6501  -18.3379   20.6185 C.ar    1  UNL1        0.1268
     19 C          -1.2373  -18.2320   21.1112 C.ar    1  UNL1        0.0316
     20 C          -0.1437  -17.8214   20.1703 C.ar    1  UNL1        0.0599
     21 CL          1.2691  -17.7155   20.6630 Cl      1  UNL1       -0.0822
     22 C          -0.4628  -17.5168   18.7367 C.ar    1  UNL1        0.0229
     23 C          -1.8756  -17.6227   18.2440 C.ar    1  UNL1        0.0599
     24 CL         -2.1948  -17.3180   16.8103 Cl      1  UNL1       -0.0822
     25 C          -2.9693  -18.0333   19.1849 C.ar    1  UNL1        0.0316
@<TRIPOS>BOND
     1    15    16    2
     2    16    17    2
     3    16     1    1
     4     1     3    1
     5     3     4   ar
     6     4     5   ar
     7     5     6   ar
     8     6     9    1
     9     9    10   ar
    10    10    11   ar
    11    11    12   ar
    12    12    13   ar
    13     6     7   ar
    14     7     8   ar
    15    16    18    1
    16    18    19   ar
    17    19    20   ar
    18    20    21    1
    19    20    22   ar
    20    22    23   ar
    21    23    24    1
    22    23    25   ar
    23     8     3   ar
    24    25    18   ar
    25    13     9   ar
    26     1     2    1
    27    13    14    1
@<TRIPOS>MOLECULE
*****
 25 27 0 0 0
SMALL
GASTEIGER

@<TRIPOS>ATOM
      1 N          -4.9819  -16.1743   24.1015 N.pl3   1  UNL1       -0.2150
      2 H          -4.6315  -15.6766   24.8753 H       1  UNL1        0.1737
      3 C          -6.4628  -16.3168   23.9095 C.ar    1  UNL1        0.0648
      4 C          -6.9962  -17.1266   22.7650 C.ar    1  UNL1        0.0159
      5 C          -8.4769  -17.2691   22.5731 C.ar    1  UNL1        0.0028
      6 C          -9.4244  -16.6018   23.5255 C.ar    1  UNL1        0.0172
      7 C          -8.8910  -15.7920   24.6699 C.ar    1  UNL1        0.0028
      8 C          -7.4102  -15.6495   24.8619 C.ar    1  UNL1        0.0159
      9 C         -10.9052  -16.7443   23.3334 C.ar    1  UNL1        0.0754
     10 C         -11.7313  -17.9401   23.7043 C.ar    1  UNL1        0.0409
     11 C         -13.1566  -17.6510   23.3369 C.ar    1  UNL1        0.1214
     12 N         -13.2113  -16.2763   22.7390 N.ar    1  UNL1       -0.1711
     13 N         -11.8199  -15.7160   22.7368 N.ar    1  UNL1       -0.2757
     14 H         -11.5538  -14.8291   22.4025 H       1  UNL1        0.1889
     15 O          -4.2315  -18.1291   23.7615 O.2     1  UNL1       -0.1499
     16 S          -4.0350  -16.7901   23.1146 S.O2    1  UNL1        0.0736
     17 O          -3.8384  -15.4511   22.4677 O.2     1  UNL1       -0.1499
     18 C          -3.0879  -17.4059   22.1276 C.ar    1  UNL1        0.1268
     19 C          -1.9036  -16.6265   21.6379 C.ar    1  UNL1        0.0316
     20 C          -0.9566  -17.2422   20.6510 C.ar    1  UNL1        0.0599
     21 CL          0.2277  -16.4627   20.1612 Cl      1  UNL1       -0.0822
     22 C          -1.1940  -18.6373   20.1538 C.ar    1  UNL1        0.0229
     23 C          -2.3783  -19.4167   20.6435 C.ar    1  UNL1        0.0599
     24 CL         -2.6156  -20.8119   20.1463 Cl      1  UNL1       -0.0822
     25 C          -3.3253  -18.8010   21.6305 C.ar    1  UNL1        0.0316
@<TRIPOS>BOND
     1    15    16    2
     2    16    17    2
     3    16     1    1
     4     1     3    1
     5     3     4   ar
     6     4     5   ar
     7     5     6   ar
     8     6     9    1
     9     9    10   ar
    10    10    11   ar
    11    11    12   ar
    12    12    13   ar
    13     6     7   ar
    14     7     8   ar
    15    16    18    1
    16    18    19   ar
    17    19    20   ar
    18    20    21    1
    19    20    22   ar
    20    22    23   ar
    21    23    24    1
    22    23    25   ar
    23     8     3   ar
    24    25    18   ar
    25    13     9   ar
    26     1     2    1
    27    13    14    1
@<TRIPOS>MOLECULE
*****
 25 27 0 0 0
SMALL
GASTEIGER

@<TRIPOS>ATOM
      1 N          -5.0196  -16.1397   24.0632 N.pl3   1  UNL1       -0.2150
      2 H          -4.6693  -15.6271   24.8273 H       1  UNL1        0.1737
      3 C          -6.5003  -16.2968   23.8811 C.ar    1  UNL1        0.0648
      4 C          -7.4470  -15.6768   24.8657 C.ar    1  UNL1        0.0159
      5 C          -8.9275  -15.8340   24.6835 C.ar    1  UNL1        0.0028
      6 C          -9.4614  -16.6110   23.5168 C.ar    1  UNL1        0.0172
      7 C          -8.5147  -17.2309   22.5322 C.ar    1  UNL1        0.0028
      8 C          -7.0341  -17.0738   22.7144 C.ar    1  UNL1        0.0159
      9 C         -10.9420  -16.7681   23.3347 C.ar    1  UNL1        0.0754
     10 C         -11.7649  -17.9422   23.7755 C.ar    1  UNL1        0.0409
     11 C         -13.1911  -17.6785   23.3931 C.ar    1  UNL1        0.1214
     12 N         -13.2497  -16.3413   22.7159 N.ar    1  UNL1       -0.1711
     13 N         -11.8597  -15.7787   22.6798 N.ar    1  UNL1       -0.2757
     14 H         -11.5960  -14.9122   22.2940 H       1  UNL1        0.1889
     15 O          -3.8388  -15.4212   22.4541 O.2     1  UNL1       -0.1499
     16 S          -4.0728  -16.7635   23.0813 S.O2    1  UNL1        0.0736
     17 O          -4.3068  -18.1058   23.7084 O.2     1  UNL1       -0.1499
     18 C          -3.1260  -17.3874   22.0992 C.ar    1  UNL1        0.1268
     19 C          -3.3775  -18.7772   21.5941 C.ar    1  UNL1        0.0316
     20 C          -2.4308  -19.4011   20.6121 C.ar    1  UNL1        0.0599
     21 CL         -2.6824  -20.7909   20.1069 Cl      1  UNL1       -0.0822
     22 C          -1.2324  -18.6353   20.1353 C.ar    1  UNL1        0.0229
     23 C          -0.9809  -17.2455   20.6405 C.ar    1  UNL1        0.0599
     24 CL          0.2176  -16.4796   20.1636 Cl      1  UNL1       -0.0822
     25 C          -1.9276  -16.6216   21.6224 C.ar    1  UNL1        0.0316
@<TRIPOS>BOND
     1    15    16    2
     2    16    17    2
     3    16     1    1
     4     1     3    1
     5     3     4   ar
     6     4     5   ar
     7     5     6   ar
     8     6     9    1
     9     9    10   ar
    10    10    11   ar
    11    11    12   ar
    12    12    13   ar
    13     6     7   ar
    14     7     8   ar
    15    16    18    1
    16    18    19   ar
    17    19    20   ar
    18    20    21    1
    19    20    22   ar
    20    22    23   ar
    21    23    24    1
    22    23    25   ar
    23     8     3   ar
    24    25    18   ar
    25    13     9   ar
    26     1     2    1
    27    13    14    1
@<TRIPOS>MOLECULE
*****
 25 27 0 0 0
SMALL
GASTEIGER

@<TRIPOS>ATOM
      1 N           8.1848   -4.1140   20.8897 N.pl3   1  UNL1       -0.2150
      2 H           8.9836   -4.0262   20.3208 H       1  UNL1        0.1737
      3 C           8.2066   -5.0308   22.0768 C.ar    1  UNL1        0.0648
      4 C           8.8929   -6.3614   21.9843 C.ar    1  UNL1        0.0159
      5 C           8.9146   -7.2780   23.1714 C.ar    1  UNL1        0.0028
      6 C           8.2502   -6.8641   24.4509 C.ar    1  UNL1        0.0172
      7 C           7.5639   -5.5336   24.5434 C.ar    1  UNL1        0.0028
      8 C           7.5422   -4.6169   23.3563 C.ar    1  UNL1        0.0159
      9 C           8.2720   -7.7809   25.6380 C.ar    1  UNL1        0.0754
     10 C           9.4968   -8.2623   26.3579 C.ar    1  UNL1        0.0409
     11 C           9.0546   -9.1561   27.4784 C.ar    1  UNL1        0.1214
     12 N           7.5565   -9.2271   27.4511 N.ar    1  UNL1       -0.1711
     13 N           7.0728   -8.3772   26.3137 N.ar    1  UNL1       -0.2757
     14 H           6.1333   -8.2356   26.0559 H       1  UNL1        0.1889
     15 O           6.2313   -4.6037   20.2236 O.2     1  UNL1       -0.1499
     16 S           6.9461   -3.3312   20.5693 S.O2    1  UNL1        0.0736
     17 O           7.6610   -2.0586   20.9150 O.2     1  UNL1       -0.1499
     18 C           5.7074   -2.5482   20.2489 C.ar    1  UNL1        0.1268
     19 C           4.7857   -2.1185   21.3515 C.ar    1  UNL1        0.0316
     20 C           3.5470   -1.3356   21.0312 C.ar    1  UNL1        0.0599
     21 CL          2.6252   -0.9058   22.1338 Cl      1  UNL1       -0.0822
     22 C           3.2300   -0.9824   19.6082 C.ar    1  UNL1        0.0229
     23 C           4.1517   -1.4122   18.5056 C.ar    1  UNL1        0.0599
     24 CL          3.8347   -1.0590   17.0826 Cl      1  UNL1       -0.0822
     25 C           5.3904   -2.1951   18.8260 C.ar    1  UNL1        0.0316
@<TRIPOS>BOND
     1    15    16    2
     2    16    17    2
     3    16     1    1
     4     1     3    1
     5     3     4   ar
     6     4     5   ar
     7     5     6   ar
     8     6     9    1
     9     9    10   ar
    10    10    11   ar
    11    11    12   ar
    12    12    13   ar
    13     6     7   ar
    14     7     8   ar
    15    16    18    1
    16    18    19   ar
    17    19    20   ar
    18    20    21    1
    19    20    22   ar
    20    22    23   ar
    21    23    24    1
    22    23    25   ar
    23     8     3   ar
    24    25    18   ar
    25    13     9   ar
    26     1     2    1
    27    13    14    1
@<TRIPOS>MOLECULE
*****
 25 27 0 0 0
SMALL
GASTEIGER

@<TRIPOS>ATOM
      1 N           8.1870   -4.0084   20.7669 N.pl3   1  UNL1       -0.2150
      2 H           8.9875   -3.9052   20.2032 H       1  UNL1        0.1737
      3 C           8.2181   -4.9262   21.9530 C.ar    1  UNL1        0.0648
      4 C           7.6146   -4.4897   23.2551 C.ar    1  UNL1        0.0159
      5 C           7.6458   -5.4075   24.4411 C.ar    1  UNL1        0.0028
      6 C           8.2803   -6.7617   24.3251 C.ar    1  UNL1        0.0172
      7 C           8.8837   -7.1981   23.0230 C.ar    1  UNL1        0.0028
      8 C           8.8526   -6.2804   21.8370 C.ar    1  UNL1        0.0159
      9 C           8.3114   -7.6795   25.5112 C.ar    1  UNL1        0.0754
     10 C           9.5352   -8.0954   26.2724 C.ar    1  UNL1        0.0409
     11 C           9.1044   -9.0154   27.3759 C.ar    1  UNL1        0.1214
     12 N           7.6142   -9.1681   27.2968 N.ar    1  UNL1       -0.1711
     13 N           7.1242   -8.3425   26.1443 N.ar    1  UNL1       -0.2757
     14 H           6.1877   -8.2517   25.8544 H       1  UNL1        0.1889
     15 O           7.6511   -1.9567   20.7080 O.2     1  UNL1       -0.1499
     16 S           6.9362   -3.2478   20.4397 S.O2    1  UNL1        0.0736
     17 O           6.2214   -4.5389   20.1714 O.2     1  UNL1       -0.1499
     18 C           5.6854   -2.4872   20.1125 C.ar    1  UNL1        0.1268
     19 C           5.3508   -2.1728   18.6845 C.ar    1  UNL1        0.0316
     20 C           4.1000   -1.4122   18.3572 C.ar    1  UNL1        0.0599
     21 CL          3.7655   -1.0977   16.9293 Cl      1  UNL1       -0.0822
     22 C           3.1839   -0.9662   19.4580 C.ar    1  UNL1        0.0229
     23 C           3.5185   -1.2807   20.8859 C.ar    1  UNL1        0.0599
     24 CL          2.6022   -0.8346   21.9867 Cl      1  UNL1       -0.0822
     25 C           4.7692   -2.0412   21.2132 C.ar    1  UNL1        0.0316
@<TRIPOS>BOND
     1    15    16    2
     2    16    17    2
     3    16     1    1
     4     1     3    1
     5     3     4   ar
     6     4     5   ar
     7     5     6   ar
     8     6     9    1
     9     9    10   ar
    10    10    11   ar
    11    11    12   ar
    12    12    13   ar
    13     6     7   ar
    14     7     8   ar
    15    16    18    1
    16    18    19   ar
    17    19    20   ar
    18    20    21    1
    19    20    22   ar
    20    22    23   ar
    21    23    24    1
    22    23    25   ar
    23     8     3   ar
    24    25    18   ar
    25    13     9   ar
    26     1     2    1
    27    13    14    1
