@<TRIPOS>MOLECULE
*****
 24 26 0 0 0
SMALL
GASTEIGER

@<TRIPOS>ATOM
      1 C          -6.4896  -16.8289   23.4755 C.3     1  UNL1        0.1753
      2 O          -5.0060  -16.6337   23.3718 O.3     1  UNL1       -0.3460
      3 C          -4.1846  -17.5620   22.5271 C.3     1  UNL1        0.1685
      4 C          -4.8469  -18.6856   21.7861 C.ar    1  UNL1        0.0067
      5 C          -4.0255  -19.6139   20.9414 C.ar    1  UNL1       -0.0021
      6 C          -4.6878  -20.7375   20.2005 C.ar    1  UNL1       -0.0003
      7 C          -6.1714  -20.9327   20.3042 C.ar    1  UNL1       -0.0002
      8 C          -6.9928  -20.0044   21.1489 C.ar    1  UNL1       -0.0010
      9 C          -6.3305  -18.8808   21.8898 C.ar    1  UNL1        0.0181
     10 C          -7.1519  -17.9524   22.7346 C.3     1  UNL1        0.2161
     11 C          -7.3110  -15.9005   24.3203 C.3     1  UNL1        0.1027
     12 C          -5.9671  -15.1861   26.4258 C.3     1  UNL1        0.0859
     13 N          -6.6392  -14.8330   25.1321 N.3     1  UNL1       -0.2942
     14 H          -5.9265  -14.4136   24.5349 H       1  UNL1        0.1234
     15 O          -8.6355  -18.1476   22.8383 O.3     1  UNL1       -0.4725
     16 C          -9.5503  -17.4810   21.8542 C.ar    1  UNL1        0.1351
     17 C          -9.4617  -16.0001   21.6318 C.ar    1  UNL1        0.0397
     18 C         -10.3766  -15.3335   20.6477 C.ar    1  UNL1        0.0397
     19 C         -11.3800  -16.1476   19.8859 C.ar    1  UNL1        0.1336
     20 O         -12.2948  -15.4809   18.9017 O.3     1  UNL1       -0.5055
     21 C         -11.4686  -17.6283   20.1082 C.ar    1  UNL1        0.0354
     22 C         -10.5537  -18.2951   21.0924 C.ar    1  UNL1        0.0151
     23 C         -10.6424  -19.7758   21.3147 C.3     1  UNL1        0.0343
     24 H         -12.2395  -14.5559   18.7628 H       1  UNL1        0.2922
@<TRIPOS>BOND
     1    12    13    1
     2    13    11    1
     3     1    11    1
     4     1     2    1
     5     2     3    1
     6     3     4    1
     7     4     5   ar
     8     5     6   ar
     9     6     7   ar
    10     7     8   ar
    11     8     9   ar
    12     9    10    1
    13    10    15    1
    14    15    16    1
    15    16    17   ar
    16    17    18   ar
    17    18    19   ar
    18    19    20    1
    19    19    21   ar
    20    21    22   ar
    21    22    23    1
    22    10     1    1
    23    22    16   ar
    24     9     4   ar
    25    13    14    1
    26    20    24    1
@<TRIPOS>MOLECULE
*****
 24 26 0 0 0
SMALL
GASTEIGER

@<TRIPOS>ATOM
      1 C          -6.6847  -17.6793   22.5448 C.3     1  UNL1        0.1753
      2 O          -5.3000  -17.1375   22.7426 O.3     1  UNL1       -0.3460
      3 C          -4.9868  -16.3017   23.9482 C.3     1  UNL1        0.1685
      4 C          -6.0584  -16.0078   24.9560 C.ar    1  UNL1        0.0067
      5 C          -5.7452  -15.1720   26.1615 C.ar    1  UNL1       -0.0021
      6 C          -6.8166  -14.8781   27.1692 C.ar    1  UNL1       -0.0003
      7 C          -8.2013  -15.4199   26.9713 C.ar    1  UNL1       -0.0002
      8 C          -8.5145  -16.2556   25.7658 C.ar    1  UNL1       -0.0010
      9 C          -7.4430  -16.5496   24.7581 C.ar    1  UNL1        0.0181
     10 C          -7.7562  -17.3854   23.5525 C.3     1  UNL1        0.2161
     11 C          -6.9978  -18.5151   21.3391 C.3     1  UNL1        0.1027
     12 C          -4.8927  -19.2738   20.0192 C.3     1  UNL1        0.0859
     13 N          -6.1279  -18.4288   20.1203 N.3     1  UNL1       -0.2942
     14 H          -6.7153  -18.6692   19.3217 H       1  UNL1        0.1234
     15 O          -9.1408  -17.9272   23.3546 O.3     1  UNL1       -0.4725
     16 C         -10.0131  -17.3766   22.2656 C.ar    1  UNL1        0.1351
     17 C          -9.8007  -15.9768   21.7700 C.ar    1  UNL1        0.0397
     18 C         -10.6730  -15.4263   20.6811 C.ar    1  UNL1        0.0397
     19 C         -11.7577  -16.2755   20.0876 C.ar    1  UNL1        0.1336
     20 O         -12.6300  -15.7249   18.9986 O.3     1  UNL1       -0.5055
     21 C         -11.9702  -17.6752   20.5831 C.ar    1  UNL1        0.0354
     22 C         -11.0979  -18.2258   21.6721 C.ar    1  UNL1        0.0151
     23 C         -11.3103  -19.6255   22.1677 C.3     1  UNL1        0.0343
     24 H         -12.4973  -14.8506   18.6890 H       1  UNL1        0.2922
@<TRIPOS>BOND
     1    12    13    1
     2    13    11    1
     3     1    11    1
     4     1     2    1
     5     2     3    1
     6     3     4    1
     7     4     5   ar
     8     5     6   ar
     9     6     7   ar
    10     7     8   ar
    11     8     9   ar
    12     9    10    1
    13    10    15    1
    14    15    16    1
    15    16    17   ar
    16    17    18   ar
    17    18    19   ar
    18    19    20    1
    19    19    21   ar
    20    21    22   ar
    21    22    23    1
    22    10     1    1
    23    22    16   ar
    24     9     4   ar
    25    13    14    1
    26    20    24    1
@<TRIPOS>MOLECULE
*****
 24 26 0 0 0
SMALL
GASTEIGER

@<TRIPOS>ATOM
      1 C          -6.9214  -18.8607   21.2444 C.3     1  UNL1        0.1753
      2 O          -5.4977  -19.1115   21.6448 O.3     1  UNL1       -0.3460
      3 C          -4.8482  -18.2485   22.6856 C.3     1  UNL1        0.1685
      4 C          -5.6224  -17.1347   23.3261 C.ar    1  UNL1        0.0067
      5 C          -4.9729  -16.2717   24.3669 C.ar    1  UNL1       -0.0021
      6 C          -5.7470  -15.1579   25.0073 C.ar    1  UNL1       -0.0003
      7 C          -7.1706  -14.9071   24.6068 C.ar    1  UNL1       -0.0002
      8 C          -7.8201  -15.7701   23.5660 C.ar    1  UNL1       -0.0010
      9 C          -7.0460  -16.8839   22.9256 C.ar    1  UNL1        0.0181
     10 C          -7.6955  -17.7469   21.8847 C.3     1  UNL1        0.2161
     11 C          -7.5709  -19.7238   20.2035 C.3     1  UNL1        0.1027
     12 C          -9.9699  -19.7269   19.2064 C.3     1  UNL1        0.0859
     13 N          -8.5921  -19.1379   19.2741 N.3     1  UNL1       -0.2942
     14 H          -8.7030  -18.1589   19.5379 H       1  UNL1        0.1234
     15 O          -9.1191  -17.4961   21.4843 O.3     1  UNL1       -0.4725
     16 C         -10.2329  -17.8079   22.4394 C.ar    1  UNL1        0.1351
     17 C          -9.9924  -18.7320   23.5962 C.ar    1  UNL1        0.0397
     18 C         -11.1062  -19.0438   24.5512 C.ar    1  UNL1        0.0397
     19 C         -12.4606  -18.4315   24.3496 C.ar    1  UNL1        0.1336
     20 O         -13.5744  -18.7433   25.3046 O.3     1  UNL1       -0.5055
     21 C         -12.7012  -17.5074   23.1928 C.ar    1  UNL1        0.0354
     22 C         -11.5873  -17.1956   22.2377 C.ar    1  UNL1        0.0151
     23 C         -11.8279  -16.2714   21.0809 C.3     1  UNL1        0.0343
     24 H         -13.4241  -19.3205   26.0272 H       1  UNL1        0.2922
@<TRIPOS>BOND
     1    12    13    1
     2    13    11    1
     3     1    11    1
     4     1     2    1
     5     2     3    1
     6     3     4    1
     7     4     5   ar
     8     5     6   ar
     9     6     7   ar
    10     7     8   ar
    11     8     9   ar
    12     9    10    1
    13    10    15    1
    14    15    16    1
    15    16    17   ar
    16    17    18   ar
    17    18    19   ar
    18    19    20    1
    19    19    21   ar
    20    21    22   ar
    21    22    23    1
    22    10     1    1
    23    22    16   ar
    24     9     4   ar
    25    13    14    1
    26    20    24    1
@<TRIPOS>MOLECULE
*****
 24 26 0 0 0
SMALL
GASTEIGER

@<TRIPOS>ATOM
      1 C          -7.0307  -16.4765   23.0556 C.3     1  UNL1        0.1753
      2 O          -5.6098  -16.6740   23.4940 O.3     1  UNL1       -0.3460
      3 C          -4.8057  -17.8129   22.9408 C.3     1  UNL1        0.1685
      4 C          -5.4224  -18.7545   21.9492 C.ar    1  UNL1        0.0067
      5 C          -4.6182  -19.8935   21.3961 C.ar    1  UNL1       -0.0021
      6 C          -5.2349  -20.8350   20.4045 C.ar    1  UNL1       -0.0003
      7 C          -6.6558  -20.6375   19.9662 C.ar    1  UNL1       -0.0002
      8 C          -7.4599  -19.4986   20.5193 C.ar    1  UNL1       -0.0010
      9 C          -6.8432  -18.5571   21.5108 C.ar    1  UNL1        0.0181
     10 C          -7.6474  -17.4180   22.0641 C.3     1  UNL1        0.2161
     11 C          -7.8349  -15.3375   23.6088 C.3     1  UNL1        0.1027
     12 C          -8.0123  -15.5947   26.1879 C.3     1  UNL1        0.0859
     13 N          -7.5526  -14.8205   24.9883 N.3     1  UNL1       -0.2942
     14 H          -6.5398  -14.7293   25.0671 H       1  UNL1        0.1234
     15 O          -9.0683  -17.2206   21.6257 O.3     1  UNL1       -0.4725
     16 C         -10.1950  -17.6052   22.5381 C.ar    1  UNL1        0.1351
     17 C          -9.9235  -18.4397   23.7546 C.ar    1  UNL1        0.0397
     18 C         -11.0502  -18.8243   24.6670 C.ar    1  UNL1        0.0397
     19 C         -12.4485  -18.3744   24.3629 C.ar    1  UNL1        0.1336
     20 O         -13.5752  -18.7590   25.2753 O.3     1  UNL1       -0.5055
     21 C         -12.7200  -17.5400   23.1464 C.ar    1  UNL1        0.0354
     22 C         -11.5933  -17.1553   22.2340 C.ar    1  UNL1        0.0151
     23 C         -11.8648  -16.3209   21.0175 C.3     1  UNL1        0.0343
     24 H         -13.4056  -19.2803   26.0352 H       1  UNL1        0.2922
@<TRIPOS>BOND
     1    12    13    1
     2    13    11    1
     3     1    11    1
     4     1     2    1
     5     2     3    1
     6     3     4    1
     7     4     5   ar
     8     5     6   ar
     9     6     7   ar
    10     7     8   ar
    11     8     9   ar
    12     9    10    1
    13    10    15    1
    14    15    16    1
    15    16    17   ar
    16    17    18   ar
    17    18    19   ar
    18    19    20    1
    19    19    21   ar
    20    21    22   ar
    21    22    23    1
    22    10     1    1
    23    22    16   ar
    24     9     4   ar
    25    13    14    1
    26    20    24    1
@<TRIPOS>MOLECULE
*****
 24 26 0 0 0
SMALL
GASTEIGER

@<TRIPOS>ATOM
      1 C          -7.3803  -18.6222   21.7926 C.3     1  UNL1        0.1753
      2 O          -8.0791  -19.8748   21.3535 O.3     1  UNL1       -0.3460
      3 C          -9.5574  -19.8592   21.0998 C.3     1  UNL1        0.1685
      4 C         -10.3369  -18.5911   21.2851 C.ar    1  UNL1        0.0067
      5 C         -11.8152  -18.5756   21.0314 C.ar    1  UNL1       -0.0021
      6 C         -12.5947  -17.3075   21.2167 C.ar    1  UNL1       -0.0003
      7 C         -11.8959  -16.0550   21.6558 C.ar    1  UNL1       -0.0002
      8 C         -10.4176  -16.0705   21.9095 C.ar    1  UNL1       -0.0010
      9 C          -9.6381  -17.3386   21.7242 C.ar    1  UNL1        0.0181
     10 C          -8.1598  -17.3541   21.9779 C.3     1  UNL1        0.2161
     11 C          -5.9020  -18.6378   22.0463 C.3     1  UNL1        0.1027
     12 C          -4.5074  -20.0369   20.3590 C.3     1  UNL1        0.0859
     13 N          -4.9439  -18.7054   20.8941 N.3     1  UNL1       -0.2942
     14 H          -5.3794  -18.2051   20.1193 H       1  UNL1        0.1234
     15 O          -7.4610  -16.1016   22.4169 O.3     1  UNL1       -0.4725
     16 C          -7.2911  -15.8105   23.8785 C.ar    1  UNL1        0.1351
     17 C          -8.4864  -15.7983   24.7848 C.ar    1  UNL1        0.0397
     18 C          -8.3165  -15.5072   26.2464 C.ar    1  UNL1        0.0397
     19 C          -6.9513  -15.2283   26.8019 C.ar    1  UNL1        0.1336
     20 O          -6.7815  -14.9373   28.2635 O.3     1  UNL1       -0.5055
     21 C          -5.7561  -15.2405   25.8957 C.ar    1  UNL1        0.0354
     22 C          -5.9259  -15.5316   24.4340 C.ar    1  UNL1        0.0151
     23 C          -4.7306  -15.5438   23.5279 C.3     1  UNL1        0.0343
     24 H          -7.5281  -14.9297   28.8295 H       1  UNL1        0.2922
@<TRIPOS>BOND
     1    12    13    1
     2    13    11    1
     3     1    11    1
     4     1     2    1
     5     2     3    1
     6     3     4    1
     7     4     5   ar
     8     5     6   ar
     9     6     7   ar
    10     7     8   ar
    11     8     9   ar
    12     9    10    1
    13    10    15    1
    14    15    16    1
    15    16    17   ar
    16    17    18   ar
    17    18    19   ar
    18    19    20    1
    19    19    21   ar
    20    21    22   ar
    21    22    23    1
    22    10     1    1
    23    22    16   ar
    24     9     4   ar
    25    13    14    1
    26    20    24    1
@<TRIPOS>MOLECULE
*****
 24 26 0 0 0
SMALL
GASTEIGER

@<TRIPOS>ATOM
      1 C          -7.0892  -17.7486   22.4917 C.3     1  UNL1        0.1753
      2 O          -5.8987  -18.6554   22.5928 O.3     1  UNL1       -0.3460
      3 C          -5.7650  -19.8243   21.6623 C.3     1  UNL1        0.1685
      4 C          -6.8219  -20.0864   20.6306 C.ar    1  UNL1        0.0067
      5 C          -6.6882  -21.2552   19.7001 C.ar    1  UNL1       -0.0021
      6 C          -7.7451  -21.5172   18.6685 C.ar    1  UNL1       -0.0003
      7 C          -8.9357  -20.6104   18.5673 C.ar    1  UNL1       -0.0002
      8 C          -9.0694  -19.4416   19.4978 C.ar    1  UNL1       -0.0010
      9 C          -8.0125  -19.1795   20.5295 C.ar    1  UNL1        0.0181
     10 C          -8.1461  -18.0106   21.4600 C.3     1  UNL1        0.2161
     11 C          -7.2229  -16.5797   23.4222 C.3     1  UNL1        0.1027
     12 C          -5.1073  -15.1875   24.0016 C.3     1  UNL1        0.0859
     13 N          -6.3755  -15.3588   23.2192 N.3     1  UNL1       -0.2942
     14 H          -6.1177  -15.3400   22.2326 H       1  UNL1        0.1234
     15 O          -9.3367  -17.1038   21.3589 O.3     1  UNL1       -0.4725
     16 C         -10.5916  -17.4266   22.1145 C.ar    1  UNL1        0.1351
     17 C         -10.5112  -18.1335   23.4351 C.ar    1  UNL1        0.0397
     18 C         -11.7661  -18.4562   24.1906 C.ar    1  UNL1        0.0397
     19 C         -13.1015  -18.0721   23.6257 C.ar    1  UNL1        0.1336
     20 O         -14.3565  -18.3949   24.3812 O.3     1  UNL1       -0.5055
     21 C         -13.1820  -17.3653   22.3051 C.ar    1  UNL1        0.0354
     22 C         -11.9270  -17.0425   21.5495 C.ar    1  UNL1        0.0151
     23 C         -12.0075  -16.3357   20.2290 C.3     1  UNL1        0.0343
     24 H         -14.3062  -18.8364   25.2061 H       1  UNL1        0.2922
@<TRIPOS>BOND
     1    12    13    1
     2    13    11    1
     3     1    11    1
     4     1     2    1
     5     2     3    1
     6     3     4    1
     7     4     5   ar
     8     5     6   ar
     9     6     7   ar
    10     7     8   ar
    11     8     9   ar
    12     9    10    1
    13    10    15    1
    14    15    16    1
    15    16    17   ar
    16    17    18   ar
    17    18    19   ar
    18    19    20    1
    19    19    21   ar
    20    21    22   ar
    21    22    23    1
    22    10     1    1
    23    22    16   ar
    24     9     4   ar
    25    13    14    1
    26    20    24    1
@<TRIPOS>MOLECULE
*****
 24 26 0 0 0
SMALL
GASTEIGER

@<TRIPOS>ATOM
      1 C          -7.2423  -18.2688   21.4629 C.3     1  UNL1        0.1753
      2 O          -8.4680  -17.4058   21.5166 O.3     1  UNL1       -0.3460
      3 C          -8.5838  -16.3313   22.5568 C.3     1  UNL1        0.1685
      4 C          -7.4738  -16.1197   23.5433 C.ar    1  UNL1        0.0067
      5 C          -7.5896  -15.0452   24.5835 C.ar    1  UNL1       -0.0021
      6 C          -6.4796  -14.8337   25.5700 C.ar    1  UNL1       -0.0003
      7 C          -5.2539  -15.6966   25.5163 C.ar    1  UNL1       -0.0002
      8 C          -5.1381  -16.7711   24.4761 C.ar    1  UNL1       -0.0010
      9 C          -6.2481  -16.9827   23.4897 C.ar    1  UNL1        0.0181
     10 C          -6.1324  -18.0572   22.4494 C.3     1  UNL1        0.2161
     11 C          -7.1266  -19.3433   20.4227 C.3     1  UNL1        0.1027
     12 C          -9.4057  -19.8017   19.2629 C.3     1  UNL1        0.0859
     13 N          -7.9937  -19.2996   19.1995 N.3     1  UNL1       -0.2942
     14 H          -8.0411  -18.3236   18.9070 H       1  UNL1        0.1234
     15 O          -4.9066  -18.9202   22.3958 O.3     1  UNL1       -0.4725
     16 C          -3.6830  -18.4410   21.6725 C.ar    1  UNL1        0.1351
     17 C          -2.9672  -17.2099   22.1439 C.ar    1  UNL1        0.0397
     18 C          -1.7436  -16.7306   21.4207 C.ar    1  UNL1        0.0397
     19 C          -1.2358  -17.4824   20.2261 C.ar    1  UNL1        0.1336
     20 O          -0.0122  -17.0031   19.5029 O.3     1  UNL1       -0.5055
     21 C          -1.9516  -18.7134   19.7547 C.ar    1  UNL1        0.0354
     22 C          -3.1752  -19.1927   20.4780 C.ar    1  UNL1        0.0151
     23 C          -3.8910  -20.4237   20.0066 C.3     1  UNL1        0.0343
     24 H           0.4349  -16.2341   19.7973 H       1  UNL1        0.2922
@<TRIPOS>BOND
     1    12    13    1
     2    13    11    1
     3     1    11    1
     4     1     2    1
     5     2     3    1
     6     3     4    1
     7     4     5   ar
     8     5     6   ar
     9     6     7   ar
    10     7     8   ar
    11     8     9   ar
    12     9    10    1
    13    10    15    1
    14    15    16    1
    15    16    17   ar
    16    17    18   ar
    17    18    19   ar
    18    19    20    1
    19    19    21   ar
    20    21    22   ar
    21    22    23    1
    22    10     1    1
    23    22    16   ar
    24     9     4   ar
    25    13    14    1
    26    20    24    1
@<TRIPOS>MOLECULE
*****
 24 26 0 0 0
SMALL
GASTEIGER

@<TRIPOS>ATOM
      1 C          -7.2791  -16.6438   23.0109 C.3     1  UNL1        0.1753
      2 O          -8.4268  -15.6951   22.8299 O.3     1  UNL1       -0.3460
      3 C          -9.5677  -16.0616   21.9277 C.3     1  UNL1        0.1685
      4 C          -9.5610  -17.3768   21.2065 C.ar    1  UNL1        0.0067
      5 C         -10.7020  -17.7433   20.3044 C.ar    1  UNL1       -0.0021
      6 C         -10.6953  -19.0585   19.5832 C.ar    1  UNL1       -0.0003
      7 C          -9.5476  -20.0073   19.7642 C.ar    1  UNL1       -0.0002
      8 C          -8.4067  -19.6408   20.6664 C.ar    1  UNL1       -0.0010
      9 C          -8.4134  -18.3256   21.3875 C.ar    1  UNL1        0.0181
     10 C          -7.2724  -17.9591   22.2897 C.3     1  UNL1        0.2161
     11 C          -6.1381  -16.2773   23.9131 C.3     1  UNL1        0.1027
     12 C          -5.7417  -15.1064   26.1981 C.3     1  UNL1        0.0859
     13 N          -6.2301  -15.0572   24.7807 N.3     1  UNL1       -0.2942
     14 H          -5.7006  -14.3221   24.3121 H       1  UNL1        0.1234
     15 O          -6.1247  -18.9078   22.4707 O.3     1  UNL1       -0.4725
     16 C          -4.9044  -18.7820   21.6076 C.ar    1  UNL1        0.1351
     17 C          -4.9887  -19.0845   20.1408 C.ar    1  UNL1        0.0397
     18 C          -3.7684  -18.9587   19.2778 C.ar    1  UNL1        0.0397
     19 C          -2.4637  -18.5305   19.8815 C.ar    1  UNL1        0.1336
     20 O          -1.2433  -18.4047   19.0184 O.3     1  UNL1       -0.5055
     21 C          -2.3794  -18.2280   21.3482 C.ar    1  UNL1        0.0354
     22 C          -3.5997  -18.3538   22.2113 C.ar    1  UNL1        0.0151
     23 C          -3.5154  -18.0513   23.6781 C.3     1  UNL1        0.0343
     24 H          -1.2960  -18.5936   18.1022 H       1  UNL1        0.2922
@<TRIPOS>BOND
     1    12    13    1
     2    13    11    1
     3     1    11    1
     4     1     2    1
     5     2     3    1
     6     3     4    1
     7     4     5   ar
     8     5     6   ar
     9     6     7   ar
    10     7     8   ar
    11     8     9   ar
    12     9    10    1
    13    10    15    1
    14    15    16    1
    15    16    17   ar
    16    17    18   ar
    17    18    19   ar
    18    19    20    1
    19    19    21   ar
    20    21    22   ar
    21    22    23    1
    22    10     1    1
    23    22    16   ar
    24     9     4   ar
    25    13    14    1
    26    20    24    1
@<TRIPOS>MOLECULE
*****
 24 26 0 0 0
SMALL
GASTEIGER

@<TRIPOS>ATOM
      1 C          -7.9344  -19.5812   20.1423 C.3     1  UNL1        0.1753
      2 O          -6.7102  -20.4416   20.0367 O.3     1  UNL1       -0.3460
      3 C          -5.5059  -20.1390   20.8779 C.3     1  UNL1        0.1685
      4 C          -5.5255  -18.9758   21.8249 C.ar    1  UNL1        0.0067
      5 C          -4.3211  -18.6731   22.6662 C.ar    1  UNL1       -0.0021
      6 C          -4.3408  -17.5099   23.6130 C.ar    1  UNL1       -0.0003
      7 C          -5.5650  -16.6494   23.7186 C.ar    1  UNL1       -0.0002
      8 C          -6.7693  -16.9521   22.8774 C.ar    1  UNL1       -0.0010
      9 C          -6.7496  -18.1153   21.9305 C.ar    1  UNL1        0.0181
     10 C          -7.9541  -18.4180   21.0892 C.3     1  UNL1        0.2161
     11 C          -9.1388  -19.8839   19.3010 C.3     1  UNL1        0.1027
     12 C          -8.8818  -21.9202   17.7081 C.3     1  UNL1        0.0859
     13 N          -8.9673  -20.4374   17.9174 N.3     1  UNL1       -0.2942
     14 H          -9.7609  -20.1077   17.3679 H       1  UNL1        0.1234
     15 O          -9.1782  -17.5575   21.1948 O.3     1  UNL1       -0.4725
     16 C         -10.2196  -17.8589   22.2314 C.ar    1  UNL1        0.1351
     17 C          -9.9049  -18.7946   23.3608 C.ar    1  UNL1        0.0397
     18 C         -10.9463  -19.0959   24.3974 C.ar    1  UNL1        0.0397
     19 C         -12.3024  -18.4615   24.3047 C.ar    1  UNL1        0.1336
     20 O         -13.3438  -18.7628   25.3414 O.3     1  UNL1       -0.5055
     21 C         -12.6171  -17.5258   23.1754 C.ar    1  UNL1        0.0354
     22 C         -11.5757  -17.2245   22.1387 C.ar    1  UNL1        0.0151
     23 C         -11.8904  -16.2888   21.0094 C.3     1  UNL1        0.0343
     24 H         -13.1473  -19.3473   26.0468 H       1  UNL1        0.2922
@<TRIPOS>BOND
     1    12    13    1
     2    13    11    1
     3     1    11    1
     4     1     2    1
     5     2     3    1
     6     3     4    1
     7     4     5   ar
     8     5     6   ar
     9     6     7   ar
    10     7     8   ar
    11     8     9   ar
    12     9    10    1
    13    10    15    1
    14    15    16    1
    15    16    17   ar
    16    17    18   ar
    17    18    19   ar
    18    19    20    1
    19    19    21   ar
    20    21    22   ar
    21    22    23    1
    22    10     1    1
    23    22    16   ar
    24     9     4   ar
    25    13    14    1
    26    20    24    1
