@<TRIPOS>MOLECULE
*****
 22 25 0 0 0
SMALL
GASTEIGER

@<TRIPOS>ATOM
      1 C         -10.6539  -17.5565   22.6410 C.3     1  UNL1        0.0353
      2 C         -11.6264  -18.5145   22.0193 C.3     1  UNL1        0.0225
      3 C         -12.7779  -17.7201   21.4781 C.3     1  UNL1        0.0689
      4 N         -12.5172  -16.2711   21.7653 N.3     1  UNL1       -0.2972
      5 C         -11.2045  -16.1700   22.4840 C.3     1  UNL1        0.0726
      6 H         -13.2625  -15.8948   22.3512 H       1  UNL1        0.1233
      7 C          -9.5167  -16.8577   23.3254 C.2     1  UNL1       -0.0387
      8 C          -8.5131  -16.0897   22.5175 C.2     1  UNL1       -0.0066
      9 C          -7.3758  -15.3909   23.2019 C.2     1  UNL1        0.0182
     10 C          -7.2423  -15.4602   24.6944 C.2     1  UNL1        0.0777
     11 N          -6.2344  -14.8772   25.6400 N.2     1  UNL1       -0.2442
     12 C          -6.6151  -15.2850   27.0324 C.2     1  UNL1        0.0985
     13 C          -7.8583  -16.1200   26.9473 C.2     1  UNL1        0.0182
     14 C          -8.2459  -16.2282   25.5023 C.2     1  UNL1        0.0011
     15 C          -9.3831  -16.9270   24.8178 C.3     1  UNL1        0.0499
     16 C          -9.8656  -18.7968   22.9410 C.3     1  UNL1        0.0315
     17 C          -6.6943  -20.1962   20.0714 C.ar    1  UNL1       -0.0000
     18 C          -7.9894  -19.6485   19.5492 C.ar    1  UNL1       -0.0003
     19 C          -9.0465  -19.1821   20.5057 C.ar    1  UNL1       -0.0043
     20 C          -8.8085  -19.2632   21.9845 C.ar    1  UNL1       -0.0218
     21 C          -7.5134  -19.8109   22.5067 C.ar    1  UNL1       -0.0043
     22 C          -6.4562  -20.2774   21.5502 C.ar    1  UNL1       -0.0003
@<TRIPOS>BOND
     1    17    18   ar
     2    18    19   ar
     3    19    20   ar
     4    20    16    1
     5    16     1    1
     6     1     7    1
     7     7     8    2
     8     8     9    1
     9     9    10    2
    10    10    11    1
    11    11    12    2
    12    12    13    1
    13    13    14    2
    14    14    15    1
    15     1     2    1
    16     2     3    1
    17     3     4    1
    18     4     5    1
    19    20    21   ar
    20    21    22   ar
    21    22    17   ar
    22     5     1    1
    23    15     7    1
    24    14    10    1
    25     4     6    1
@<TRIPOS>MOLECULE
*****
 22 25 0 0 0
SMALL
GASTEIGER

@<TRIPOS>ATOM
      1 C          -7.4986  -17.8344   22.6003 C.3     1  UNL1        0.0353
      2 C          -5.9996  -17.7826   22.6150 C.3     1  UNL1        0.0225
      3 C          -5.4852  -19.1474   22.2645 C.3     1  UNL1        0.0689
      4 N          -6.6663  -20.0427   22.0332 N.3     1  UNL1       -0.2972
      5 C          -7.9107  -19.2312   22.2407 C.3     1  UNL1        0.0726
      6 H          -6.6459  -20.8201   22.6932 H       1  UNL1        0.1233
      7 C          -8.9761  -17.5833   22.6635 C.2     1  UNL1       -0.0387
      8 C          -9.5956  -16.5291   21.7948 C.2     1  UNL1       -0.0066
      9 C         -11.0731  -16.2780   21.8580 C.2     1  UNL1        0.0182
     10 C         -11.9311  -17.0812   22.7901 C.2     1  UNL1        0.0777
     11 N         -13.4049  -17.0585   23.0682 N.2     1  UNL1       -0.2442
     12 C         -13.6962  -18.0987   24.1088 C.2     1  UNL1        0.0985
     13 C         -12.4025  -18.7643   24.4740 C.2     1  UNL1        0.0182
     14 C         -11.3116  -18.1354   23.6589 C.2     1  UNL1        0.0011
     15 C          -9.8341  -18.3865   23.5956 C.3     1  UNL1        0.0499
     16 C          -7.3955  -16.3852   22.9731 C.3     1  UNL1        0.0315
     17 C          -6.6149  -15.2114   27.2466 C.ar    1  UNL1       -0.0000
     18 C          -7.9990  -15.5964   26.8154 C.ar    1  UNL1       -0.0003
     19 C          -8.2592  -15.9876   25.3909 C.ar    1  UNL1       -0.0043
     20 C          -7.1353  -15.9939   24.3976 C.ar    1  UNL1       -0.0218
     21 C          -5.7512  -15.6090   24.8288 C.ar    1  UNL1       -0.0043
     22 C          -5.4909  -15.2177   26.2533 C.ar    1  UNL1       -0.0003
@<TRIPOS>BOND
     1    17    18   ar
     2    18    19   ar
     3    19    20   ar
     4    20    16    1
     5    16     1    1
     6     1     7    1
     7     7     8    2
     8     8     9    1
     9     9    10    2
    10    10    11    1
    11    11    12    2
    12    12    13    1
    13    13    14    2
    14    14    15    1
    15     1     2    1
    16     2     3    1
    17     3     4    1
    18     4     5    1
    19    20    21   ar
    20    21    22   ar
    21    22    17   ar
    22     5     1    1
    23    15     7    1
    24    14    10    1
    25     4     6    1
@<TRIPOS>MOLECULE
*****
 22 25 0 0 0
SMALL
GASTEIGER

@<TRIPOS>ATOM
      1 C          -7.5513  -15.8869   24.9150 C.3     1  UNL1        0.0353
      2 C          -6.2078  -15.2650   25.1564 C.3     1  UNL1        0.0225
      3 C          -6.1284  -14.8805   26.6041 C.3     1  UNL1        0.0689
      4 N          -7.4229  -15.2648   27.2574 N.3     1  UNL1       -0.2972
      5 C          -8.3023  -15.8867   26.2135 C.3     1  UNL1        0.0726
      6 H          -7.8757  -14.4358   27.6424 H       1  UNL1        0.1233
      7 C          -8.7921  -16.5373   24.3787 C.2     1  UNL1       -0.0387
      8 C          -9.3591  -17.7472   25.0600 C.2     1  UNL1       -0.0066
      9 C         -10.5999  -18.3976   24.5238 C.2     1  UNL1        0.0182
     10 C         -11.2736  -17.8378   23.3061 C.2     1  UNL1        0.0777
     11 N         -12.5000  -18.2615   22.5536 N.2     1  UNL1       -0.2442
     12 C         -12.6910  -17.3133   21.4071 C.2     1  UNL1        0.0985
     13 C         -11.5826  -16.3036   21.4511 C.2     1  UNL1        0.0182
     14 C         -10.7065  -16.6278   22.6247 C.2     1  UNL1        0.0011
     15 C          -9.4658  -15.9775   23.1610 C.3     1  UNL1        0.0499
     16 C          -7.0598  -16.0231   23.5044 C.3     1  UNL1        0.0315
     17 C          -4.2435  -19.3597   22.4153 C.ar    1  UNL1       -0.0000
     18 C          -3.7294  -18.1503   23.1386 C.ar    1  UNL1       -0.0003
     19 C          -4.6682  -17.0381   23.5016 C.ar    1  UNL1       -0.0043
     20 C          -6.1210  -17.1353   23.1414 C.ar    1  UNL1       -0.0218
     21 C          -6.6351  -18.3447   22.4181 C.ar    1  UNL1       -0.0043
     22 C          -5.6965  -19.4569   22.0551 C.ar    1  UNL1       -0.0003
@<TRIPOS>BOND
     1    17    18   ar
     2    18    19   ar
     3    19    20   ar
     4    20    16    1
     5    16     1    1
     6     1     7    1
     7     7     8    2
     8     8     9    1
     9     9    10    2
    10    10    11    1
    11    11    12    2
    12    12    13    1
    13    13    14    2
    14    14    15    1
    15     1     2    1
    16     2     3    1
    17     3     4    1
    18     4     5    1
    19    20    21   ar
    20    21    22   ar
    21    22    17   ar
    22     5     1    1
    23    15     7    1
    24    14    10    1
    25     4     6    1
@<TRIPOS>MOLECULE
*****
 22 25 0 0 0
SMALL
GASTEIGER

@<TRIPOS>ATOM
      1 C          -8.0275  -17.1090   23.4711 C.3     1  UNL1        0.0353
      2 C          -9.0739  -16.5757   24.4042 C.3     1  UNL1        0.0225
      3 C          -8.6475  -15.2068   24.8451 C.3     1  UNL1        0.0689
      4 N          -7.3376  -14.8941   24.1844 N.3     1  UNL1       -0.2972
      5 C          -6.9544  -16.0697   23.3353 C.3     1  UNL1        0.0726
      6 H          -6.6225  -14.7314   24.8934 H       1  UNL1        0.1233
      7 C          -7.1678  -17.8938   22.5250 C.2     1  UNL1       -0.0387
      8 C          -7.7564  -18.4503   21.2626 C.2     1  UNL1       -0.0066
      9 C          -6.8967  -19.2352   20.3165 C.2     1  UNL1        0.0182
     10 C          -5.4484  -19.4634   20.6330 C.2     1  UNL1        0.0777
     11 N          -4.3630  -20.1917   19.8971 N.2     1  UNL1       -0.2442
     12 C          -3.1035  -20.0852   20.7048 C.2     1  UNL1        0.0985
     13 C          -3.4105  -19.2911   21.9398 C.2     1  UNL1        0.0182
     14 C          -4.8597  -18.9068   21.8954 C.2     1  UNL1        0.0011
     15 C          -5.7194  -18.1221   22.8414 C.3     1  UNL1        0.0499
     16 C          -8.9208  -18.3123   23.4091 C.3     1  UNL1        0.0315
     17 C         -13.3914  -17.7982   23.4093 C.ar    1  UNL1       -0.0000
     18 C         -12.5640  -17.1679   22.3285 C.ar    1  UNL1       -0.0003
     19 C         -11.0738  -17.3393   22.3284 C.ar    1  UNL1       -0.0043
     20 C         -10.4110  -18.1409   23.4092 C.ar    1  UNL1       -0.0218
     21 C         -11.2384  -18.7712   24.4900 C.ar    1  UNL1       -0.0043
     22 C         -12.7285  -18.5999   24.4901 C.ar    1  UNL1       -0.0003
@<TRIPOS>BOND
     1    17    18   ar
     2    18    19   ar
     3    19    20   ar
     4    20    16    1
     5    16     1    1
     6     1     7    1
     7     7     8    2
     8     8     9    1
     9     9    10    2
    10    10    11    1
    11    11    12    2
    12    12    13    1
    13    13    14    2
    14    14    15    1
    15     1     2    1
    16     2     3    1
    17     3     4    1
    18     4     5    1
    19    20    21   ar
    20    21    22   ar
    21    22    17   ar
    22     5     1    1
    23    15     7    1
    24    14    10    1
    25     4     6    1
@<TRIPOS>MOLECULE
*****
 22 25 0 0 0
SMALL
GASTEIGER

@<TRIPOS>ATOM
      1 C          -7.5647  -16.7655   23.6290 C.3     1  UNL1        0.0353
      2 C          -8.8651  -16.2776   24.1952 C.3     1  UNL1        0.0225
      3 C          -8.6455  -14.8963   24.7372 C.3     1  UNL1        0.0689
      4 N          -7.2092  -14.5305   24.5059 N.3     1  UNL1       -0.2972
      5 C          -6.5412  -15.6858   23.8210 C.3     1  UNL1        0.0726
      6 H          -6.7512  -14.3453   25.3983 H       1  UNL1        0.1233
      7 C          -6.4284  -17.5118   22.9948 C.2     1  UNL1       -0.0387
      8 C          -5.0158  -17.2145   23.4020 C.2     1  UNL1       -0.0066
      9 C          -3.8795  -17.9607   22.7678 C.2     1  UNL1        0.0182
     10 C          -4.1561  -19.0043   21.7264 C.2     1  UNL1        0.0777
     11 N          -3.2475  -19.8952   20.9322 N.2     1  UNL1       -0.2442
     12 C          -4.0987  -20.7431   20.0342 C.2     1  UNL1        0.0985
     13 C          -5.5333  -20.3762   20.2733 C.2     1  UNL1        0.0182
     14 C          -5.5688  -19.3016   21.3192 C.2     1  UNL1        0.0011
     15 C          -6.7050  -18.5553   21.9534 C.3     1  UNL1        0.0499
     16 C          -8.3504  -18.0012   23.3043 C.3     1  UNL1        0.0315
     17 C         -12.6035  -17.6525   21.8758 C.ar    1  UNL1       -0.0000
     18 C         -12.3096  -18.2612   23.2149 C.ar    1  UNL1       -0.0003
     19 C         -10.8919  -18.3774   23.6911 C.ar    1  UNL1       -0.0043
     20 C          -9.7681  -17.8850   22.8282 C.ar    1  UNL1       -0.0218
     21 C         -10.0620  -17.2763   21.4891 C.ar    1  UNL1       -0.0043
     22 C         -11.4797  -17.1601   21.0128 C.ar    1  UNL1       -0.0003
@<TRIPOS>BOND
     1    17    18   ar
     2    18    19   ar
     3    19    20   ar
     4    20    16    1
     5    16     1    1
     6     1     7    1
     7     7     8    2
     8     8     9    1
     9     9    10    2
    10    10    11    1
    11    11    12    2
    12    12    13    1
    13    13    14    2
    14    14    15    1
    15     1     2    1
    16     2     3    1
    17     3     4    1
    18     4     5    1
    19    20    21   ar
    20    21    22   ar
    21    22    17   ar
    22     5     1    1
    23    15     7    1
    24    14    10    1
    25     4     6    1
@<TRIPOS>MOLECULE
*****
 22 25 0 0 0
SMALL
GASTEIGER

@<TRIPOS>ATOM
      1 C          -9.1898  -18.2634   21.5044 C.3     1  UNL1        0.0353
      2 C          -9.3890  -19.3047   20.4433 C.3     1  UNL1        0.0225
      3 C         -10.4374  -18.8047   19.4942 C.3     1  UNL1        0.0689
      4 N         -10.8862  -17.4543   19.9687 N.3     1  UNL1       -0.2972
      5 C         -10.1152  -17.1198   21.2111 C.3     1  UNL1        0.0726
      6 H         -11.8847  -17.4745   20.1759 H       1  UNL1        0.1233
      7 C          -8.7793  -17.4245   22.6782 C.2     1  UNL1       -0.0387
      8 C          -8.0225  -16.1481   22.4596 C.2     1  UNL1       -0.0066
      9 C          -7.6119  -15.3091   23.6334 C.2     1  UNL1        0.0182
     10 C          -7.9583  -15.7467   25.0257 C.2     1  UNL1        0.0777
     11 N          -7.6892  -15.1318   26.3672 N.2     1  UNL1       -0.2442
     12 C          -8.2798  -16.0283   27.4148 C.2     1  UNL1        0.0985
     13 C          -8.9139  -17.1972   26.7208 C.2     1  UNL1        0.0182
     14 C          -8.7152  -17.0232   25.2442 C.2     1  UNL1        0.0011
     15 C          -9.1257  -17.8620   24.0705 C.3     1  UNL1        0.0499
     16 C          -8.1788  -19.2316   22.0431 C.3     1  UNL1        0.0315
     17 C          -3.9158  -19.0619   20.6116 C.ar    1  UNL1       -0.0000
     18 C          -4.2126  -19.0951   22.0816 C.ar    1  UNL1       -0.0003
     19 C          -5.6336  -19.1516   22.5588 C.ar    1  UNL1       -0.0043
     20 C          -6.7578  -19.1750   21.5660 C.ar    1  UNL1       -0.0218
     21 C          -6.4610  -19.1418   20.0960 C.ar    1  UNL1       -0.0043
     22 C          -5.0401  -19.0853   19.6187 C.ar    1  UNL1       -0.0003
@<TRIPOS>BOND
     1    17    18   ar
     2    18    19   ar
     3    19    20   ar
     4    20    16    1
     5    16     1    1
     6     1     7    1
     7     7     8    2
     8     8     9    1
     9     9    10    2
    10    10    11    1
    11    11    12    2
    12    12    13    1
    13    13    14    2
    14    14    15    1
    15     1     2    1
    16     2     3    1
    17     3     4    1
    18     4     5    1
    19    20    21   ar
    20    21    22   ar
    21    22    17   ar
    22     5     1    1
    23    15     7    1
    24    14    10    1
    25     4     6    1
@<TRIPOS>MOLECULE
*****
 22 25 0 0 0
SMALL
GASTEIGER

@<TRIPOS>ATOM
      1 C          -7.6028  -19.4323   20.8094 C.3     1  UNL1        0.0353
      2 C          -9.0944  -19.4731   20.9624 C.3     1  UNL1        0.0225
      3 C          -9.7006  -19.4945   19.5905 C.3     1  UNL1        0.0689
      4 N          -8.5836  -19.4670   18.5897 N.3     1  UNL1       -0.2972
      5 C          -7.2871  -19.4285   19.3430 C.3     1  UNL1        0.0726
      6 H          -8.6667  -18.6381   18.0010 H       1  UNL1        0.1233
      7 C          -6.1120  -19.3905   20.9700 C.2     1  UNL1       -0.0387
      8 C          -5.4819  -19.8579   22.2484 C.2     1  UNL1       -0.0066
      9 C          -3.9910  -19.8161   22.4089 C.2     1  UNL1        0.0182
     10 C          -3.1304  -19.3068   21.2910 C.2     1  UNL1        0.0777
     11 N          -1.6445  -19.1486   21.1603 N.2     1  UNL1       -0.2442
     12 C          -1.3563  -18.5834   19.8011 C.2     1  UNL1        0.0985
     13 C          -2.6640  -18.3922   19.0917 C.2     1  UNL1        0.0182
     14 C          -3.7605  -18.8393   20.0125 C.2     1  UNL1        0.0011
     15 C          -5.2513  -18.8812   19.8520 C.3     1  UNL1        0.0499
     16 C          -7.6067  -19.4273   22.3094 C.3     1  UNL1        0.0315
     17 C          -9.1909  -15.8565   24.5432 C.ar    1  UNL1       -0.0000
     18 C          -8.0396  -15.6977   23.5949 C.ar    1  UNL1       -0.0003
     19 C          -7.5115  -16.8879   22.8503 C.ar    1  UNL1       -0.0043
     20 C          -8.1348  -18.2370   23.0540 C.ar    1  UNL1       -0.0218
     21 C          -9.2861  -18.3958   24.0023 C.ar    1  UNL1       -0.0043
     22 C          -9.8142  -17.2056   24.7469 C.ar    1  UNL1       -0.0003
@<TRIPOS>BOND
     1    17    18   ar
     2    18    19   ar
     3    19    20   ar
     4    20    16    1
     5    16     1    1
     6     1     7    1
     7     7     8    2
     8     8     9    1
     9     9    10    2
    10    10    11    1
    11    11    12    2
    12    12    13    1
    13    13    14    2
    14    14    15    1
    15     1     2    1
    16     2     3    1
    17     3     4    1
    18     4     5    1
    19    20    21   ar
    20    21    22   ar
    21    22    17   ar
    22     5     1    1
    23    15     7    1
    24    14    10    1
    25     4     6    1
@<TRIPOS>MOLECULE
*****
 22 25 0 0 0
SMALL
GASTEIGER

@<TRIPOS>ATOM
      1 C          -8.5028  -19.2609   20.9174 C.3     1  UNL1        0.0353
      2 C          -9.9834  -19.4239   20.7411 C.3     1  UNL1        0.0225
      3 C         -10.2333  -19.9062   19.3429 C.3     1  UNL1        0.0689
      4 N          -8.9072  -20.0414   18.6551 N.3     1  UNL1       -0.2972
      5 C          -7.8376  -19.6426   19.6282 C.3     1  UNL1        0.0726
      6 H          -8.8771  -19.4311   17.8383 H       1  UNL1        0.1233
      7 C          -7.0998  -19.0071   21.3836 C.2     1  UNL1       -0.0387
      8 C          -6.8429  -18.0285   22.4909 C.2     1  UNL1       -0.0066
      9 C          -5.4398  -17.7747   22.9571 C.2     1  UNL1        0.0182
     10 C          -4.2938  -18.4996   22.3159 C.2     1  UNL1        0.0777
     11 N          -2.8148  -18.4558   22.5619 N.2     1  UNL1       -0.2442
     12 C          -2.1577  -19.4075   21.6067 C.2     1  UNL1        0.0985
     13 C          -3.2306  -20.0394   20.7702 C.2     1  UNL1        0.0182
     14 C          -4.5508  -19.4782   21.2085 C.2     1  UNL1        0.0011
     15 C          -5.9538  -19.7320   20.7424 C.3     1  UNL1        0.0499
     16 C          -8.8745  -18.8263   22.3040 C.3     1  UNL1        0.0315
     17 C         -12.8060  -16.7632   23.0370 C.ar    1  UNL1       -0.0000
     18 C         -11.7080  -16.0475   22.3076 C.ar    1  UNL1       -0.0003
     19 C         -10.3975  -16.7352   22.0633 C.ar    1  UNL1       -0.0043
     20 C         -10.1850  -18.1386   22.5483 C.ar    1  UNL1       -0.0218
     21 C         -11.2831  -18.8543   23.2777 C.ar    1  UNL1       -0.0043
     22 C         -12.5936  -18.1666   23.5221 C.ar    1  UNL1       -0.0003
@<TRIPOS>BOND
     1    17    18   ar
     2    18    19   ar
     3    19    20   ar
     4    20    16    1
     5    16     1    1
     6     1     7    1
     7     7     8    2
     8     8     9    1
     9     9    10    2
    10    10    11    1
    11    11    12    2
    12    12    13    1
    13    13    14    2
    14    14    15    1
    15     1     2    1
    16     2     3    1
    17     3     4    1
    18     4     5    1
    19    20    21   ar
    20    21    22   ar
    21    22    17   ar
    22     5     1    1
    23    15     7    1
    24    14    10    1
    25     4     6    1
@<TRIPOS>MOLECULE
*****
 22 25 0 0 0
SMALL
GASTEIGER

@<TRIPOS>ATOM
      1 C          -6.6119  -17.1183   23.0872 C.3     1  UNL1        0.0353
      2 C          -5.1615  -17.0353   23.4605 C.3     1  UNL1        0.0225
      3 C          -4.8750  -15.6290   23.8969 C.3     1  UNL1        0.0689
      4 N          -6.1483  -14.8430   23.7932 N.3     1  UNL1       -0.2972
      5 C          -7.2218  -15.7634   23.2928 C.3     1  UNL1        0.0726
      6 H          -6.0249  -14.0684   23.1412 H       1  UNL1        0.1233
      7 C          -7.9954  -17.5013   22.6519 C.2     1  UNL1       -0.0387
      8 C          -8.4322  -18.9348   22.7168 C.2     1  UNL1       -0.0066
      9 C          -9.8156  -19.3178   22.2815 C.2     1  UNL1        0.0182
     10 C         -10.7622  -18.2672   21.7812 C.2     1  UNL1        0.0777
     11 N         -12.1765  -18.3436   21.2875 N.2     1  UNL1       -0.2442
     12 C         -12.6138  -16.9573   20.9175 C.2     1  UNL1        0.0985
     13 C         -11.4697  -16.0241   21.1824 C.2     1  UNL1        0.0182
     14 C         -10.3253  -16.8337   21.7162 C.2     1  UNL1        0.0011
     15 C          -8.9419  -16.4508   22.1516 C.3     1  UNL1        0.0499
     16 C          -6.2913  -18.5533   22.7906 C.3     1  UNL1        0.0315
     17 C          -2.8035  -19.5774   20.1378 C.ar    1  UNL1       -0.0000
     18 C          -4.1082  -19.1537   19.5311 C.ar    1  UNL1       -0.0003
     19 C          -5.2708  -18.8123   20.4154 C.ar    1  UNL1       -0.0043
     20 C          -5.1287  -18.8946   21.9063 C.ar    1  UNL1       -0.0218
     21 C          -3.8239  -19.3183   22.5130 C.ar    1  UNL1       -0.0043
     22 C          -2.6613  -19.6597   21.6289 C.ar    1  UNL1       -0.0003
@<TRIPOS>BOND
     1    17    18   ar
     2    18    19   ar
     3    19    20   ar
     4    20    16    1
     5    16     1    1
     6     1     7    1
     7     7     8    2
     8     8     9    1
     9     9    10    2
    10    10    11    1
    11    11    12    2
    12    12    13    1
    13    13    14    2
    14    14    15    1
    15     1     2    1
    16     2     3    1
    17     3     4    1
    18     4     5    1
    19    20    21   ar
    20    21    22   ar
    21    22    17   ar
    22     5     1    1
    23    15     7    1
    24    14    10    1
    25     4     6    1
