@<TRIPOS>MOLECULE
*****
 35 38 0 0 0
SMALL
GASTEIGER

@<TRIPOS>ATOM
      1 C         -10.7950  -18.3732   24.8737 C.3     1  UNL1        0.1153
      2 N          -9.6017  -18.2637   23.9713 N.am    1  UNL1       -0.2714
      3 C          -9.1132  -19.4691   23.2243 C.2     1  UNL1        0.2661
      4 O          -9.8179  -20.7842   23.3795 O.2     1  UNL1       -0.2710
      5 C          -7.9199  -19.3596   22.3219 C.3     1  UNL1        0.2415
      6 C          -8.1050  -19.3317   20.8337 C.3     1  UNL1        0.0579
      7 C          -6.9118  -19.2221   19.9314 C.3     1  UNL1        0.0337
      8 C          -5.5334  -19.1405   20.5174 C.ar    1  UNL1        0.0132
      9 C          -4.3401  -19.0310   19.6151 C.ar    1  UNL1        0.0146
     10 C          -2.9617  -18.9494   20.2011 C.ar    1  UNL1        0.0643
     11 C          -2.7766  -18.9773   21.6894 C.ar    1  UNL1        0.0189
     12 C          -3.9699  -19.0868   22.5916 C.ar    1  UNL1        0.0379
     13 C          -5.3483  -19.1684   22.0057 C.ar    1  UNL1        0.1351
     14 O          -6.5415  -19.2780   22.9079 O.3     1  UNL1       -0.4703
     15 N          -1.7685  -18.8398   19.2988 N.pl3   1  UNL1       -0.2187
     16 H          -1.7387  -19.3508   18.4578 H       1  UNL1        0.1734
     17 S          -0.6205  -17.9518   19.6779 S.O2    1  UNL1        0.0558
     18 C           0.5274  -17.0638   20.0571 C.3     1  UNL1        0.1996
     19 O          -1.5428  -16.7691   19.7002 O.2     1  UNL1       -0.1544
     20 O           0.3018  -19.1345   19.6557 O.2     1  UNL1       -0.1544
     21 C          -8.8970  -16.9486   23.8161 C.3     1  UNL1        0.1139
     22 C          -8.1003  -16.3856   24.9556 C.ar    1  UNL1       -0.0029
     23 C          -6.7269  -15.8347   24.7103 C.ar    1  UNL1       -0.0026
     24 C          -5.9301  -15.2717   25.8496 C.ar    1  UNL1       -0.0003
     25 C          -6.5068  -15.2597   27.2343 C.ar    1  UNL1       -0.0000
     26 C          -7.8802  -15.8106   27.4796 C.ar    1  UNL1       -0.0003
     27 C          -8.6769  -16.3736   26.3402 C.ar    1  UNL1       -0.0026
     28 C          -8.9891  -16.1966   22.5216 C.3     1  UNL1        0.0968
     29 N         -10.2674  -16.2079   21.7369 N.3     1  UNL1       -0.2689
     30 C         -11.5616  -16.8314   22.1687 C.3     1  UNL1        0.0748
     31 C         -12.5701  -16.6064   21.0813 C.3     1  UNL1        0.0480
     32 C         -11.8992  -15.8439   19.9775 C.3     1  UNL1        0.1278
     33 O         -12.5391  -15.4048   18.6938 O.3     1  UNL1       -0.3830
     34 C         -10.4761  -15.5976   20.3827 C.3     1  UNL1        0.1017
     35 H         -11.8880  -14.9300   18.1539 H       1  UNL1        0.2104
@<TRIPOS>BOND
     1     1     2    1
     2     2     3   am
     3     3     4    2
     4     3     5    1
     5     5     6    1
     6     6     7    1
     7     7     8    1
     8     8     9   ar
     9     9    10   ar
    10    10    15    1
    11    15    17    1
    12    17    18    1
    13    17    19    2
    14    17    20    2
    15    10    11   ar
    16    11    12   ar
    17    12    13   ar
    18    13    14    1
    19     2    21    1
    20    21    28    1
    21    28    29    1
    22    29    30    1
    23    30    31    1
    24    31    32    1
    25    32    33    1
    26    32    34    1
    27    21    22    1
    28    22    23   ar
    29    23    24   ar
    30    24    25   ar
    31    25    26   ar
    32    26    27   ar
    33    14     5    1
    34    34    29    1
    35    27    22   ar
    36    13     8   ar
    37    15    16    1
    38    33    35    1
@<TRIPOS>MOLECULE
*****
 35 38 0 0 0
SMALL
GASTEIGER

@<TRIPOS>ATOM
      1 C         -11.0782  -18.8508   24.5528 C.3     1  UNL1        0.1153
      2 N          -9.9179  -18.6574   23.6219 N.am    1  UNL1       -0.2714
      3 C          -8.9864  -19.7981   23.3374 C.2     1  UNL1        0.2661
      4 O          -9.2151  -21.1322   23.9838 O.2     1  UNL1       -0.2710
      5 C          -7.8262  -19.6047   22.4065 C.3     1  UNL1        0.2415
      6 C          -8.0626  -19.4693   20.9315 C.3     1  UNL1        0.0579
      7 C          -6.9024  -19.2760   20.0006 C.3     1  UNL1        0.0337
      8 C          -5.5058  -19.2180   20.5448 C.ar    1  UNL1        0.0132
      9 C          -4.3455  -19.0246   19.6139 C.ar    1  UNL1        0.0146
     10 C          -2.9489  -18.9667   20.1581 C.ar    1  UNL1        0.0643
     11 C          -2.7126  -19.1021   21.6332 C.ar    1  UNL1        0.0189
     12 C          -3.8728  -19.2955   22.5640 C.ar    1  UNL1        0.0379
     13 C          -5.2694  -19.3534   22.0198 C.ar    1  UNL1        0.1351
     14 O          -6.4296  -19.5468   22.9507 O.3     1  UNL1       -0.4703
     15 N          -1.7887  -18.7733   19.2273 N.pl3   1  UNL1       -0.2187
     16 H          -1.8033  -19.1809   18.3312 H       1  UNL1        0.1734
     17 S          -0.6063  -17.9590   19.6617 S.O2    1  UNL1        0.0558
     18 C           0.5761  -17.1446   20.0960 C.3     1  UNL1        0.1996
     19 O          -1.4637  -16.7285   19.6889 O.2     1  UNL1       -0.1544
     20 O           0.2512  -19.1894   19.6344 O.2     1  UNL1       -0.1544
     21 C          -9.6893  -17.3233   22.9755 C.3     1  UNL1        0.1139
     22 C         -10.6266  -16.8352   21.9109 C.ar    1  UNL1       -0.0029
     23 C         -12.0788  -17.2073   21.9622 C.ar    1  UNL1       -0.0026
     24 C         -13.0161  -16.7192   20.8977 C.ar    1  UNL1       -0.0003
     25 C         -12.5012  -15.8591   19.7819 C.ar    1  UNL1       -0.0000
     26 C         -11.0490  -15.4870   19.7307 C.ar    1  UNL1       -0.0003
     27 C         -10.1117  -15.9750   20.7952 C.ar    1  UNL1       -0.0026
     28 C          -8.5234  -16.4772   23.3937 C.3     1  UNL1        0.0968
     29 N          -8.2715  -16.2138   24.8487 N.3     1  UNL1       -0.2689
     30 C          -8.9114  -16.9334   25.9987 C.3     1  UNL1        0.0748
     31 C          -8.3708  -16.3489   27.2700 C.3     1  UNL1        0.0480
     32 C          -7.3967  -15.2680   26.9057 C.3     1  UNL1        0.1278
     33 O          -6.6203  -14.4195   27.8686 O.3     1  UNL1       -0.3830
     34 C          -7.3353  -15.1845   25.4092 C.3     1  UNL1        0.1017
     35 H          -6.0628  -13.7979   27.3750 H       1  UNL1        0.2104
@<TRIPOS>BOND
     1     1     2    1
     2     2     3   am
     3     3     4    2
     4     3     5    1
     5     5     6    1
     6     6     7    1
     7     7     8    1
     8     8     9   ar
     9     9    10   ar
    10    10    15    1
    11    15    17    1
    12    17    18    1
    13    17    19    2
    14    17    20    2
    15    10    11   ar
    16    11    12   ar
    17    12    13   ar
    18    13    14    1
    19     2    21    1
    20    21    28    1
    21    28    29    1
    22    29    30    1
    23    30    31    1
    24    31    32    1
    25    32    33    1
    26    32    34    1
    27    21    22    1
    28    22    23   ar
    29    23    24   ar
    30    24    25   ar
    31    25    26   ar
    32    26    27   ar
    33    14     5    1
    34    34    29    1
    35    27    22   ar
    36    13     8   ar
    37    15    16    1
    38    33    35    1
