@<TRIPOS>MOLECULE
*****
 34 39 0 0 0
SMALL
GASTEIGER

@<TRIPOS>ATOM
      1 C           6.3570   -1.8098   25.7974 C.ar    1  UNL1        0.1002
      2 C           6.5353   -2.1694   24.3521 C.ar    1  UNL1        0.0415
      3 C           6.9802   -3.5506   23.9723 C.ar    1  UNL1        0.1068
      4 C           7.2467   -4.5722   25.0378 C.ar    1  UNL1        0.1412
      5 C           7.0684   -4.2126   26.4830 C.ar    1  UNL1        0.1213
      6 N           6.6235   -2.8314   26.8628 N.ar    1  UNL1       -0.2406
      7 N           7.6712   -5.8438   24.3648 N.ar    1  UNL1       -0.1269
      8 N           7.6671   -5.6081   22.8835 N.ar    1  UNL1       -0.0595
      9 N           7.2400   -4.1908   22.6409 N.ar    1  UNL1       -0.2103
     10 C           7.0977   -3.5298   21.3020 C.ar    1  UNL1        0.0858
     11 C           8.3194   -3.1623   20.5132 C.ar    1  UNL1        0.0206
     12 C           8.1771   -2.5013   19.1743 C.ar    1  UNL1        0.0195
     13 C           6.8129   -2.2076   18.6241 C.ar    1  UNL1        0.0904
     14 N           6.3633   -1.5699   17.3430 N.am    1  UNL1       -0.1594
     15 C           4.8635   -1.5431   17.3400 C.2     1  UNL1        0.3478
     16 O           3.9937   -0.9920   16.2494 O.2     1  UNL1       -0.2484
     17 N           4.3863   -2.1644   18.6192 N.am    1  UNL1       -0.1593
     18 C           5.5911   -2.5750   19.4128 C.ar    1  UNL1        0.0918
     19 C           5.7334   -3.2361   20.7517 C.ar    1  UNL1        0.0372
     20 N           4.5183    0.1129   26.0580 N.ar    1  UNL1       -0.2449
     21 N           4.5277    1.5298   26.5500 N.ar    1  UNL1       -0.1673
     22 C           5.9274    1.8642   26.9734 C.ar    1  UNL1        0.1217
     23 C           6.7830    0.6539   26.7430 C.ar    1  UNL1        0.0427
     24 C           5.9121   -0.4285   26.1772 C.ar    1  UNL1        0.0974
     25 C           3.3247   -0.6319   25.5379 C.3     1  UNL1        0.1547
     26 C           1.8624    0.1062   21.3467 C.ar    1  UNL1        0.0693
     27 C           2.8836   -0.9610   21.6077 C.ar    1  UNL1        0.0101
     28 C           3.3710   -1.2071   23.0048 C.ar    1  UNL1       -0.0008
     29 C           2.8372   -0.3858   24.1409 C.ar    1  UNL1        0.0127
     30 C           1.8160    0.6814   23.8799 C.ar    1  UNL1        0.0562
     31 CL          1.2823    1.5026   25.0160 Cl      1  UNL1       -0.0825
     32 C           1.3286    0.9274   22.4828 C.ar    1  UNL1        0.0214
     33 N           0.8875    0.5985   18.5525 N.1     1  UNL1       -0.1908
     34 C           1.3749    0.3523   19.9496 C.1     1  UNL1        0.1004
@<TRIPOS>BOND
     1    33    34    3
     2    34    26    1
     3    26    27   ar
     4    27    28   ar
     5    28    29   ar
     6    29    25    1
     7    25    20    1
     8    20    21   ar
     9    21    22   ar
    10    22    23   ar
    11    23    24   ar
    12    24     1    1
    13     1     2   ar
    14     2     3   ar
    15     3     4   ar
    16     4     5   ar
    17     5     6   ar
    18     4     7   ar
    19     7     8   ar
    20     8     9   ar
    21     9    10    1
    22    10    11   ar
    23    11    12   ar
    24    12    13   ar
    25    13    14    2
    26    14    15    1
    27    15    16    2
    28    15    17    1
    29    17    18    2
    30    18    19   ar
    31    29    30   ar
    32    30    31    1
    33    30    32   ar
    34    32    26   ar
    35    24    20   ar
    36     6     1   ar
    37    19    10   ar
    38     9     3   ar
    39    18    13   ar
@<TRIPOS>MOLECULE
*****
 34 39 0 0 0
SMALL
GASTEIGER

@<TRIPOS>ATOM
      1 C          -0.4804    3.0403   22.9781 C.ar    1  UNL1        0.1002
      2 C           0.2416    2.2446   21.9314 C.ar    1  UNL1        0.0415
      3 C           0.0211    2.5428   20.4780 C.ar    1  UNL1        0.1068
      4 C          -0.9213    3.6366   20.0713 C.ar    1  UNL1        0.1412
      5 C          -1.6432    4.4323   21.1180 C.ar    1  UNL1        0.1213
      6 N          -1.4228    4.1341   22.5714 N.ar    1  UNL1       -0.2406
      7 N          -0.9371    3.7014   18.5728 N.ar    1  UNL1       -0.1269
      8 N          -0.0045    2.6477   18.0533 N.ar    1  UNL1       -0.0595
      9 N           0.5877    1.9316   19.2308 N.ar    1  UNL1       -0.2103
     10 C           1.5734    0.8025   19.1716 C.ar    1  UNL1        0.0858
     11 C           1.3120   -0.4622   19.9344 C.ar    1  UNL1        0.0206
     12 C           2.2977   -1.5913   19.8751 C.ar    1  UNL1        0.0195
     13 C           3.5450   -1.4556   19.0530 C.ar    1  UNL1        0.0904
     14 N           4.6903   -2.3918   18.8048 N.am    1  UNL1       -0.1594
     15 C           5.6597   -1.7058   17.8886 C.2     1  UNL1        0.3478
     16 O           6.9489   -2.2792   17.3797 O.2     1  UNL1       -0.2484
     17 N           5.1135   -0.3454   17.5705 N.am    1  UNL1       -0.1593
     18 C           3.8066   -0.1908   18.2902 C.ar    1  UNL1        0.0918
     19 C           2.8208    0.9382   18.3494 C.ar    1  UNL1        0.0372
     20 N           1.0648    2.4913   25.0892 N.ar    1  UNL1       -0.2449
     21 N           0.8180    2.2367   26.5467 N.ar    1  UNL1       -0.1673
     22 C          -0.6593    2.3301   26.7899 C.ar    1  UNL1        0.1217
     23 C          -1.3254    2.6425   25.4827 C.ar    1  UNL1        0.0427
     24 C          -0.2599    2.7422   24.4316 C.ar    1  UNL1        0.0974
     25 C           2.4015    2.4946   24.4087 C.3     1  UNL1        0.1547
     26 C           4.2592   -1.3825   23.0796 C.ar    1  UNL1        0.0693
     27 C           3.5319   -1.3095   24.3894 C.ar    1  UNL1        0.0101
     28 C           2.9126   -0.0171   24.8324 C.ar    1  UNL1       -0.0008
     29 C           3.0208    1.2023   23.9656 C.ar    1  UNL1        0.0127
     30 C           3.7481    1.1294   22.6558 C.ar    1  UNL1        0.0562
     31 CL          3.8563    2.3488   21.7891 Cl      1  UNL1       -0.0825
     32 C           4.3674   -0.1630   22.2128 C.ar    1  UNL1        0.0214
     33 N           5.4978   -3.9672   22.1934 N.1     1  UNL1       -0.1908
     34 C           4.8785   -2.6748   22.6365 C.1     1  UNL1        0.1004
@<TRIPOS>BOND
     1    33    34    3
     2    34    26    1
     3    26    27   ar
     4    27    28   ar
     5    28    29   ar
     6    29    25    1
     7    25    20    1
     8    20    21   ar
     9    21    22   ar
    10    22    23   ar
    11    23    24   ar
    12    24     1    1
    13     1     2   ar
    14     2     3   ar
    15     3     4   ar
    16     4     5   ar
    17     5     6   ar
    18     4     7   ar
    19     7     8   ar
    20     8     9   ar
    21     9    10    1
    22    10    11   ar
    23    11    12   ar
    24    12    13   ar
    25    13    14    2
    26    14    15    1
    27    15    16    2
    28    15    17    1
    29    17    18    2
    30    18    19   ar
    31    29    30   ar
    32    30    31    1
    33    30    32   ar
    34    32    26   ar
    35    24    20   ar
    36     6     1   ar
    37    19    10   ar
    38     9     3   ar
    39    18    13   ar
@<TRIPOS>MOLECULE
*****
 34 39 0 0 0
SMALL
GASTEIGER

@<TRIPOS>ATOM
      1 C          -0.8690    3.9126   18.6295 C.ar    1  UNL1        0.1002
      2 C          -2.1828    3.9882   19.3493 C.ar    1  UNL1        0.0415
      3 C          -3.4607    4.0835   18.5696 C.ar    1  UNL1        0.1068
      4 C          -3.4247    4.1032   17.0702 C.ar    1  UNL1        0.1412
      5 C          -2.1109    4.0275   16.3504 C.ar    1  UNL1        0.1213
      6 N          -0.8330    3.9322   17.1301 N.ar    1  UNL1       -0.2406
      7 N          -4.8367    4.2031   16.5739 N.ar    1  UNL1       -0.1269
      8 N          -5.7454    4.2452   17.7667 N.ar    1  UNL1       -0.0595
      9 N          -4.8949    4.1713   19.0000 N.ar    1  UNL1       -0.2103
     10 C          -5.3915    4.1831   20.4154 C.ar    1  UNL1        0.0858
     11 C          -4.7492    3.2992   21.4430 C.ar    1  UNL1        0.0206
     12 C          -5.2457    3.3110   22.8584 C.ar    1  UNL1        0.0195
     13 C          -6.3847    4.2068   23.2462 C.ar    1  UNL1        0.0904
     14 N          -7.0843    4.4320   24.5538 N.am    1  UNL1       -0.1594
     15 C          -8.1590    5.4551   24.3344 C.2     1  UNL1        0.3478
     16 O          -9.1033    5.9791   25.3753 O.2     1  UNL1       -0.2484
     17 N          -8.1236    5.8622   22.8911 N.am    1  UNL1       -0.1593
     18 C          -7.0271    5.0907   22.2186 C.ar    1  UNL1        0.0918
     19 C          -6.5305    5.0789   20.8032 C.ar    1  UNL1        0.0372
     20 N           1.4350    2.7295   19.2908 N.ar    1  UNL1       -0.2449
     21 N           2.5454    3.0329   20.2525 N.ar    1  UNL1       -0.1673
     22 C           2.2056    4.3083   20.9653 C.ar    1  UNL1        0.1217
     23 C           0.8852    4.7930   20.4441 C.ar    1  UNL1        0.0427
     24 C           0.4090    3.8173   19.4092 C.ar    1  UNL1        0.0974
     25 C           1.3632    1.5460   18.3719 C.3     1  UNL1        0.1547
     26 C           3.8125   -2.1280   19.2393 C.ar    1  UNL1        0.0693
     27 C           4.1983   -1.2186   18.1104 C.ar    1  UNL1        0.0101
     28 C           3.3818    0.0060   17.8214 C.ar    1  UNL1       -0.0008
     29 C           2.1796    0.3214   18.6611 C.ar    1  UNL1        0.0127
     30 C           1.7938   -0.5880   19.7899 C.ar    1  UNL1        0.0562
     31 CL          0.5916   -0.2726   20.6297 Cl      1  UNL1       -0.0825
     32 C           2.6102   -1.8126   20.0790 C.ar    1  UNL1        0.0214
     33 N           5.4453   -4.5774   19.8175 N.1     1  UNL1       -0.1908
     34 C           4.6289   -3.3527   19.5285 C.1     1  UNL1        0.1004
@<TRIPOS>BOND
     1    33    34    3
     2    34    26    1
     3    26    27   ar
     4    27    28   ar
     5    28    29   ar
     6    29    25    1
     7    25    20    1
     8    20    21   ar
     9    21    22   ar
    10    22    23   ar
    11    23    24   ar
    12    24     1    1
    13     1     2   ar
    14     2     3   ar
    15     3     4   ar
    16     4     5   ar
    17     5     6   ar
    18     4     7   ar
    19     7     8   ar
    20     8     9   ar
    21     9    10    1
    22    10    11   ar
    23    11    12   ar
    24    12    13   ar
    25    13    14    2
    26    14    15    1
    27    15    16    2
    28    15    17    1
    29    17    18    2
    30    18    19   ar
    31    29    30   ar
    32    30    31    1
    33    30    32   ar
    34    32    26   ar
    35    24    20   ar
    36     6     1   ar
    37    19    10   ar
    38     9     3   ar
    39    18    13   ar
@<TRIPOS>MOLECULE
*****
 34 39 0 0 0
SMALL
GASTEIGER

@<TRIPOS>ATOM
      1 C          -9.1360  -16.0045   22.9212 C.ar    1  UNL1        0.1002
      2 C          -7.6772  -16.3514   22.9568 C.ar    1  UNL1        0.0415
      3 C          -6.8754  -16.0948   24.1982 C.ar    1  UNL1        0.1068
      4 C          -7.5325  -15.4914   25.4041 C.ar    1  UNL1        0.1412
      5 C          -8.9913  -15.1445   25.3685 C.ar    1  UNL1        0.1213
      6 N          -9.7931  -15.4010   24.1270 N.ar    1  UNL1       -0.2406
      7 N          -6.4941  -15.3545   26.4779 N.ar    1  UNL1       -0.1269
      8 N          -5.1953  -15.8734   25.9358 N.ar    1  UNL1       -0.0595
      9 N          -5.4310  -16.3310   24.5269 N.ar    1  UNL1       -0.2103
     10 C          -4.4028  -16.9210   23.6079 C.ar    1  UNL1        0.0858
     11 C          -4.3362  -18.4066   23.4119 C.ar    1  UNL1        0.0206
     12 C          -3.3080  -18.9967   22.4929 C.ar    1  UNL1        0.0195
     13 C          -2.3462  -18.1011   21.7698 C.ar    1  UNL1        0.0904
     14 N          -1.2330  -18.3923   20.8076 N.am    1  UNL1       -0.1594
     15 C          -0.6115  -17.0868   20.4088 C.2     1  UNL1        0.3478
     16 O           0.5374  -16.9103   19.4607 O.2     1  UNL1       -0.2484
     17 N          -1.3406  -15.9885   21.1245 N.am    1  UNL1       -0.1593
     18 C          -2.4127  -16.6154   21.9657 C.ar    1  UNL1        0.0918
     19 C          -3.4410  -16.0253   22.8847 C.ar    1  UNL1        0.0372
     20 N         -10.2113  -17.6032   21.0683 N.ar    1  UNL1       -0.2449
     21 N         -11.0495  -17.3922   19.8424 N.ar    1  UNL1       -0.1673
     22 C         -11.2942  -15.9195   19.6961 C.ar    1  UNL1        0.1217
     23 C         -10.6072  -15.2204   20.8316 C.ar    1  UNL1        0.0427
     24 C          -9.9379  -16.2610   21.6797 C.ar    1  UNL1        0.0974
     25 C          -9.7308  -18.9245   21.5910 C.3     1  UNL1        0.1547
     26 C          -5.6197  -20.4078   20.5195 C.ar    1  UNL1        0.0693
     27 C          -6.3687  -19.5217   19.5688 C.ar    1  UNL1        0.0101
     28 C          -7.7391  -19.0273   19.9260 C.ar    1  UNL1       -0.0008
     29 C          -8.3604  -19.4190   21.2339 C.ar    1  UNL1        0.0127
     30 C          -7.6114  -20.3050   22.1846 C.ar    1  UNL1        0.0562
     31 CL         -8.2327  -20.6967   23.4925 Cl      1  UNL1       -0.0825
     32 C          -6.2410  -20.7994   21.8274 C.ar    1  UNL1        0.0214
     33 N          -2.8788  -21.3967   19.8054 N.1     1  UNL1       -0.1908
     34 C          -4.2492  -20.9022   20.1624 C.1     1  UNL1        0.1004
@<TRIPOS>BOND
     1    33    34    3
     2    34    26    1
     3    26    27   ar
     4    27    28   ar
     5    28    29   ar
     6    29    25    1
     7    25    20    1
     8    20    21   ar
     9    21    22   ar
    10    22    23   ar
    11    23    24   ar
    12    24     1    1
    13     1     2   ar
    14     2     3   ar
    15     3     4   ar
    16     4     5   ar
    17     5     6   ar
    18     4     7   ar
    19     7     8   ar
    20     8     9   ar
    21     9    10    1
    22    10    11   ar
    23    11    12   ar
    24    12    13   ar
    25    13    14    2
    26    14    15    1
    27    15    16    2
    28    15    17    1
    29    17    18    2
    30    18    19   ar
    31    29    30   ar
    32    30    31    1
    33    30    32   ar
    34    32    26   ar
    35    24    20   ar
    36     6     1   ar
    37    19    10   ar
    38     9     3   ar
    39    18    13   ar
@<TRIPOS>MOLECULE
*****
 34 39 0 0 0
SMALL
GASTEIGER

@<TRIPOS>ATOM
      1 C           6.6308   -3.5366   25.5458 C.ar    1  UNL1        0.1002
      2 C           6.8223   -3.5034   24.0584 C.ar    1  UNL1        0.0415
      3 C           7.4553   -4.6687   23.3575 C.ar    1  UNL1        0.1068
      4 C           7.8969   -5.8672   24.1440 C.ar    1  UNL1        0.1412
      5 C           7.7055   -5.9004   25.6313 C.ar    1  UNL1        0.1213
      6 N           7.0725   -4.7351   26.3322 N.ar    1  UNL1       -0.2406
      7 N           8.4861   -6.8592   23.1854 N.ar    1  UNL1       -0.1269
      8 N           8.4086   -6.2737   21.8065 N.ar    1  UNL1       -0.0595
      9 N           7.7716   -4.9199   21.9129 N.ar    1  UNL1       -0.2103
     10 C           7.4987   -3.9820   20.7746 C.ar    1  UNL1        0.0858
     11 C           8.6177   -3.1812   20.1777 C.ar    1  UNL1        0.0206
     12 C           8.3448   -2.2433   19.0394 C.ar    1  UNL1        0.0195
     13 C           6.9527   -2.1062   18.4979 C.ar    1  UNL1        0.0904
     14 N           6.3843   -1.2684   17.3911 N.am    1  UNL1       -0.1594
     15 C           4.9138   -1.5514   17.3038 C.2     1  UNL1        0.3478
     16 O           3.9525   -0.9308   16.3340 O.2     1  UNL1       -0.2484
     17 N           4.5735   -2.5641   18.3568 N.am    1  UNL1       -0.1593
     18 C           5.8335   -2.9069   19.0947 C.ar    1  UNL1        0.0918
     19 C           6.1065   -3.8449   20.2330 C.ar    1  UNL1        0.0372
     20 N           5.8597   -0.9818   25.6988 N.ar    1  UNL1       -0.2449
     21 N           5.1682   -0.1426   26.7320 N.ar    1  UNL1       -0.1673
     22 C           4.8790   -1.0135   27.9186 C.ar    1  UNL1        0.1217
     23 C           5.3917   -2.3908   27.6187 C.ar    1  UNL1        0.0427
     24 C           5.9978   -2.3713   26.2467 C.ar    1  UNL1        0.0974
     25 C           6.3303   -0.5137   24.3537 C.3     1  UNL1        0.1547
     26 C           3.4034   -0.1158   20.9589 C.ar    1  UNL1        0.0693
     27 C           2.9232   -0.5283   22.3187 C.ar    1  UNL1        0.0101
     28 C           3.8989   -0.6610   23.4503 C.ar    1  UNL1       -0.0008
     29 C           5.3547   -0.3810   23.2220 C.ar    1  UNL1        0.0127
     30 C           5.8350    0.0316   21.8622 C.ar    1  UNL1        0.0562
     31 CL          7.2908    0.3115   21.6339 Cl      1  UNL1       -0.0825
     32 C           4.8593    0.1642   20.7306 C.ar    1  UNL1        0.0214
     33 N           1.4522    0.1494   18.6955 N.1     1  UNL1       -0.1908
     34 C           2.4278    0.0169   19.8272 C.1     1  UNL1        0.1004
@<TRIPOS>BOND
     1    33    34    3
     2    34    26    1
     3    26    27   ar
     4    27    28   ar
     5    28    29   ar
     6    29    25    1
     7    25    20    1
     8    20    21   ar
     9    21    22   ar
    10    22    23   ar
    11    23    24   ar
    12    24     1    1
    13     1     2   ar
    14     2     3   ar
    15     3     4   ar
    16     4     5   ar
    17     5     6   ar
    18     4     7   ar
    19     7     8   ar
    20     8     9   ar
    21     9    10    1
    22    10    11   ar
    23    11    12   ar
    24    12    13   ar
    25    13    14    2
    26    14    15    1
    27    15    16    2
    28    15    17    1
    29    17    18    2
    30    18    19   ar
    31    29    30   ar
    32    30    31    1
    33    30    32   ar
    34    32    26   ar
    35    24    20   ar
    36     6     1   ar
    37    19    10   ar
    38     9     3   ar
    39    18    13   ar
@<TRIPOS>MOLECULE
*****
 34 39 0 0 0
SMALL
GASTEIGER

@<TRIPOS>ATOM
      1 C           5.2585   -3.5814   22.1265 C.ar    1  UNL1        0.1002
      2 C           4.8084   -2.7891   23.3178 C.ar    1  UNL1        0.0415
      3 C           5.6730   -2.7180   24.5415 C.ar    1  UNL1        0.1068
      4 C           6.9878   -3.4394   24.5737 C.ar    1  UNL1        0.1412
      5 C           7.4379   -4.2317   23.3823 C.ar    1  UNL1        0.1213
      6 N           6.5733   -4.3028   22.1587 N.ar    1  UNL1       -0.2406
      7 N           7.6216   -3.1881   25.9098 N.ar    1  UNL1       -0.1269
      8 N           6.6986   -2.3116   26.7033 N.ar    1  UNL1       -0.0595
      9 N           5.4943   -2.0210   25.8576 N.ar    1  UNL1       -0.2103
     10 C           4.3178   -1.1809   26.2578 C.ar    1  UNL1        0.0858
     11 C           3.7486   -0.1807   25.2959 C.ar    1  UNL1        0.0206
     12 C           2.5721    0.6594   25.6961 C.ar    1  UNL1        0.0195
     13 C           1.9648    0.4992   27.0583 C.ar    1  UNL1        0.0904
     14 N           0.8095    1.1816   27.7287 N.am    1  UNL1       -0.1594
     15 C           0.6646    0.6031   29.1050 C.2     1  UNL1        0.3478
     16 O          -0.3652    0.9955   30.1225 O.2     1  UNL1       -0.2484
     17 N           1.7305   -0.4369   29.2852 N.am    1  UNL1       -0.1593
     18 C           2.5340   -0.5011   28.0203 C.ar    1  UNL1        0.0918
     19 C           3.7105   -1.3412   27.6201 C.ar    1  UNL1        0.0372
     20 N           3.7955   -2.4841   20.1769 N.ar    1  UNL1       -0.2449
     21 N           3.0077   -3.0139   19.0156 N.ar    1  UNL1       -0.1673
     22 C           3.1192   -4.5098   19.0237 C.ar    1  UNL1        0.1217
     23 C           3.9759   -4.9044   20.1900 C.ar    1  UNL1        0.0427
     24 C           4.3939   -3.6525   20.9027 C.ar    1  UNL1        0.0974
     25 C           3.9567   -1.0396   20.5473 C.3     1  UNL1        0.1547
     26 C           0.3515    1.6452   20.7578 C.ar    1  UNL1        0.0693
     27 C           0.8799    0.9999   22.0046 C.ar    1  UNL1        0.0101
     28 C           2.0816    0.1050   21.9344 C.ar    1  UNL1       -0.0008
     29 C           2.7549   -0.1446   20.6174 C.ar    1  UNL1        0.0127
     30 C           2.2265    0.5006   19.3707 C.ar    1  UNL1        0.0562
     31 CL          2.8998    0.2510   18.0538 Cl      1  UNL1       -0.0825
     32 C           1.0248    1.3955   19.4409 C.ar    1  UNL1        0.0214
     33 N          -2.0520    3.4352   20.8980 N.1     1  UNL1       -0.1908
     34 C          -0.8503    2.5402   20.8279 C.1     1  UNL1        0.1004
@<TRIPOS>BOND
     1    33    34    3
     2    34    26    1
     3    26    27   ar
     4    27    28   ar
     5    28    29   ar
     6    29    25    1
     7    25    20    1
     8    20    21   ar
     9    21    22   ar
    10    22    23   ar
    11    23    24   ar
    12    24     1    1
    13     1     2   ar
    14     2     3   ar
    15     3     4   ar
    16     4     5   ar
    17     5     6   ar
    18     4     7   ar
    19     7     8   ar
    20     8     9   ar
    21     9    10    1
    22    10    11   ar
    23    11    12   ar
    24    12    13   ar
    25    13    14    2
    26    14    15    1
    27    15    16    2
    28    15    17    1
    29    17    18    2
    30    18    19   ar
    31    29    30   ar
    32    30    31    1
    33    30    32   ar
    34    32    26   ar
    35    24    20   ar
    36     6     1   ar
    37    19    10   ar
    38     9     3   ar
    39    18    13   ar
@<TRIPOS>MOLECULE
*****
 34 39 0 0 0
SMALL
GASTEIGER

@<TRIPOS>ATOM
      1 C          -1.0576    3.5896   22.2157 C.ar    1  UNL1        0.1002
      2 C          -0.8739    3.3198   23.6797 C.ar    1  UNL1        0.0415
      3 C          -2.0530    3.3709   24.6055 C.ar    1  UNL1        0.1068
      4 C          -3.4158    3.6918   24.0672 C.ar    1  UNL1        0.1412
      5 C          -3.5995    3.9616   22.6032 C.ar    1  UNL1        0.1213
      6 N          -2.4204    3.9105   21.6774 N.ar    1  UNL1       -0.2406
      7 N          -4.3835    3.6709   25.2131 N.ar    1  UNL1       -0.1269
      8 N          -3.6188    3.3371   26.4596 N.ar    1  UNL1       -0.0595
      9 N          -2.1785    3.1517   26.0840 N.ar    1  UNL1       -0.2103
     10 C          -1.0600    2.8074   27.0223 C.ar    1  UNL1        0.0858
     11 C          -0.0228    3.8362   27.3624 C.ar    1  UNL1        0.0206
     12 C           1.0957    3.4920   28.3007 C.ar    1  UNL1        0.0195
     13 C           1.1771    2.1189   28.8989 C.ar    1  UNL1        0.0904
     14 N           2.1564    1.4938   29.8477 N.am    1  UNL1       -0.1594
     15 C           1.7246    0.0787   30.0940 C.2     1  UNL1        0.3478
     16 O           2.4173   -0.9129   30.9811 O.2     1  UNL1       -0.2484
     17 N           0.4783   -0.1709   29.2975 N.am    1  UNL1       -0.1593
     18 C           0.1400    1.0900   28.5589 C.ar    1  UNL1        0.0918
     19 C          -0.9786    1.4342   27.6206 C.ar    1  UNL1        0.0372
     20 N           0.8765    2.3052   20.8910 N.ar    1  UNL1       -0.2449
     21 N           1.9742    2.7161   19.9550 N.ar    1  UNL1       -0.1673
     22 C           1.8977    4.2034   19.7754 C.ar    1  UNL1        0.1217
     23 C           0.7527    4.7116   20.6004 C.ar    1  UNL1        0.0427
     24 C           0.1215    3.5385   21.2899 C.ar    1  UNL1        0.0974
     25 C           0.5849    0.9066   21.3478 C.3     1  UNL1        0.1547
     26 C           3.8499   -2.1900   21.3396 C.ar    1  UNL1        0.0693
     27 C           3.0434   -1.9472   20.0984 C.ar    1  UNL1        0.0101
     28 C           1.9550   -0.9150   20.1012 C.ar    1  UNL1       -0.0008
     29 C           1.6732   -0.1256   21.3451 C.ar    1  UNL1        0.0127
     30 C           2.4797   -0.3684   22.5863 C.ar    1  UNL1        0.0562
     31 CL          2.1979    0.4209   23.8303 Cl      1  UNL1       -0.0825
     32 C           3.5681   -1.4007   22.5835 C.ar    1  UNL1        0.0214
     33 N           6.0267   -4.2545   21.3341 N.1     1  UNL1       -0.1908
     34 C           4.9383   -3.2223   21.3369 C.1     1  UNL1        0.1004
@<TRIPOS>BOND
     1    33    34    3
     2    34    26    1
     3    26    27   ar
     4    27    28   ar
     5    28    29   ar
     6    29    25    1
     7    25    20    1
     8    20    21   ar
     9    21    22   ar
    10    22    23   ar
    11    23    24   ar
    12    24     1    1
    13     1     2   ar
    14     2     3   ar
    15     3     4   ar
    16     4     5   ar
    17     5     6   ar
    18     4     7   ar
    19     7     8   ar
    20     8     9   ar
    21     9    10    1
    22    10    11   ar
    23    11    12   ar
    24    12    13   ar
    25    13    14    2
    26    14    15    1
    27    15    16    2
    28    15    17    1
    29    17    18    2
    30    18    19   ar
    31    29    30   ar
    32    30    31    1
    33    30    32   ar
    34    32    26   ar
    35    24    20   ar
    36     6     1   ar
    37    19    10   ar
    38     9     3   ar
    39    18    13   ar
@<TRIPOS>MOLECULE
*****
 34 39 0 0 0
SMALL
GASTEIGER

@<TRIPOS>ATOM
      1 C           4.0757   -1.9502   21.1242 C.ar    1  UNL1        0.1002
      2 C           4.8748   -2.4409   22.2949 C.ar    1  UNL1        0.0415
      3 C           6.0058   -3.4025   22.0807 C.ar    1  UNL1        0.1068
      4 C           6.3378   -3.8734   20.6958 C.ar    1  UNL1        0.1412
      5 C           5.5388   -3.3827   19.5251 C.ar    1  UNL1        0.1213
      6 N           4.4077   -2.4211   19.7392 N.ar    1  UNL1       -0.2406
      7 N           7.5003   -4.8164   20.7931 N.ar    1  UNL1       -0.1269
      8 N           7.8867   -4.9283   22.2381 N.ar    1  UNL1       -0.0595
      9 N           6.9631   -4.0545   23.0339 N.ar    1  UNL1       -0.2103
     10 C           6.9917   -3.8657   24.5217 C.ar    1  UNL1        0.0858
     11 C           7.2066   -2.4987   25.1003 C.ar    1  UNL1        0.0206
     12 C           7.2352   -2.3099   26.5881 C.ar    1  UNL1        0.0195
     13 C           7.0488   -3.4883   27.4974 C.ar    1  UNL1        0.0904
     14 N           7.0286   -3.6092   28.9923 N.am    1  UNL1       -0.1594
     15 C           6.8011   -5.0511   29.3377 C.2     1  UNL1        0.3478
     16 O           6.7100   -5.6225   30.7215 O.2     1  UNL1       -0.2484
     17 N           6.6807   -5.8213   28.0562 N.am    1  UNL1       -0.1593
     18 C           6.8338   -4.8554   26.9188 C.ar    1  UNL1        0.0918
     19 C           6.8053   -5.0442   25.4310 C.ar    1  UNL1        0.0372
     20 N           2.8614    0.0482   22.4192 N.ar    1  UNL1       -0.2449
     21 N           1.5635    0.7827   22.2581 N.ar    1  UNL1       -0.1673
     22 C           0.8445    0.1999   21.0777 C.ar    1  UNL1        0.1217
     23 C           1.6980   -0.8948   20.5092 C.ar    1  UNL1        0.0427
     24 C           2.9445   -0.9885   21.3383 C.ar    1  UNL1        0.0974
     25 C           3.8947    0.3054   23.4757 C.3     1  UNL1        0.1547
     26 C           2.8879   -0.3437   27.8132 C.ar    1  UNL1        0.0693
     27 C           3.5461   -1.4366   27.0244 C.ar    1  UNL1        0.0101
     28 C           3.8817   -1.2202   25.5786 C.ar    1  UNL1       -0.0008
     29 C           3.5591    0.0891   24.9215 C.ar    1  UNL1        0.0127
     30 C           2.9008    1.1820   25.7103 C.ar    1  UNL1        0.0562
     31 CL          2.5782    2.4913   25.0533 Cl      1  UNL1       -0.0825
     32 C           2.5652    0.9656   27.1562 C.ar    1  UNL1        0.0214
     33 N           2.2166   -0.7763   30.7050 N.1     1  UNL1       -0.1908
     34 C           2.5522   -0.5599   29.2592 C.1     1  UNL1        0.1004
@<TRIPOS>BOND
     1    33    34    3
     2    34    26    1
     3    26    27   ar
     4    27    28   ar
     5    28    29   ar
     6    29    25    1
     7    25    20    1
     8    20    21   ar
     9    21    22   ar
    10    22    23   ar
    11    23    24   ar
    12    24     1    1
    13     1     2   ar
    14     2     3   ar
    15     3     4   ar
    16     4     5   ar
    17     5     6   ar
    18     4     7   ar
    19     7     8   ar
    20     8     9   ar
    21     9    10    1
    22    10    11   ar
    23    11    12   ar
    24    12    13   ar
    25    13    14    2
    26    14    15    1
    27    15    16    2
    28    15    17    1
    29    17    18    2
    30    18    19   ar
    31    29    30   ar
    32    30    31    1
    33    30    32   ar
    34    32    26   ar
    35    24    20   ar
    36     6     1   ar
    37    19    10   ar
    38     9     3   ar
    39    18    13   ar
@<TRIPOS>MOLECULE
*****
 34 39 0 0 0
SMALL
GASTEIGER

@<TRIPOS>ATOM
      1 C          -0.0886    2.4958   25.3368 C.ar    1  UNL1        0.1002
      2 C           0.3511    2.0971   23.9593 C.ar    1  UNL1        0.0415
      3 C           0.0387    2.9798   22.7875 C.ar    1  UNL1        0.1068
      4 C          -0.7133    4.2613   22.9932 C.ar    1  UNL1        0.1412
      5 C          -1.1529    4.6600   24.3708 C.ar    1  UNL1        0.1213
      6 N          -0.8406    3.7773   25.5426 N.ar    1  UNL1       -0.2406
      7 N          -0.8757    4.9230   21.6569 N.ar    1  UNL1       -0.1269
      8 N          -0.2241    4.0506   20.6253 N.ar    1  UNL1       -0.0595
      9 N           0.3410    2.8496   21.3241 N.ar    1  UNL1       -0.2103
     10 C           1.0790    1.7172   20.6736 C.ar    1  UNL1        0.0858
     11 C           0.5116    0.3294   20.7163 C.ar    1  UNL1        0.0206
     12 C           1.2495   -0.8030   20.0659 C.ar    1  UNL1        0.0195
     13 C           2.5549   -0.5476   19.3726 C.ar    1  UNL1        0.0904
     14 N           3.5015   -1.4579   18.6480 N.am    1  UNL1       -0.1594
     15 C           4.6540   -0.6328   18.1573 C.2     1  UNL1        0.3478
     16 O           5.8337   -1.1390   17.3815 O.2     1  UNL1       -0.2484
     17 N           4.4197    0.7876   18.5787 N.am    1  UNL1       -0.1593
     18 C           3.1224    0.8402   19.3298 C.ar    1  UNL1        0.0918
     19 C           2.3844    1.9727   19.9802 C.ar    1  UNL1        0.0372
     20 N           1.5639    1.0244   26.8367 N.ar    1  UNL1       -0.2449
     21 N           1.4192    0.2115   28.0890 N.ar    1  UNL1       -0.1673
     22 C          -0.0104    0.2978   28.5350 C.ar    1  UNL1        0.1217
     23 C          -0.7492    1.1640   27.5584 C.ar    1  UNL1        0.0427
     24 C           0.2237    1.6131   26.5087 C.ar    1  UNL1        0.0974
     25 C           2.8269    1.2151   26.0504 C.3     1  UNL1        0.1547
     26 C           4.4336   -2.1443   23.5240 C.ar    1  UNL1        0.0693
     27 C           3.3886   -1.2222   22.9692 C.ar    1  UNL1        0.0101
     28 C           2.8531   -0.1024   23.8114 C.ar    1  UNL1       -0.0008
     29 C           3.3625    0.0953   25.2083 C.ar    1  UNL1        0.0127
     30 C           4.4075   -0.8268   25.7631 C.ar    1  UNL1        0.0562
     31 CL          4.9169   -0.6291   27.1600 Cl      1  UNL1       -0.0825
     32 C           4.9430   -1.9466   24.9209 C.ar    1  UNL1        0.0214
     33 N           5.5049   -4.3840   21.8398 N.1     1  UNL1       -0.1908
     34 C           4.9692   -3.2642   22.6819 C.1     1  UNL1        0.1004
@<TRIPOS>BOND
     1    33    34    3
     2    34    26    1
     3    26    27   ar
     4    27    28   ar
     5    28    29   ar
     6    29    25    1
     7    25    20    1
     8    20    21   ar
     9    21    22   ar
    10    22    23   ar
    11    23    24   ar
    12    24     1    1
    13     1     2   ar
    14     2     3   ar
    15     3     4   ar
    16     4     5   ar
    17     5     6   ar
    18     4     7   ar
    19     7     8   ar
    20     8     9   ar
    21     9    10    1
    22    10    11   ar
    23    11    12   ar
    24    12    13   ar
    25    13    14    2
    26    14    15    1
    27    15    16    2
    28    15    17    1
    29    17    18    2
    30    18    19   ar
    31    29    30   ar
    32    30    31    1
    33    30    32   ar
    34    32    26   ar
    35    24    20   ar
    36     6     1   ar
    37    19    10   ar
    38     9     3   ar
    39    18    13   ar
