@<TRIPOS>MOLECULE
*****
 36 38 0 0 0
SMALL
GASTEIGER

@<TRIPOS>ATOM
      1 C           6.7208   -3.0459   31.3921 C.ar    1  UNL1       -0.0185
      2 C           6.9406   -4.4869   31.7458 C.ar    1  UNL1       -0.0041
      3 C           7.0055   -5.5233   30.6634 C.ar    1  UNL1        0.0057
      4 C           6.8506   -5.1187   29.2273 C.ar    1  UNL1        0.0696
      5 C           6.6308   -3.6777   28.8736 C.ar    1  UNL1        0.0095
      6 C           6.5659   -2.6413   29.9560 C.ar    1  UNL1        0.0677
      7 C           6.4611    1.1000   35.7215 C.2     1  UNL1        0.2490
      8 O           7.6930    1.8678   36.0996 O.2     1  UNL1       -0.2699
      9 N           6.5260    0.0636   34.6392 N.am    1  UNL1       -0.2761
     10 C           5.2941   -0.7042   34.2611 C.3     1  UNL1        0.0940
     11 C           5.3591   -1.7407   33.1787 C.3     1  UNL1        0.0259
     12 C           6.6559   -2.0094   32.4745 C.3     1  UNL1        0.0257
     13 C           7.8878   -1.2416   32.8525 C.3     1  UNL1        0.0259
     14 C           7.8229   -0.2051   33.9349 C.3     1  UNL1        0.0940
     15 C           2.5706    1.9062   37.8344 C.ar    1  UNL1        0.0685
     16 C           3.5801    0.9823   38.4484 C.ar    1  UNL1        0.0104
     17 C           4.8769    0.7135   37.7442 C.ar    1  UNL1        0.0052
     18 C           5.1642    1.3688   36.4258 C.ar    1  UNL1        0.0536
     19 C           4.1547    2.2927   35.8117 C.ar    1  UNL1        0.0052
     20 C           2.8579    2.5614   36.5160 C.ar    1  UNL1        0.0104
     21 N          -0.0231    2.4436   39.2429 N.1     1  UNL1       -0.1908
     22 C           1.2737    2.1749   38.5386 C.1     1  UNL1        0.1004
     23 C           6.9155   -6.1552   28.1449 C.2     1  UNL1        0.3078
     24 O           6.1654   -5.9484   26.8625 O.2     1  UNL1       -0.2516
     25 N           7.7305   -7.3985   28.3450 N.am    1  UNL1       -0.1708
     26 H           8.2228   -7.5342   29.1867 H       1  UNL1        0.2545
     27 C           7.7954   -8.4349   27.2626 C.2     1  UNL1        0.3751
     28 N           7.6607   -9.8886   27.6071 N.pl3   1  UNL1       -0.1313
     29 N           7.9949   -8.0177   25.8356 N.pl3   1  UNL1       -0.2906
     30 H           7.5298  -10.1625   28.5437 H       1  UNL1        0.3060
     31 H           8.0833   -7.0636   25.6095 H       1  UNL1        0.2545
     32 H           8.0375   -8.6980   25.1252 H       1  UNL1        0.2545
     33 C           6.3461   -1.2002   29.6023 C.3     1  UNL1        0.4183
     34 F           6.1262    0.2408   29.2487 F       1  UNL1       -0.1659
     35 F           4.8646   -1.3934   29.7362 F       1  UNL1       -0.1659
     36 F           7.8275   -1.0070   29.4684 F       1  UNL1       -0.1659
@<TRIPOS>BOND
     1    21    22    3
     2    22    15    1
     3    15    16   ar
     4    16    17   ar
     5    17    18   ar
     6    18     7    1
     7     7     8    2
     8     7     9   am
     9     9    10    1
    10    10    11    1
    11    11    12    1
    12    12     1    1
    13     1     2   ar
    14     2     3   ar
    15     3     4   ar
    16     4    23    1
    17    23    24    2
    18    23    25   am
    19    25    27    1
    20    27    28    2
    21    27    29    1
    22     4     5   ar
    23     5     6   ar
    24     6    33    1
    25    33    34    1
    26    33    35    1
    27    33    36    1
    28    12    13    1
    29    13    14    1
    30    18    19   ar
    31    19    20   ar
    32    20    15   ar
    33    14     9    1
    34     6     1   ar
    35    25    26    1
    36    28    30    1
    37    29    31    1
    38    29    32    1
@<TRIPOS>MOLECULE
*****
 36 38 0 0 0
SMALL
GASTEIGER

@<TRIPOS>ATOM
      1 C           5.9201   -2.3031   32.6447 C.ar    1  UNL1       -0.0185
      2 C           4.5455   -2.4895   33.2155 C.ar    1  UNL1       -0.0041
      3 C           4.0378   -1.5513   34.2699 C.ar    1  UNL1        0.0057
      4 C           4.9045   -0.4267   34.7536 C.ar    1  UNL1        0.0696
      5 C           6.2791   -0.2403   34.1828 C.ar    1  UNL1        0.0095
      6 C           6.7868   -1.1785   33.1284 C.ar    1  UNL1        0.0677
      7 C           7.9514   -6.0558   28.4267 C.2     1  UNL1        0.2490
      8 O           8.3687   -7.4476   28.7991 O.2     1  UNL1       -0.2699
      9 N           7.4436   -5.1177   29.4812 N.am    1  UNL1       -0.2761
     10 C           7.0263   -3.7258   29.1088 C.3     1  UNL1        0.0940
     11 C           6.5184   -2.7876   30.1633 C.3     1  UNL1        0.0259
     12 C           6.4279   -3.2413   31.5902 C.3     1  UNL1        0.0257
     13 C           6.8452   -4.6331   31.9626 C.3     1  UNL1        0.0259
     14 C           7.3531   -5.5713   30.9081 C.3     1  UNL1        0.0940
     15 C           8.2230   -4.6948   24.1461 C.ar    1  UNL1        0.0685
     16 C           6.8822   -4.8473   24.8009 C.ar    1  UNL1        0.0104
     17 C           6.7916   -5.3010   26.2278 C.ar    1  UNL1        0.0052
     18 C           8.0419   -5.6021   26.9998 C.ar    1  UNL1        0.0536
     19 C           9.3827   -5.4496   26.3449 C.ar    1  UNL1        0.0052
     20 C           9.4733   -4.9960   24.9181 C.ar    1  UNL1        0.0104
     21 N           8.4040   -3.7875   21.2923 N.1     1  UNL1       -0.1908
     22 C           8.3135   -4.2411   22.7192 C.1     1  UNL1        0.1004
     23 C           4.3967    0.5115   35.8081 C.2     1  UNL1        0.3078
     24 O           3.7801    1.8207   35.4132 O.2     1  UNL1       -0.2516
     25 N           4.5054    0.1405   37.2574 N.am    1  UNL1       -0.1708
     26 H           4.9100   -0.7187   37.5166 H       1  UNL1        0.2545
     27 C           3.9975    1.0787   38.3118 C.2     1  UNL1        0.3751
     28 N           2.9327    0.6277   39.2672 N.pl3   1  UNL1       -0.1313
     29 N           4.5545    2.4680   38.4109 N.pl3   1  UNL1       -0.2906
     30 H           2.5672   -0.2841   39.2022 H       1  UNL1        0.3060
     31 H           5.2534    2.7641   37.7838 H       1  UNL1        0.2545
     32 H           4.2212    3.0838   39.1029 H       1  UNL1        0.2545
     33 C           8.1614   -0.9920   32.5575 C.3     1  UNL1        0.4183
     34 F           9.5359   -0.8056   31.9867 F       1  UNL1       -0.1659
     35 F           7.6288    0.0448   31.6136 F       1  UNL1       -0.1659
     36 F           8.6941   -2.0289   33.5015 F       1  UNL1       -0.1659
@<TRIPOS>BOND
     1    21    22    3
     2    22    15    1
     3    15    16   ar
     4    16    17   ar
     5    17    18   ar
     6    18     7    1
     7     7     8    2
     8     7     9   am
     9     9    10    1
    10    10    11    1
    11    11    12    1
    12    12     1    1
    13     1     2   ar
    14     2     3   ar
    15     3     4   ar
    16     4    23    1
    17    23    24    2
    18    23    25   am
    19    25    27    1
    20    27    28    2
    21    27    29    1
    22     4     5   ar
    23     5     6   ar
    24     6    33    1
    25    33    34    1
    26    33    35    1
    27    33    36    1
    28    12    13    1
    29    13    14    1
    30    18    19   ar
    31    19    20   ar
    32    20    15   ar
    33    14     9    1
    34     6     1   ar
    35    25    26    1
    36    28    30    1
    37    29    31    1
    38    29    32    1
@<TRIPOS>MOLECULE
*****
 36 38 0 0 0
SMALL
GASTEIGER

@<TRIPOS>ATOM
      1 C          -1.2115    3.0362   25.0972 C.ar    1  UNL1       -0.0185
      2 C          -2.0885    3.5944   24.0159 C.ar    1  UNL1       -0.0041
      3 C          -3.4251    4.1803   24.3623 C.ar    1  UNL1        0.0057
      4 C          -3.8847    4.2081   25.7899 C.ar    1  UNL1        0.0696
      5 C          -3.0077    3.6499   26.8711 C.ar    1  UNL1        0.0095
      6 C          -1.6711    3.0639   26.5248 C.ar    1  UNL1        0.0677
      7 C           4.1352    0.6921   23.7120 C.2     1  UNL1        0.2490
      8 O           5.3901    1.3253   24.2356 O.2     1  UNL1       -0.2699
      9 N           2.7986    1.2781   24.0583 N.am    1  UNL1       -0.2761
     10 C           1.5436    0.6449   23.5346 C.3     1  UNL1        0.0940
     11 C           0.2070    1.2309   23.8810 C.3     1  UNL1        0.0259
     12 C           0.1253    2.4502   24.7509 C.3     1  UNL1        0.0257
     13 C           1.3802    3.0834   25.2745 C.3     1  UNL1        0.0259
     14 C           2.7169    2.4974   24.9282 C.3     1  UNL1        0.0940
     15 C           4.3804   -2.9655   21.1021 C.ar    1  UNL1        0.0685
     16 C           4.3993   -3.1070   22.5953 C.ar    1  UNL1        0.0104
     17 C           4.3175   -1.8878   23.4653 C.ar    1  UNL1        0.0052
     18 C           4.2170   -0.5271   22.8420 C.ar    1  UNL1        0.0536
     19 C           4.1982   -0.3857   21.3489 C.ar    1  UNL1        0.0052
     20 C           4.2799   -1.6049   20.4789 C.ar    1  UNL1        0.0104
     21 N           4.5439   -5.4040   19.3622 N.1     1  UNL1       -0.1908
     22 C           4.4622   -4.1848   20.2322 C.1     1  UNL1        0.1004
     23 C          -5.2215    4.7941   26.1362 C.2     1  UNL1        0.3078
     24 O          -6.3651    4.6745   25.1729 O.2     1  UNL1       -0.2516
     25 N          -5.4145    5.4997   27.4456 N.am    1  UNL1       -0.1708
     26 H          -4.6639    5.5782   28.0779 H       1  UNL1        0.2545
     27 C          -6.7512    6.0857   27.7919 C.2     1  UNL1        0.3751
     28 N          -7.3321    5.8730   29.1584 N.pl3   1  UNL1       -0.1313
     29 N          -7.5070    6.8843   26.7716 N.pl3   1  UNL1       -0.2906
     30 H          -6.8361    5.3488   29.8280 H       1  UNL1        0.3060
     31 H          -7.1258    7.0239   25.8747 H       1  UNL1        0.2545
     32 H          -8.3843    7.2689   26.9988 H       1  UNL1        0.2545
     33 C          -0.7939    2.5057   27.6061 C.3     1  UNL1        0.4183
     34 F           0.0831    1.9475   28.6873 F       1  UNL1       -0.1659
     35 F          -1.2585    1.1202   27.2676 F       1  UNL1       -0.1659
     36 F          -0.3293    3.8912   27.9445 F       1  UNL1       -0.1659
@<TRIPOS>BOND
     1    21    22    3
     2    22    15    1
     3    15    16   ar
     4    16    17   ar
     5    17    18   ar
     6    18     7    1
     7     7     8    2
     8     7     9   am
     9     9    10    1
    10    10    11    1
    11    11    12    1
    12    12     1    1
    13     1     2   ar
    14     2     3   ar
    15     3     4   ar
    16     4    23    1
    17    23    24    2
    18    23    25   am
    19    25    27    1
    20    27    28    2
    21    27    29    1
    22     4     5   ar
    23     5     6   ar
    24     6    33    1
    25    33    34    1
    26    33    35    1
    27    33    36    1
    28    12    13    1
    29    13    14    1
    30    18    19   ar
    31    19    20   ar
    32    20    15   ar
    33    14     9    1
    34     6     1   ar
    35    25    26    1
    36    28    30    1
    37    29    31    1
    38    29    32    1
@<TRIPOS>MOLECULE
*****
 36 38 0 0 0
SMALL
GASTEIGER

@<TRIPOS>ATOM
      1 C           1.1792    1.6117   27.8408 C.ar    1  UNL1       -0.0185
      2 C           2.6321    1.7813   27.5088 C.ar    1  UNL1       -0.0041
      3 C           3.6590    0.9099   28.1693 C.ar    1  UNL1        0.0057
      4 C           3.2329   -0.1311   29.1616 C.ar    1  UNL1        0.0696
      5 C           1.7800   -0.3007   29.4936 C.ar    1  UNL1        0.0095
      6 C           0.7532    0.5706   28.8331 C.ar    1  UNL1        0.0677
      7 C          -2.9285    5.0971   25.1990 C.2     1  UNL1        0.2490
      8 O          -3.3399    6.3892   25.8401 O.2     1  UNL1       -0.2699
      9 N          -1.9016    4.2258   25.8594 N.am    1  UNL1       -0.2761
     10 C          -1.4901    2.9336   25.2183 C.3     1  UNL1        0.0940
     11 C          -0.4632    2.0622   25.8787 C.3     1  UNL1        0.0259
     12 C           0.1523    2.4831   27.1803 C.3     1  UNL1        0.0257
     13 C          -0.2591    3.7752   27.8214 C.3     1  UNL1        0.0259
     14 C          -1.2861    4.6466   27.1610 C.3     1  UNL1        0.0940
     15 C          -4.7749    3.8346   21.2942 C.ar    1  UNL1        0.0685
     16 C          -5.3102    3.2934   22.5867 C.ar    1  UNL1        0.0104
     17 C          -4.6947    3.7142   23.8883 C.ar    1  UNL1        0.0052
     18 C          -3.5440    4.6763   23.8974 C.ar    1  UNL1        0.0536
     19 C          -3.0087    5.2175   22.6049 C.ar    1  UNL1        0.0052
     20 C          -3.6241    4.7967   21.3034 C.ar    1  UNL1        0.0104
     21 N          -6.0059    2.9930   18.6911 N.1     1  UNL1       -0.1908
     22 C          -5.3904    3.4138   19.9927 C.1     1  UNL1        0.1004
     23 C           4.2599   -1.0025   29.8221 C.2     1  UNL1        0.3078
     24 O           5.3159   -1.6751   28.9960 O.2     1  UNL1       -0.2516
     25 N           4.2308   -1.2012   31.3085 N.am    1  UNL1       -0.1708
     26 H           3.5377   -0.7597   31.8507 H       1  UNL1        0.2545
     27 C           5.2577   -2.0725   31.9689 C.2     1  UNL1        0.3751
     28 N           6.7138   -1.8765   31.6668 N.pl3   1  UNL1       -0.1313
     29 N           4.8285   -3.1400   32.9315 N.pl3   1  UNL1       -0.2906
     30 H           6.9956   -1.1759   31.0351 H       1  UNL1        0.3060
     31 H           3.8728   -3.2687   33.1298 H       1  UNL1        0.2545
     32 H           5.5026   -3.7119   33.3649 H       1  UNL1        0.2545
     33 C          -0.6998    0.4010   29.1650 C.3     1  UNL1        0.4183
     34 F          -2.1528    0.2314   29.4969 F       1  UNL1       -0.1659
     35 F          -0.8497   -0.5558   28.0197 F       1  UNL1       -0.1659
     36 F          -0.5500    1.3579   30.3104 F       1  UNL1       -0.1659
@<TRIPOS>BOND
     1    21    22    3
     2    22    15    1
     3    15    16   ar
     4    16    17   ar
     5    17    18   ar
     6    18     7    1
     7     7     8    2
     8     7     9   am
     9     9    10    1
    10    10    11    1
    11    11    12    1
    12    12     1    1
    13     1     2   ar
    14     2     3   ar
    15     3     4   ar
    16     4    23    1
    17    23    24    2
    18    23    25   am
    19    25    27    1
    20    27    28    2
    21    27    29    1
    22     4     5   ar
    23     5     6   ar
    24     6    33    1
    25    33    34    1
    26    33    35    1
    27    33    36    1
    28    12    13    1
    29    13    14    1
    30    18    19   ar
    31    19    20   ar
    32    20    15   ar
    33    14     9    1
    34     6     1   ar
    35    25    26    1
    36    28    30    1
    37    29    31    1
    38    29    32    1
@<TRIPOS>MOLECULE
*****
 36 38 0 0 0
SMALL
GASTEIGER

@<TRIPOS>ATOM
      1 C           3.2484   -0.0202   21.3690 C.ar    1  UNL1       -0.0185
      2 C           2.6178    0.9738   22.2986 C.ar    1  UNL1       -0.0041
      3 C           1.4036    1.7405   21.8652 C.ar    1  UNL1        0.0057
      4 C           0.8200    1.5131   20.5022 C.ar    1  UNL1        0.0696
      5 C           1.4506    0.5190   19.5726 C.ar    1  UNL1        0.0095
      6 C           2.6648   -0.2476   20.0060 C.ar    1  UNL1        0.0677
      7 C           8.1053   -3.0871   23.1026 C.2     1  UNL1        0.2490
      8 O           9.4727   -2.6093   22.7128 O.2     1  UNL1       -0.2699
      9 N           6.8912   -2.3204   22.6692 N.am    1  UNL1       -0.2761
     10 C           5.5237   -2.7982   23.0590 C.3     1  UNL1        0.0940
     11 C           4.3095   -2.0315   22.6256 C.3     1  UNL1        0.0259
     12 C           4.4627   -0.7869   21.8024 C.3     1  UNL1        0.0257
     13 C           5.8300   -0.3091   21.4126 C.3     1  UNL1        0.0259
     14 C           7.0443   -1.0758   21.8460 C.3     1  UNL1        0.0940
     15 C           7.6459   -6.8207   25.5722 C.ar    1  UNL1        0.0685
     16 C           8.1395   -6.9124   24.1588 C.ar    1  UNL1        0.0104
     17 C           8.2927   -5.6679   23.3356 C.ar    1  UNL1        0.0052
     18 C           7.9522   -4.3316   23.9258 C.ar    1  UNL1        0.0536
     19 C           7.4585   -4.2399   25.3392 C.ar    1  UNL1        0.0052
     20 C           7.3054   -5.4844   26.1624 C.ar    1  UNL1        0.0104
     21 N           7.3395   -9.3097   27.2186 N.1     1  UNL1       -0.1908
     22 C           7.4927   -8.0652   26.3954 C.1     1  UNL1        0.1004
     23 C          -0.3943    2.2798   20.0688 C.2     1  UNL1        0.3078
     24 O          -0.4634    2.8556   18.6854 O.2     1  UNL1       -0.2516
     25 N          -1.5393    2.4707   21.0187 N.am    1  UNL1       -0.1708
     26 H          -1.4939    2.0928   21.9267 H       1  UNL1        0.2545
     27 C          -2.7535    3.2374   20.5853 C.2     1  UNL1        0.3751
     28 N          -2.6011    4.5908   19.9568 N.pl3   1  UNL1       -0.1313
     29 N          -4.1202    2.6507   20.7804 N.pl3   1  UNL1       -0.2906
     30 H          -1.7041    4.9759   19.8288 H       1  UNL1        0.3060
     31 H          -4.2202    1.7624   21.1929 H       1  UNL1        0.2545
     32 H          -4.9171    3.1539   20.4959 H       1  UNL1        0.2545
     33 C           3.2955   -1.2417   19.0764 C.3     1  UNL1        0.4183
     34 F           3.9262   -2.2358   18.1469 F       1  UNL1       -0.1659
     35 F           2.5084   -2.3439   19.7211 F       1  UNL1       -0.1659
     36 F           4.0827   -0.1396   18.4318 F       1  UNL1       -0.1659
@<TRIPOS>BOND
     1    21    22    3
     2    22    15    1
     3    15    16   ar
     4    16    17   ar
     5    17    18   ar
     6    18     7    1
     7     7     8    2
     8     7     9   am
     9     9    10    1
    10    10    11    1
    11    11    12    1
    12    12     1    1
    13     1     2   ar
    14     2     3   ar
    15     3     4   ar
    16     4    23    1
    17    23    24    2
    18    23    25   am
    19    25    27    1
    20    27    28    2
    21    27    29    1
    22     4     5   ar
    23     5     6   ar
    24     6    33    1
    25    33    34    1
    26    33    35    1
    27    33    36    1
    28    12    13    1
    29    13    14    1
    30    18    19   ar
    31    19    20   ar
    32    20    15   ar
    33    14     9    1
    34     6     1   ar
    35    25    26    1
    36    28    30    1
    37    29    31    1
    38    29    32    1
@<TRIPOS>MOLECULE
*****
 36 38 0 0 0
SMALL
GASTEIGER

@<TRIPOS>ATOM
      1 C           6.3737   -3.9777   25.0171 C.ar    1  UNL1       -0.0185
      2 C           5.2588   -3.1280   24.4834 C.ar    1  UNL1       -0.0041
      3 C           5.0762   -2.9738   23.0026 C.ar    1  UNL1        0.0057
      4 C           6.0085   -3.6694   22.0555 C.ar    1  UNL1        0.0696
      5 C           7.1235   -4.5191   22.5892 C.ar    1  UNL1        0.0095
      6 C           7.3061   -4.6732   24.0700 C.ar    1  UNL1        0.0677
      7 C           7.1043   -4.5943   30.9405 C.2     1  UNL1        0.2490
      8 O           6.9223   -5.9375   31.5828 O.2     1  UNL1       -0.2699
      9 N           6.9216   -4.4402   29.4597 N.am    1  UNL1       -0.2761
     10 C           7.1036   -3.0969   28.8173 C.3     1  UNL1        0.0940
     11 C           6.9210   -2.9428   27.3365 C.3     1  UNL1        0.0259
     12 C           6.5563   -4.1319   26.4980 C.3     1  UNL1        0.0257
     13 C           6.3743   -5.4751   27.1403 C.3     1  UNL1        0.0259
     14 C           6.5570   -5.6293   28.6212 C.3     1  UNL1        0.0940
     15 C           8.1982   -1.0270   33.4560 C.ar    1  UNL1        0.0685
     16 C           6.7587   -1.3136   33.1467 C.ar    1  UNL1        0.0104
     17 C           6.3940   -2.5027   32.3082 C.ar    1  UNL1        0.0052
     18 C           7.4689   -3.4052   31.7790 C.ar    1  UNL1        0.0536
     19 C           8.9084   -3.1186   32.0883 C.ar    1  UNL1        0.0052
     20 C           9.2730   -1.9295   32.9268 C.ar    1  UNL1        0.0104
     21 N           8.9274    1.3512   35.1330 N.1     1  UNL1       -0.1908
     22 C           8.5628    0.1621   34.2945 C.1     1  UNL1        0.1004
     23 C           5.8259   -3.5152   20.5746 C.2     1  UNL1        0.3078
     24 O           5.5016   -4.7119   19.7303 O.2     1  UNL1       -0.2516
     25 N           5.9675   -2.1644   19.9381 N.am    1  UNL1       -0.1708
     26 H           6.1804   -1.3790   20.4922 H       1  UNL1        0.2545
     27 C           5.7849   -2.0103   18.4572 C.2     1  UNL1        0.3751
     28 N           6.9110   -1.4922   17.6126 N.pl3   1  UNL1       -0.1313
     29 N           4.4761   -2.3742   17.8210 N.pl3   1  UNL1       -0.2906
     30 H           7.7700   -1.2533   18.0301 H       1  UNL1        0.3060
     31 H           3.7370   -2.7143   18.3754 H       1  UNL1        0.2545
     32 H           4.3562   -2.2731   16.8491 H       1  UNL1        0.2545
     33 C           8.4210   -5.5229   24.6038 C.3     1  UNL1        0.4183
     34 F           9.5359   -6.3726   25.1376 F       1  UNL1       -0.1659
     35 F           7.6204   -6.7572   24.3114 F       1  UNL1       -0.1659
     36 F           9.2217   -4.2887   24.8962 F       1  UNL1       -0.1659
@<TRIPOS>BOND
     1    21    22    3
     2    22    15    1
     3    15    16   ar
     4    16    17   ar
     5    17    18   ar
     6    18     7    1
     7     7     8    2
     8     7     9   am
     9     9    10    1
    10    10    11    1
    11    11    12    1
    12    12     1    1
    13     1     2   ar
    14     2     3   ar
    15     3     4   ar
    16     4    23    1
    17    23    24    2
    18    23    25   am
    19    25    27    1
    20    27    28    2
    21    27    29    1
    22     4     5   ar
    23     5     6   ar
    24     6    33    1
    25    33    34    1
    26    33    35    1
    27    33    36    1
    28    12    13    1
    29    13    14    1
    30    18    19   ar
    31    19    20   ar
    32    20    15   ar
    33    14     9    1
    34     6     1   ar
    35    25    26    1
    36    28    30    1
    37    29    31    1
    38    29    32    1
@<TRIPOS>MOLECULE
*****
 36 38 0 0 0
SMALL
GASTEIGER

@<TRIPOS>ATOM
      1 C          -2.7753    3.7416   20.6991 C.ar    1  UNL1       -0.0185
      2 C          -3.9813    3.4806   19.8462 C.ar    1  UNL1       -0.0041
      3 C          -5.3514    3.7994   20.3669 C.ar    1  UNL1        0.0057
      4 C          -5.5155    4.3793   21.7405 C.ar    1  UNL1        0.0696
      5 C          -4.3095    4.6403   22.5934 C.ar    1  UNL1        0.0095
      6 C          -2.9394    4.3214   22.0727 C.ar    1  UNL1        0.0677
      7 C           2.7051    2.4660   18.6163 C.2     1  UNL1        0.2490
      8 O           3.4583    3.4849   17.8136 O.2     1  UNL1       -0.2699
      9 N           1.3350    2.7849   19.1370 N.am    1  UNL1       -0.2761
     10 C           0.5818    1.7659   19.9397 C.3     1  UNL1        0.0940
     11 C          -0.7883    2.0848   20.4604 C.3     1  UNL1        0.0259
     12 C          -1.4052    3.4227   20.1783 C.3     1  UNL1        0.0257
     13 C          -0.6520    4.4416   19.3757 C.3     1  UNL1        0.0259
     14 C           0.7182    4.1228   18.8549 C.3     1  UNL1        0.0940
     15 C           4.5557   -1.5477   19.4623 C.ar    1  UNL1        0.0685
     16 C           4.5999   -0.4673   20.5019 C.ar    1  UNL1        0.0104
     17 C           3.9830    0.8706   20.2199 C.ar    1  UNL1        0.0052
     18 C           3.3220    1.1281   18.8983 C.ar    1  UNL1        0.0536
     19 C           3.2778    0.0477   17.8587 C.ar    1  UNL1        0.0052
     20 C           3.8947   -1.2902   18.1407 C.ar    1  UNL1        0.0104
     21 N           5.7895   -4.2235   20.0264 N.1     1  UNL1       -0.1908
     22 C           5.1726   -2.8856   19.7444 C.1     1  UNL1        0.1004
     23 C          -6.8856    4.6982   22.2612 C.2     1  UNL1        0.3078
     24 O          -7.7141    5.7559   21.5941 O.2     1  UNL1       -0.2516
     25 N          -7.4272    3.9595   23.4490 N.am    1  UNL1       -0.1708
     26 H          -6.8835    3.2653   23.8869 H       1  UNL1        0.2545
     27 C          -8.7973    4.2784   23.9697 C.2     1  UNL1        0.3751
     28 N          -9.8693    3.2293   23.9522 N.pl3   1  UNL1       -0.1313
     29 N          -9.0955    5.6465   24.5077 N.pl3   1  UNL1       -0.2906
     30 H          -9.6736    2.3314   23.5991 H       1  UNL1        0.3060
     31 H          -8.3920    6.3351   24.5192 H       1  UNL1        0.2545
     32 H          -9.9948    5.8558   24.8495 H       1  UNL1        0.2545
     33 C          -1.7334    4.5825   22.9256 C.3     1  UNL1        0.4183
     34 F          -0.5274    4.8435   23.7784 F       1  UNL1       -0.1659
     35 F          -1.5948    5.9445   22.3128 F       1  UNL1       -0.1659
     36 F          -1.8719    3.2204   23.5384 F       1  UNL1       -0.1659
@<TRIPOS>BOND
     1    21    22    3
     2    22    15    1
     3    15    16   ar
     4    16    17   ar
     5    17    18   ar
     6    18     7    1
     7     7     8    2
     8     7     9   am
     9     9    10    1
    10    10    11    1
    11    11    12    1
    12    12     1    1
    13     1     2   ar
    14     2     3   ar
    15     3     4   ar
    16     4    23    1
    17    23    24    2
    18    23    25   am
    19    25    27    1
    20    27    28    2
    21    27    29    1
    22     4     5   ar
    23     5     6   ar
    24     6    33    1
    25    33    34    1
    26    33    35    1
    27    33    36    1
    28    12    13    1
    29    13    14    1
    30    18    19   ar
    31    19    20   ar
    32    20    15   ar
    33    14     9    1
    34     6     1   ar
    35    25    26    1
    36    28    30    1
    37    29    31    1
    38    29    32    1
@<TRIPOS>MOLECULE
*****
 36 38 0 0 0
SMALL
GASTEIGER

@<TRIPOS>ATOM
      1 C           3.2555   -0.2883   22.0932 C.ar    1  UNL1       -0.0185
      2 C           3.4893   -0.4323   23.5679 C.ar    1  UNL1       -0.0041
      3 C           4.3133   -1.5724   24.0887 C.ar    1  UNL1        0.0057
      4 C           4.9035   -2.5684   23.1349 C.ar    1  UNL1        0.0696
      5 C           4.6697   -2.4243   21.6602 C.ar    1  UNL1        0.0095
      6 C           3.8457   -1.2842   21.1394 C.ar    1  UNL1        0.0677
      7 C          -0.0406    4.2720   20.0098 C.2     1  UNL1        0.2490
      8 O           0.5919    5.6135   19.7858 O.2     1  UNL1       -0.2699
      9 N           0.7835    3.1320   20.5306 N.am    1  UNL1       -0.2761
     10 C           0.1510    1.7903   20.7546 C.3     1  UNL1        0.0940
     11 C           0.9750    0.6503   21.2754 C.3     1  UNL1        0.0259
     12 C           2.4315    0.8519   21.5724 C.3     1  UNL1        0.0257
     13 C           3.0639    2.1934   21.3484 C.3     1  UNL1        0.0259
     14 C           2.2399    3.3335   20.8275 C.3     1  UNL1        0.0940
     15 C          -4.4099    3.6673   19.1190 C.ar    1  UNL1        0.0685
     16 C          -3.4500    3.9563   18.0033 C.ar    1  UNL1        0.0104
     17 C          -1.9936    4.1579   18.3002 C.ar    1  UNL1        0.0052
     18 C          -1.4970    4.0704   19.7128 C.ar    1  UNL1        0.0536
     19 C          -2.4569    3.7814   20.8286 C.ar    1  UNL1        0.0052
     20 C          -3.9133    3.5798   20.5317 C.ar    1  UNL1        0.0104
     21 N          -7.3228    3.2642   18.5252 N.1     1  UNL1       -0.1908
     22 C          -5.8663    3.4658   18.8221 C.1     1  UNL1        0.1004
     23 C           5.7275   -3.7085   23.6557 C.2     1  UNL1        0.3078
     24 O           6.2887   -4.7240   22.7051 O.2     1  UNL1       -0.2516
     25 N           5.9903   -3.8330   25.1273 N.am    1  UNL1       -0.1708
     26 H           5.6219   -3.1665   25.7512 H       1  UNL1        0.2545
     27 C           6.8142   -4.9731   25.6481 C.2     1  UNL1        0.3751
     28 N           8.1127   -5.3246   24.9844 N.pl3   1  UNL1       -0.1313
     29 N           6.3398   -5.7616   26.8326 N.pl3   1  UNL1       -0.2906
     30 H           8.4241   -4.8071   24.2069 H       1  UNL1        0.3060
     31 H           5.4876   -5.5309   27.2683 H       1  UNL1        0.2545
     32 H           6.8806   -6.5099   27.1745 H       1  UNL1        0.2545
     33 C           3.6118   -1.1401   19.6647 C.3     1  UNL1        0.4183
     34 F           3.3780   -0.9960   18.1902 F       1  UNL1       -0.1659
     35 F           2.4039   -2.0231   19.7700 F       1  UNL1       -0.1659
     36 F           4.8198   -0.2571   19.5595 F       1  UNL1       -0.1659
@<TRIPOS>BOND
     1    21    22    3
     2    22    15    1
     3    15    16   ar
     4    16    17   ar
     5    17    18   ar
     6    18     7    1
     7     7     8    2
     8     7     9   am
     9     9    10    1
    10    10    11    1
    11    11    12    1
    12    12     1    1
    13     1     2   ar
    14     2     3   ar
    15     3     4   ar
    16     4    23    1
    17    23    24    2
    18    23    25   am
    19    25    27    1
    20    27    28    2
    21    27    29    1
    22     4     5   ar
    23     5     6   ar
    24     6    33    1
    25    33    34    1
    26    33    35    1
    27    33    36    1
    28    12    13    1
    29    13    14    1
    30    18    19   ar
    31    19    20   ar
    32    20    15   ar
    33    14     9    1
    34     6     1   ar
    35    25    26    1
    36    28    30    1
    37    29    31    1
    38    29    32    1
@<TRIPOS>MOLECULE
*****
 36 38 0 0 0
SMALL
GASTEIGER

@<TRIPOS>ATOM
      1 C           4.0464   -1.8125   21.4031 C.ar    1  UNL1       -0.0185
      2 C           3.4792   -0.7144   22.2530 C.ar    1  UNL1       -0.0041
      3 C           2.4125    0.1850   21.7025 C.ar    1  UNL1        0.0057
      4 C           1.9129   -0.0137   20.3022 C.ar    1  UNL1        0.0696
      5 C           2.4801   -1.1119   19.4523 C.ar    1  UNL1        0.0095
      6 C           3.5469   -2.0113   20.0028 C.ar    1  UNL1        0.0677
      7 C           8.3136   -5.4103   23.6050 C.2     1  UNL1        0.2490
      8 O           9.3157   -6.0374   22.6818 O.2     1  UNL1       -0.2699
      9 N           7.2468   -4.5108   23.0545 N.am    1  UNL1       -0.2761
     10 C           6.2446   -3.8837   23.9777 C.3     1  UNL1        0.0940
     11 C           5.1778   -2.9843   23.4273 C.3     1  UNL1        0.0259
     12 C           5.1132   -2.7120   21.9536 C.3     1  UNL1        0.0257
     13 C           6.1154   -3.3391   21.0304 C.3     1  UNL1        0.0259
     14 C           7.1822   -4.2386   21.5809 C.3     1  UNL1        0.0940
     15 C           8.5073   -6.2271   28.0260 C.ar    1  UNL1        0.0685
     16 C           9.1932   -5.0214   27.4553 C.ar    1  UNL1        0.0104
     17 C           9.1286   -4.7491   25.9817 C.ar    1  UNL1        0.0052
     18 C           8.3781   -5.6825   25.0787 C.ar    1  UNL1        0.0536
     19 C           7.6922   -6.8882   25.6494 C.ar    1  UNL1        0.0052
     20 C           7.7567   -7.1605   27.1231 C.ar    1  UNL1        0.0104
     21 N           8.6364   -6.7716   30.9734 N.1     1  UNL1       -0.1908
     22 C           8.5718   -6.4994   29.4997 C.1     1  UNL1        0.1004
     23 C           0.8461    0.8857   19.7517 C.2     1  UNL1        0.3078
     24 O           0.5905    0.9291   18.2743 O.2     1  UNL1       -0.2516
     25 N           0.0350    1.7417   20.6786 N.am    1  UNL1       -0.1708
     26 H           0.2027    1.7133   21.6483 H       1  UNL1        0.2545
     27 C          -1.0318    2.6411   20.1281 C.2     1  UNL1        0.3751
     28 N          -2.3643    2.7296   20.8112 N.pl3   1  UNL1       -0.1313
     29 N          -0.7660    3.4522   18.8946 N.pl3   1  UNL1       -0.2906
     30 H          -2.5388    2.1973   21.6208 H       1  UNL1        0.3060
     31 H           0.1085    3.3942   18.4462 H       1  UNL1        0.2545
     32 H          -1.4662    4.0425   18.5333 H       1  UNL1        0.2545
     33 C           4.1141   -3.1095   19.1529 C.3     1  UNL1        0.4183
     34 F           4.6813   -4.2077   18.3031 F       1  UNL1       -0.1659
     35 F           3.1966   -4.0949   19.8140 F       1  UNL1       -0.1659
     36 F           5.0317   -2.1241   18.4919 F       1  UNL1       -0.1659
@<TRIPOS>BOND
     1    21    22    3
     2    22    15    1
     3    15    16   ar
     4    16    17   ar
     5    17    18   ar
     6    18     7    1
     7     7     8    2
     8     7     9   am
     9     9    10    1
    10    10    11    1
    11    11    12    1
    12    12     1    1
    13     1     2   ar
    14     2     3   ar
    15     3     4   ar
    16     4    23    1
    17    23    24    2
    18    23    25   am
    19    25    27    1
    20    27    28    2
    21    27    29    1
    22     4     5   ar
    23     5     6   ar
    24     6    33    1
    25    33    34    1
    26    33    35    1
    27    33    36    1
    28    12    13    1
    29    13    14    1
    30    18    19   ar
    31    19    20   ar
    32    20    15   ar
    33    14     9    1
    34     6     1   ar
    35    25    26    1
    36    28    30    1
    37    29    31    1
    38    29    32    1
