@<TRIPOS>MOLECULE
*****
 36 41 0 0 0
SMALL
GASTEIGER

@<TRIPOS>ATOM
      1 C          -1.5094    2.9856   24.8157 C.ar    1  UNL1        0.1335
      2 C          -0.6666    2.1070   25.6918 C.ar    1  UNL1        0.0359
      3 C           0.5085    1.3765   25.1128 C.ar    1  UNL1        0.0236
      4 C           0.8409    1.5246   23.6576 C.ar    1  UNL1        0.1025
      5 C          -0.0019    2.4032   22.7814 C.ar    1  UNL1        0.1813
      6 N          -1.1771    3.1337   23.3605 N.ar    1  UNL1       -0.2104
      7 N           0.5654    2.3548   21.3937 N.ar    1  UNL1       -0.2076
      8 C           1.7589    1.4463   21.4122 C.ar    1  UNL1        0.1505
      9 N           1.9291    0.9332   22.8113 N.ar    1  UNL1       -0.2735
     10 C          -6.2100    5.9079   27.1318 C.3     1  UNL1        0.0897
     11 N          -5.0349    5.1774   26.5528 N.3     1  UNL1       -0.2686
     12 C          -5.2082    4.3304   25.3269 C.3     1  UNL1        0.0939
     13 C          -4.0329    3.5998   24.7479 C.3     1  UNL1        0.1095
     14 N          -2.6846    3.7162   25.3947 N.pl3   1  UNL1       -0.2903
     15 C          -2.5114    4.5632   26.6205 C.3     1  UNL1        0.1095
     16 C          -3.6865    5.2937   27.1996 C.3     1  UNL1        0.0939
     17 C           2.6292    1.1100   20.2377 C.ar    1  UNL1        0.0347
     18 C           2.1243    0.1845   19.1707 C.ar    1  UNL1        0.0053
     19 C           2.9946   -0.1518   17.9962 C.ar    1  UNL1        0.0297
     20 C           4.3698    0.4374   17.8887 C.ar    1  UNL1        0.1401
     21 F           5.2402    0.1011   16.7142 F       1  UNL1       -0.2042
     22 C           4.8747    1.3630   18.9557 C.ar    1  UNL1        0.0297
     23 C           4.0044    1.6993   20.1301 C.ar    1  UNL1        0.0053
     24 C           2.9996   -0.0064   23.2817 C.ar    1  UNL1        0.1533
     25 C           3.8818    0.3775   24.4326 C.ar    1  UNL1        0.0582
     26 C           4.9522   -0.5621   24.9029 C.ar    1  UNL1        0.1049
     27 N           5.1406   -1.8855   24.2224 N.ar    1  UNL1       -0.2122
     28 C           4.2584   -2.2694   23.0715 C.ar    1  UNL1        0.2182
     29 N           3.1880   -1.3298   22.6012 N.ar    1  UNL1       -0.1960
     30 N           4.4468   -3.5928   22.3911 N.pl3   1  UNL1       -0.3046
     31 H           4.4974   -4.4182   22.9253 H       1  UNL1        0.1496
     32 C           4.5581   -3.6586   20.8967 C.3     1  UNL1        0.0718
     33 C           5.3479   -2.7236   20.0294 C.3     1  UNL1        0.0196
     34 C           5.1772   -3.1581   18.6038 C.3     1  UNL1        0.0017
     35 C           4.2819   -4.3615   18.5901 C.3     1  UNL1        0.0017
     36 C           3.8993   -4.6708   20.0071 C.3     1  UNL1        0.0196
@<TRIPOS>BOND
     1    10    11    1
     2    11    12    1
     3    12    13    1
     4    13    14    1
     5    14     1    1
     6     1     2   ar
     7     2     3   ar
     8     3     4   ar
     9     4     5   ar
    10     5     6   ar
    11     5     7   ar
    12     7     8   ar
    13     8    17    1
    14    17    18   ar
    15    18    19   ar
    16    19    20   ar
    17    20    21    1
    18    20    22   ar
    19    22    23   ar
    20     8     9   ar
    21     9    24    1
    22    24    25   ar
    23    25    26   ar
    24    26    27   ar
    25    27    28   ar
    26    28    30    1
    27    30    32    1
    28    32    33    1
    29    33    34    1
    30    34    35    1
    31    35    36    1
    32    28    29   ar
    33    14    15    1
    34    15    16    1
    35    16    11    1
    36     6     1   ar
    37    23    17   ar
    38    29    24   ar
    39     9     4   ar
    40    36    32    1
    41    30    31    1
@<TRIPOS>MOLECULE
*****
 36 41 0 0 0
SMALL
GASTEIGER

@<TRIPOS>ATOM
      1 C           6.4904   -3.4611   25.9606 C.ar    1  UNL1        0.1335
      2 C           7.0466   -4.0198   24.6845 C.ar    1  UNL1        0.0359
      3 C           6.4872   -3.5767   23.3652 C.ar    1  UNL1        0.0236
      4 C           5.3715   -2.5749   23.3220 C.ar    1  UNL1        0.1025
      5 C           4.8153   -2.0163   24.5981 C.ar    1  UNL1        0.1813
      6 N           5.3748   -2.4593   25.9174 N.ar    1  UNL1       -0.2104
      7 N           3.7237   -1.0503   24.2442 N.ar    1  UNL1       -0.2076
      8 C           3.6052   -1.0120   22.7493 C.ar    1  UNL1        0.1505
      9 N           4.6236   -1.9542   22.1793 N.ar    1  UNL1       -0.2735
     10 C           8.7281   -5.2332   31.2382 C.3     1  UNL1        0.0897
     11 N           8.1687   -4.7902   29.9188 N.3     1  UNL1       -0.2686
     12 C           6.8703   -5.3572   29.4263 C.3     1  UNL1        0.0939
     13 C           6.3108   -4.9141   28.1069 C.3     1  UNL1        0.1095
     14 N           7.0498   -3.9041   27.2801 N.pl3   1  UNL1       -0.2903
     15 C           8.3483   -3.3371   27.7726 C.3     1  UNL1        0.1095
     16 C           8.9077   -3.7801   29.0919 C.3     1  UNL1        0.0939
     17 C           2.6381   -0.1778   21.9626 C.ar    1  UNL1        0.0347
     18 C           2.5104    1.2897   22.2458 C.ar    1  UNL1        0.0053
     19 C           1.5433    2.1239   21.4591 C.ar    1  UNL1        0.0297
     20 C           0.7039    1.4906   20.3894 C.ar    1  UNL1        0.1401
     21 F          -0.2632    2.3248   19.6027 F       1  UNL1       -0.2042
     22 C           0.8317    0.0231   20.1063 C.ar    1  UNL1        0.0297
     23 C           1.7987   -0.8111   20.8929 C.ar    1  UNL1        0.0053
     24 C           4.8538   -2.2278   20.7226 C.ar    1  UNL1        0.1533
     25 C           4.7492   -3.6288   20.1969 C.ar    1  UNL1        0.0582
     26 C           4.9793   -3.9023   18.7402 C.ar    1  UNL1        0.1049
     27 N           5.3141   -2.7749   17.8091 N.ar    1  UNL1       -0.2122
     28 C           5.4187   -1.3739   18.3348 C.ar    1  UNL1        0.2182
     29 N           5.1886   -1.1004   19.7915 N.ar    1  UNL1       -0.1960
     30 N           5.7535   -0.2465   17.4037 N.pl3   1  UNL1       -0.3046
     31 H           6.3394   -0.4057   16.6287 H       1  UNL1        0.1496
     32 C           5.1956    1.1232   17.6535 C.3     1  UNL1        0.0718
     33 C           3.8292    1.4347   18.1882 C.3     1  UNL1        0.0196
     34 C           3.6952    2.9260   18.2777 C.3     1  UNL1        0.0017
     35 C           4.9789    3.5363   17.7982 C.3     1  UNL1        0.0017
     36 C           5.9061    2.4221   17.4124 C.3     1  UNL1        0.0196
@<TRIPOS>BOND
     1    10    11    1
     2    11    12    1
     3    12    13    1
     4    13    14    1
     5    14     1    1
     6     1     2   ar
     7     2     3   ar
     8     3     4   ar
     9     4     5   ar
    10     5     6   ar
    11     5     7   ar
    12     7     8   ar
    13     8    17    1
    14    17    18   ar
    15    18    19   ar
    16    19    20   ar
    17    20    21    1
    18    20    22   ar
    19    22    23   ar
    20     8     9   ar
    21     9    24    1
    22    24    25   ar
    23    25    26   ar
    24    26    27   ar
    25    27    28   ar
    26    28    30    1
    27    30    32    1
    28    32    33    1
    29    33    34    1
    30    34    35    1
    31    35    36    1
    32    28    29   ar
    33    14    15    1
    34    15    16    1
    35    16    11    1
    36     6     1   ar
    37    23    17   ar
    38    29    24   ar
    39     9     4   ar
    40    36    32    1
    41    30    31    1
@<TRIPOS>MOLECULE
*****
 36 41 0 0 0
SMALL
GASTEIGER

@<TRIPOS>ATOM
      1 C          -2.4052    3.9565   18.8865 C.ar    1  UNL1        0.1335
      2 C          -1.3795    3.9168   17.7928 C.ar    1  UNL1        0.0359
      3 C          -0.0921    3.1752   17.9985 C.ar    1  UNL1        0.0236
      4 C           0.1697    2.4732   19.2980 C.ar    1  UNL1        0.1025
      5 C          -0.8560    2.5129   20.3918 C.ar    1  UNL1        0.1813
      6 N          -2.1434    3.2545   20.1860 N.ar    1  UNL1       -0.2104
      7 N          -0.3222    1.7325   21.5563 N.ar    1  UNL1       -0.2076
      8 C           1.0334    1.2105   21.1822 C.ar    1  UNL1        0.1505
      9 N           1.3375    1.6683   19.7865 N.ar    1  UNL1       -0.2735
     10 C          -7.5553    6.9229   18.0636 C.3     1  UNL1        0.0897
     11 N          -6.2678    6.1813   18.2693 N.3     1  UNL1       -0.2686
     12 C          -5.0679    6.8985   18.8133 C.3     1  UNL1        0.0939
     13 C          -3.7804    6.1568   19.0190 C.3     1  UNL1        0.1095
     14 N          -3.6928    4.6981   18.6808 N.pl3   1  UNL1       -0.2903
     15 C          -4.8927    3.9810   18.1368 C.3     1  UNL1        0.1095
     16 C          -6.1802    4.7226   17.9311 C.3     1  UNL1        0.0939
     17 C           1.9279    0.3770   22.0513 C.ar    1  UNL1        0.0347
     18 C           2.6169   -0.8274   21.4815 C.ar    1  UNL1        0.0053
     19 C           3.5114   -1.6609   22.3505 C.ar    1  UNL1        0.0297
     20 C           3.7167   -1.2900   23.7893 C.ar    1  UNL1        0.1401
     21 F           4.6112   -2.1235   24.6585 F       1  UNL1       -0.2042
     22 C           3.0276   -0.0856   24.3591 C.ar    1  UNL1        0.0297
     23 C           2.1332    0.7479   23.4901 C.ar    1  UNL1        0.0053
     24 C           2.5894    1.3731   19.0148 C.ar    1  UNL1        0.1533
     25 C           3.5283    2.4859   18.6545 C.ar    1  UNL1        0.0582
     26 C           4.7802    2.1906   17.8828 C.ar    1  UNL1        0.1049
     27 N           5.0931    0.7825   17.4715 N.ar    1  UNL1       -0.2122
     28 C           4.1542   -0.3304   17.8318 C.ar    1  UNL1        0.2182
     29 N           2.9023   -0.0351   18.6035 N.ar    1  UNL1       -0.1960
     30 N           4.4672   -1.7386   17.4205 N.pl3   1  UNL1       -0.3046
     31 H           4.5692   -1.9617   16.4671 H       1  UNL1        0.1496
     32 C           4.6246   -2.8066   18.4619 C.3     1  UNL1        0.0718
     33 C           5.8983   -3.1711   19.1654 C.3     1  UNL1        0.0196
     34 C           5.5970   -4.2875   20.1209 C.3     1  UNL1        0.0017
     35 C           4.1371   -4.6130   20.0078 C.3     1  UNL1        0.0017
     36 C           3.5362   -3.6977   18.9825 C.3     1  UNL1        0.0196
@<TRIPOS>BOND
     1    10    11    1
     2    11    12    1
     3    12    13    1
     4    13    14    1
     5    14     1    1
     6     1     2   ar
     7     2     3   ar
     8     3     4   ar
     9     4     5   ar
    10     5     6   ar
    11     5     7   ar
    12     7     8   ar
    13     8    17    1
    14    17    18   ar
    15    18    19   ar
    16    19    20   ar
    17    20    21    1
    18    20    22   ar
    19    22    23   ar
    20     8     9   ar
    21     9    24    1
    22    24    25   ar
    23    25    26   ar
    24    26    27   ar
    25    27    28   ar
    26    28    30    1
    27    30    32    1
    28    32    33    1
    29    33    34    1
    30    34    35    1
    31    35    36    1
    32    28    29   ar
    33    14    15    1
    34    15    16    1
    35    16    11    1
    36     6     1   ar
    37    23    17   ar
    38    29    24   ar
    39     9     4   ar
    40    36    32    1
    41    30    31    1
@<TRIPOS>MOLECULE
*****
 36 41 0 0 0
SMALL
GASTEIGER

@<TRIPOS>ATOM
      1 C          -2.0201    3.2446   21.7379 C.ar    1  UNL1        0.1335
      2 C          -1.2409    3.2652   23.0194 C.ar    1  UNL1        0.0359
      3 C           0.0615    2.5274   23.1170 C.ar    1  UNL1        0.0236
      4 C           0.5845    1.7691   21.9332 C.ar    1  UNL1        0.1025
      5 C          -0.1948    1.7486   20.6518 C.ar    1  UNL1        0.1813
      6 N          -1.4971    2.4863   20.5541 N.ar    1  UNL1       -0.2104
      7 N           0.5668    0.9208   19.6594 N.ar    1  UNL1       -0.2076
      8 C           1.8167    0.4297   20.3276 C.ar    1  UNL1        0.1505
      9 N           1.8278    0.9540   21.7329 N.ar    1  UNL1       -0.2735
     10 C          -7.2296    6.1957   21.3470 C.3     1  UNL1        0.0897
     11 N          -5.9273    5.4580   21.4447 N.3     1  UNL1       -0.2686
     12 C          -5.9098    4.0209   21.8743 C.3     1  UNL1        0.0939
     13 C          -4.6074    3.2831   21.9721 C.3     1  UNL1        0.1095
     14 N          -3.3226    3.9824   21.6402 N.pl3   1  UNL1       -0.2903
     15 C          -3.3401    5.4195   21.2106 C.3     1  UNL1        0.1095
     16 C          -4.6424    6.1572   21.1128 C.3     1  UNL1        0.0939
     17 C           2.8707   -0.4341   19.7005 C.ar    1  UNL1        0.0347
     18 C           3.9588    0.1889   18.8772 C.ar    1  UNL1        0.0053
     19 C           5.0127   -0.6748   18.2501 C.ar    1  UNL1        0.0297
     20 C           4.9785   -2.1614   18.4462 C.ar    1  UNL1        0.1401
     21 F           6.0324   -3.0252   17.8191 F       1  UNL1       -0.2042
     22 C           3.8903   -2.7844   19.2695 C.ar    1  UNL1        0.0297
     23 C           2.8364   -1.9208   19.8966 C.ar    1  UNL1        0.0053
     24 C           2.8946    0.7066   22.7579 C.ar    1  UNL1        0.1533
     25 C           3.6577    1.8597   23.3395 C.ar    1  UNL1        0.0582
     26 C           4.7245    1.6122   24.3645 C.ar    1  UNL1        0.1049
     27 N           5.0282    0.2118   24.8079 N.ar    1  UNL1       -0.2122
     28 C           4.2651   -0.9412   24.2263 C.ar    1  UNL1        0.2182
     29 N           3.1983   -0.6937   23.2013 N.ar    1  UNL1       -0.1960
     30 N           4.5688   -2.3416   24.6698 N.pl3   1  UNL1       -0.3046
     31 H           4.0958   -2.7268   25.4425 H       1  UNL1        0.1496
     32 C           5.5933   -3.1551   23.9359 C.3     1  UNL1        0.0718
     33 C           6.5745   -4.1049   24.5564 C.3     1  UNL1        0.0196
     34 C           7.4041   -4.6985   23.4566 C.3     1  UNL1        0.0017
     35 C           6.9356   -4.1155   22.1564 C.3     1  UNL1        0.0017
     36 C           5.8165   -3.1616   22.4526 C.3     1  UNL1        0.0196
@<TRIPOS>BOND
     1    10    11    1
     2    11    12    1
     3    12    13    1
     4    13    14    1
     5    14     1    1
     6     1     2   ar
     7     2     3   ar
     8     3     4   ar
     9     4     5   ar
    10     5     6   ar
    11     5     7   ar
    12     7     8   ar
    13     8    17    1
    14    17    18   ar
    15    18    19   ar
    16    19    20   ar
    17    20    21    1
    18    20    22   ar
    19    22    23   ar
    20     8     9   ar
    21     9    24    1
    22    24    25   ar
    23    25    26   ar
    24    26    27   ar
    25    27    28   ar
    26    28    30    1
    27    30    32    1
    28    32    33    1
    29    33    34    1
    30    34    35    1
    31    35    36    1
    32    28    29   ar
    33    14    15    1
    34    15    16    1
    35    16    11    1
    36     6     1   ar
    37    23    17   ar
    38    29    24   ar
    39     9     4   ar
    40    36    32    1
    41    30    31    1
@<TRIPOS>MOLECULE
*****
 36 41 0 0 0
SMALL
GASTEIGER

@<TRIPOS>ATOM
      1 C           2.9313   -0.6360   21.0972 C.ar    1  UNL1        0.1335
      2 C           2.1403   -0.3346   19.8589 C.ar    1  UNL1        0.0359
      3 C           0.9997    0.6379   19.9158 C.ar    1  UNL1        0.0236
      4 C           0.6501    1.3089   21.2110 C.ar    1  UNL1        0.1025
      5 C           1.4411    1.0075   22.4493 C.ar    1  UNL1        0.1813
      6 N           2.5817    0.0350   22.3924 N.ar    1  UNL1       -0.2104
      7 N           0.8672    1.8167   23.5743 N.ar    1  UNL1       -0.2076
      8 C          -0.2785    2.6183   23.0313 C.ar    1  UNL1        0.1505
      9 N          -0.4128    2.3045   21.5707 N.ar    1  UNL1       -0.2735
     10 C           7.4940   -4.5258   20.8697 C.3     1  UNL1        0.0897
     11 N           6.3534   -3.5534   20.9266 N.3     1  UNL1       -0.2686
     12 C           5.5304   -3.4348   22.1751 C.3     1  UNL1        0.0939
     13 C           4.3897   -2.4623   22.2319 C.3     1  UNL1        0.1095
     14 N           4.0720   -1.6085   21.0404 N.pl3   1  UNL1       -0.2903
     15 C           4.8950   -1.7270   19.7919 C.3     1  UNL1        0.1095
     16 C           6.0356   -2.6994   19.7350 C.3     1  UNL1        0.0939
     17 C          -1.1390    3.5672   23.8120 C.ar    1  UNL1        0.0347
     18 C          -1.8978    3.0789   25.0103 C.ar    1  UNL1        0.0053
     19 C          -2.7582    4.0277   25.7909 C.ar    1  UNL1        0.0297
     20 C          -2.8598    5.4648   25.3733 C.ar    1  UNL1        0.1401
     21 F          -3.7202    6.4137   26.1540 F       1  UNL1       -0.2042
     22 C          -2.1010    5.9531   24.1751 C.ar    1  UNL1        0.0297
     23 C          -1.2406    5.0043   23.3944 C.ar    1  UNL1        0.0053
     24 C          -1.4309    2.8844   20.6342 C.ar    1  UNL1        0.1533
     25 C          -0.9910    3.5241   19.3508 C.ar    1  UNL1        0.0582
     26 C          -2.0093    4.1039   18.4144 C.ar    1  UNL1        0.1049
     27 N          -3.4673    4.0441   18.7613 N.ar    1  UNL1       -0.2122
     28 C          -3.9073    3.4044   20.0448 C.ar    1  UNL1        0.2182
     29 N          -2.8890    2.8245   20.9812 N.ar    1  UNL1       -0.1960
     30 N          -5.3653    3.3445   20.3917 N.pl3   1  UNL1       -0.3046
     31 H          -6.0068    2.9521   19.7563 H       1  UNL1        0.1496
     32 C          -5.8460    3.8825   21.7068 C.3     1  UNL1        0.0718
     33 C          -6.9646    4.8625   21.9026 C.3     1  UNL1        0.0196
     34 C          -7.1025    5.1207   23.3739 C.3     1  UNL1        0.0017
     35 C          -6.0691    4.3001   24.0872 C.3     1  UNL1        0.0017
     36 C          -5.2926    3.5349   23.0569 C.3     1  UNL1        0.0196
@<TRIPOS>BOND
     1    10    11    1
     2    11    12    1
     3    12    13    1
     4    13    14    1
     5    14     1    1
     6     1     2   ar
     7     2     3   ar
     8     3     4   ar
     9     4     5   ar
    10     5     6   ar
    11     5     7   ar
    12     7     8   ar
    13     8    17    1
    14    17    18   ar
    15    18    19   ar
    16    19    20   ar
    17    20    21    1
    18    20    22   ar
    19    22    23   ar
    20     8     9   ar
    21     9    24    1
    22    24    25   ar
    23    25    26   ar
    24    26    27   ar
    25    27    28   ar
    26    28    30    1
    27    30    32    1
    28    32    33    1
    29    33    34    1
    30    34    35    1
    31    35    36    1
    32    28    29   ar
    33    14    15    1
    34    15    16    1
    35    16    11    1
    36     6     1   ar
    37    23    17   ar
    38    29    24   ar
    39     9     4   ar
    40    36    32    1
    41    30    31    1
@<TRIPOS>MOLECULE
*****
 36 41 0 0 0
SMALL
GASTEIGER

@<TRIPOS>ATOM
      1 C          -1.9629    3.2501   21.9920 C.ar    1  UNL1        0.1335
      2 C          -1.1506    3.2448   23.2530 C.ar    1  UNL1        0.0359
      3 C           0.1476    2.4954   23.3056 C.ar    1  UNL1        0.0236
      4 C           0.6335    1.7511   22.0972 C.ar    1  UNL1        0.1025
      5 C          -0.1788    1.7564   20.8363 C.ar    1  UNL1        0.1813
      6 N          -1.4771    2.5059   20.7837 N.ar    1  UNL1       -0.2104
      7 N           0.5498    0.9379   19.8121 N.ar    1  UNL1       -0.2076
      8 C           1.8125    0.4267   20.4400 C.ar    1  UNL1        0.1505
      9 N           1.8643    0.9293   21.8523 N.ar    1  UNL1       -0.2735
     10 C          -7.1560    6.2481   21.7813 C.3     1  UNL1        0.0897
     11 N          -5.8578    5.4986   21.8340 N.3     1  UNL1       -0.2686
     12 C          -5.7613    4.2194   22.6114 C.3     1  UNL1        0.0939
     13 C          -4.4630    3.4699   22.6641 C.3     1  UNL1        0.1095
     14 N          -3.2613    3.9996   21.9394 N.pl3   1  UNL1       -0.2903
     15 C          -3.3578    5.2788   21.1619 C.3     1  UNL1        0.1095
     16 C          -4.6560    6.0283   21.1093 C.3     1  UNL1        0.0939
     17 C           2.8426   -0.4357   19.7727 C.ar    1  UNL1        0.0347
     18 C           3.8121    0.1695   18.8011 C.ar    1  UNL1        0.0053
     19 C           4.8421   -0.6929   18.1339 C.ar    1  UNL1        0.0297
     20 C           4.9028   -2.1604   18.4381 C.ar    1  UNL1        0.1401
     21 F           5.9329   -3.0228   17.7708 F       1  UNL1       -0.2042
     22 C           3.9333   -2.7656   19.4097 C.ar    1  UNL1        0.0297
     23 C           2.9033   -1.9033   20.0770 C.ar    1  UNL1        0.0053
     24 C           2.9552    0.6578   22.8454 C.ar    1  UNL1        0.1533
     25 C           4.2511    1.4085   22.7600 C.ar    1  UNL1        0.0582
     26 C           5.3419    1.1369   23.7531 C.ar    1  UNL1        0.1049
     27 N           5.1369    0.1148   24.8316 N.ar    1  UNL1       -0.2122
     28 C           3.8411   -0.6359   24.9170 C.ar    1  UNL1        0.2182
     29 N           2.7503   -0.3643   23.9239 N.ar    1  UNL1       -0.1960
     30 N           3.6361   -1.6580   25.9955 N.pl3   1  UNL1       -0.3046
     31 H           3.4765   -2.5998   25.7572 H       1  UNL1        0.1496
     32 C           3.6744   -1.2453   27.4371 C.3     1  UNL1        0.0718
     33 C           2.5224   -0.7023   28.2295 C.3     1  UNL1        0.0196
     34 C           3.0074   -0.4244   29.6216 C.3     1  UNL1        0.0017
     35 C           4.4591   -0.7956   29.6893 C.3     1  UNL1        0.0017
     36 C           4.8714   -1.3029   28.3392 C.3     1  UNL1        0.0196
@<TRIPOS>BOND
     1    10    11    1
     2    11    12    1
     3    12    13    1
     4    13    14    1
     5    14     1    1
     6     1     2   ar
     7     2     3   ar
     8     3     4   ar
     9     4     5   ar
    10     5     6   ar
    11     5     7   ar
    12     7     8   ar
    13     8    17    1
    14    17    18   ar
    15    18    19   ar
    16    19    20   ar
    17    20    21    1
    18    20    22   ar
    19    22    23   ar
    20     8     9   ar
    21     9    24    1
    22    24    25   ar
    23    25    26   ar
    24    26    27   ar
    25    27    28   ar
    26    28    30    1
    27    30    32    1
    28    32    33    1
    29    33    34    1
    30    34    35    1
    31    35    36    1
    32    28    29   ar
    33    14    15    1
    34    15    16    1
    35    16    11    1
    36     6     1   ar
    37    23    17   ar
    38    29    24   ar
    39     9     4   ar
    40    36    32    1
    41    30    31    1
@<TRIPOS>MOLECULE
*****
 36 41 0 0 0
SMALL
GASTEIGER

@<TRIPOS>ATOM
      1 C           6.9479   -3.7752   29.8399 C.ar    1  UNL1        0.1335
      2 C           7.4972   -3.8881   31.2311 C.ar    1  UNL1        0.0359
      3 C           7.1139   -2.8794   32.2729 C.ar    1  UNL1        0.0236
      4 C           6.1813   -1.7577   31.9236 C.ar    1  UNL1        0.1025
      5 C           5.6319   -1.6448   30.5324 C.ar    1  UNL1        0.1813
      6 N           6.0152   -2.6535   29.4906 N.ar    1  UNL1       -0.2104
      7 N           4.7396   -0.4401   30.4828 N.ar    1  UNL1       -0.2076
      8 C           4.7374    0.1915   31.8434 C.ar    1  UNL1        0.1505
      9 N           5.6284   -0.6228   32.7339 N.ar    1  UNL1       -0.2735
     10 C           8.4811   -7.8100   25.6722 C.3     1  UNL1        0.0897
     11 N           8.0978   -6.8013   26.7141 N.3     1  UNL1       -0.2686
     12 C           8.1594   -7.1646   28.1681 C.3     1  UNL1        0.0939
     13 C           7.7760   -6.1559   29.2101 C.3     1  UNL1        0.1095
     14 N           7.3312   -4.7839   28.7980 N.pl3   1  UNL1       -0.2903
     15 C           7.2697   -4.4207   27.3439 C.3     1  UNL1        0.1095
     16 C           7.6530   -5.4293   26.3020 C.3     1  UNL1        0.0939
     17 C           3.9776    1.4215   32.2432 C.ar    1  UNL1        0.0347
     18 C           2.4988    1.3448   32.4828 C.ar    1  UNL1        0.0053
     19 C           1.7390    2.5747   32.8826 C.ar    1  UNL1        0.0297
     20 C           2.4579    3.8814   33.0428 C.ar    1  UNL1        0.1401
     21 F           1.6981    5.1114   33.4427 F       1  UNL1       -0.2042
     22 C           3.9367    3.9581   32.8033 C.ar    1  UNL1        0.0297
     23 C           4.6965    2.7282   32.4035 C.ar    1  UNL1        0.0053
     24 C           5.9161   -0.3502   34.1805 C.ar    1  UNL1        0.1533
     25 C           7.3348   -0.2463   34.6565 C.ar    1  UNL1        0.0582
     26 C           7.6224    0.0263   36.1032 C.ar    1  UNL1        0.1049
     27 N           6.4914    0.1952   37.0739 N.ar    1  UNL1       -0.2122
     28 C           5.0727    0.0913   36.5979 C.ar    1  UNL1        0.2182
     29 N           4.7851   -0.1813   35.1512 N.ar    1  UNL1       -0.1960
     30 N           3.9417    0.2601   37.5686 N.pl3   1  UNL1       -0.3046
     31 H           3.7465   -0.4473   38.2249 H       1  UNL1        0.1496
     32 C           3.1080    1.5068   37.5394 C.3     1  UNL1        0.0718
     33 C           3.0782    2.5217   36.4354 C.3     1  UNL1        0.0196
     34 C           2.1096    3.5997   36.8227 C.3     1  UNL1        0.0017
     35 C           1.5408    3.2508   38.1661 C.3     1  UNL1        0.0017
     36 C           2.1579    1.9574   38.6091 C.3     1  UNL1        0.0196
@<TRIPOS>BOND
     1    10    11    1
     2    11    12    1
     3    12    13    1
     4    13    14    1
     5    14     1    1
     6     1     2   ar
     7     2     3   ar
     8     3     4   ar
     9     4     5   ar
    10     5     6   ar
    11     5     7   ar
    12     7     8   ar
    13     8    17    1
    14    17    18   ar
    15    18    19   ar
    16    19    20   ar
    17    20    21    1
    18    20    22   ar
    19    22    23   ar
    20     8     9   ar
    21     9    24    1
    22    24    25   ar
    23    25    26   ar
    24    26    27   ar
    25    27    28   ar
    26    28    30    1
    27    30    32    1
    28    32    33    1
    29    33    34    1
    30    34    35    1
    31    35    36    1
    32    28    29   ar
    33    14    15    1
    34    15    16    1
    35    16    11    1
    36     6     1   ar
    37    23    17   ar
    38    29    24   ar
    39     9     4   ar
    40    36    32    1
    41    30    31    1
@<TRIPOS>MOLECULE
*****
 36 41 0 0 0
SMALL
GASTEIGER

@<TRIPOS>ATOM
      1 C           6.8657   -3.8927   27.1378 C.ar    1  UNL1        0.1335
      2 C           6.1611   -2.6305   27.5382 C.ar    1  UNL1        0.0359
      3 C           5.4957   -1.7803   26.4969 C.ar    1  UNL1        0.0236
      4 C           5.5350   -2.1924   25.0551 C.ar    1  UNL1        0.1025
      5 C           6.2396   -3.4545   24.6547 C.ar    1  UNL1        0.1813
      6 N           6.9049   -4.3047   25.6960 N.ar    1  UNL1       -0.2104
      7 N           6.1135   -3.6040   23.1675 N.ar    1  UNL1       -0.2076
      8 C           5.3310   -2.4341   22.6487 C.ar    1  UNL1        0.1505
      9 N           4.9734   -1.5616   23.8153 N.ar    1  UNL1       -0.2735
     10 C           9.5272   -7.2936   31.3032 C.3     1  UNL1        0.0897
     11 N           8.8618   -6.4434   30.2619 N.3     1  UNL1       -0.2686
     12 C           7.5628   -5.7596   30.5699 C.3     1  UNL1        0.0939
     13 C           6.8974   -4.9093   29.5285 C.3     1  UNL1        0.1095
     14 N           7.5311   -4.7429   28.1792 N.pl3   1  UNL1       -0.2903
     15 C           8.8301   -5.4268   27.8712 C.3     1  UNL1        0.1095
     16 C           9.4955   -6.2770   28.9125 C.3     1  UNL1        0.0939
     17 C           4.9695   -2.1811   21.2150 C.ar    1  UNL1        0.0347
     18 C           6.0474   -2.0760   20.1771 C.ar    1  UNL1        0.0053
     19 C           5.6860   -1.8230   18.7435 C.ar    1  UNL1        0.0297
     20 C           4.2467   -1.6752   18.3478 C.ar    1  UNL1        0.1401
     21 F           3.8852   -1.4222   16.9141 F       1  UNL1       -0.2042
     22 C           3.1689   -1.7803   19.3857 C.ar    1  UNL1        0.0297
     23 C           3.5303   -2.0333   20.8193 C.ar    1  UNL1        0.0053
     24 C           4.1916   -0.2830   23.7531 C.ar    1  UNL1        0.1533
     25 C           4.8949    1.0136   23.4809 C.ar    1  UNL1        0.0582
     26 C           4.1130    2.2922   23.4187 C.ar    1  UNL1        0.1049
     27 N           2.6279    2.2741   23.6288 N.ar    1  UNL1       -0.2122
     28 C           1.9246    0.9775   23.9010 C.ar    1  UNL1        0.2182
     29 N           2.7065   -0.3011   23.9632 N.ar    1  UNL1       -0.1960
     30 N           0.4395    0.9594   24.1111 N.pl3   1  UNL1       -0.3046
     31 H          -0.1490    0.5587   23.4311 H       1  UNL1        0.1496
     32 C          -0.1490    1.5520   25.3571 C.3     1  UNL1        0.0718
     33 C          -1.2978    2.5145   25.4181 C.3     1  UNL1        0.0196
     34 C          -1.5508    2.8435   26.8596 C.3     1  UNL1        0.0017
     35 C          -0.5583    2.0843   27.6894 C.3     1  UNL1        0.0017
     36 C           0.3081    1.2861   26.7608 C.3     1  UNL1        0.0196
@<TRIPOS>BOND
     1    10    11    1
     2    11    12    1
     3    12    13    1
     4    13    14    1
     5    14     1    1
     6     1     2   ar
     7     2     3   ar
     8     3     4   ar
     9     4     5   ar
    10     5     6   ar
    11     5     7   ar
    12     7     8   ar
    13     8    17    1
    14    17    18   ar
    15    18    19   ar
    16    19    20   ar
    17    20    21    1
    18    20    22   ar
    19    22    23   ar
    20     8     9   ar
    21     9    24    1
    22    24    25   ar
    23    25    26   ar
    24    26    27   ar
    25    27    28   ar
    26    28    30    1
    27    30    32    1
    28    32    33    1
    29    33    34    1
    30    34    35    1
    31    35    36    1
    32    28    29   ar
    33    14    15    1
    34    15    16    1
    35    16    11    1
    36     6     1   ar
    37    23    17   ar
    38    29    24   ar
    39     9     4   ar
    40    36    32    1
    41    30    31    1
@<TRIPOS>MOLECULE
*****
 36 41 0 0 0
SMALL
GASTEIGER

@<TRIPOS>ATOM
      1 C           6.7762   -3.9148   27.5420 C.ar    1  UNL1        0.1335
      2 C           5.9706   -2.7187   27.9546 C.ar    1  UNL1        0.0359
      3 C           5.2935   -1.8757   26.9150 C.ar    1  UNL1        0.0236
      4 C           5.4221   -2.2287   25.4628 C.ar    1  UNL1        0.1025
      5 C           6.2277   -3.4248   25.0502 C.ar    1  UNL1        0.1813
      6 N           6.9048   -4.2679   26.0898 N.ar    1  UNL1       -0.2104
      7 N           6.1755   -3.5253   23.5545 N.ar    1  UNL1       -0.2076
      8 C           5.3375   -2.3913   23.0427 C.ar    1  UNL1        0.1505
      9 N           4.8719   -1.5900   24.2221 N.ar    1  UNL1       -0.2735
     10 C           9.4847   -7.2873   31.7003 C.3     1  UNL1        0.0897
     11 N           8.8076   -6.4442   30.6607 N.3     1  UNL1       -0.2686
     12 C           8.2665   -5.0938   31.0262 C.3     1  UNL1        0.0939
     13 C           7.5894   -4.2506   29.9866 C.3     1  UNL1        0.1095
     14 N           7.4534   -4.7580   28.5816 N.pl3   1  UNL1       -0.2903
     15 C           7.9945   -6.1084   28.2161 C.3     1  UNL1        0.1095
     16 C           8.6716   -6.9515   29.2556 C.3     1  UNL1        0.0939
     17 C           5.0208   -2.1084   21.6040 C.ar    1  UNL1        0.0347
     18 C           5.7633   -1.0311   20.8704 C.ar    1  UNL1        0.0053
     19 C           5.4467   -0.7482   19.4318 C.ar    1  UNL1        0.0297
     20 C           4.3876   -1.5426   18.7268 C.ar    1  UNL1        0.1401
     21 F           4.0709   -1.2597   17.2881 F       1  UNL1       -0.2042
     22 C           3.6451   -2.6199   19.4603 C.ar    1  UNL1        0.0297
     23 C           3.9617   -2.9028   20.8989 C.ar    1  UNL1        0.0053
     24 C           4.0078   -0.3650   24.1699 C.ar    1  UNL1        0.1533
     25 C           4.3287    0.8166   25.0365 C.ar    1  UNL1        0.0582
     26 C           3.4646    2.0416   24.9843 C.ar    1  UNL1        0.1049
     27 N           2.2796    2.0849   24.0656 N.ar    1  UNL1       -0.2122
     28 C           1.9587    0.9033   23.1991 C.ar    1  UNL1        0.2182
     29 N           2.8228   -0.3216   23.2513 N.ar    1  UNL1       -0.1960
     30 N           0.7737    0.9467   22.2804 N.pl3   1  UNL1       -0.3046
     31 H          -0.1373    0.8877   22.6490 H       1  UNL1        0.1496
     32 C           0.9768    1.0800   20.8002 C.3     1  UNL1        0.0718
     33 C           0.9621   -0.0411   19.8038 C.3     1  UNL1        0.0196
     34 C           1.2064    0.5437   18.4443 C.3     1  UNL1        0.0017
     35 C           1.3721    2.0263   18.6005 C.3     1  UNL1        0.0017
     36 C           1.2302    2.3578   20.0566 C.3     1  UNL1        0.0196
@<TRIPOS>BOND
     1    10    11    1
     2    11    12    1
     3    12    13    1
     4    13    14    1
     5    14     1    1
     6     1     2   ar
     7     2     3   ar
     8     3     4   ar
     9     4     5   ar
    10     5     6   ar
    11     5     7   ar
    12     7     8   ar
    13     8    17    1
    14    17    18   ar
    15    18    19   ar
    16    19    20   ar
    17    20    21    1
    18    20    22   ar
    19    22    23   ar
    20     8     9   ar
    21     9    24    1
    22    24    25   ar
    23    25    26   ar
    24    26    27   ar
    25    27    28   ar
    26    28    30    1
    27    30    32    1
    28    32    33    1
    29    33    34    1
    30    34    35    1
    31    35    36    1
    32    28    29   ar
    33    14    15    1
    34    15    16    1
    35    16    11    1
    36     6     1   ar
    37    23    17   ar
    38    29    24   ar
    39     9     4   ar
    40    36    32    1
    41    30    31    1
