@<TRIPOS>MOLECULE
*****
 27 29 0 0 0
SMALL
GASTEIGER

@<TRIPOS>ATOM
      1 C          -9.1958  -17.5387   23.1223 C.ar    1  UNL1        0.0615
      2 C          -9.9095  -16.7209   24.1575 C.ar    1  UNL1        0.0186
      3 C          -9.1305  -15.8213   25.0705 C.ar    1  UNL1        0.0398
      4 C          -7.6377  -15.7394   24.9484 C.ar    1  UNL1        0.1568
      5 C          -6.9240  -16.5572   23.9131 C.ar    1  UNL1        0.1242
      6 N          -5.4717  -16.6833   23.5598 N.ar    1  UNL1       -0.2208
      7 C          -5.3531  -17.6609   22.4283 C.ar    1  UNL1        0.1659
      8 S          -6.7322  -18.1390   22.0824 S.2     1  UNL1       -0.0500
      9 C          -7.7030  -17.4569   23.0001 C.ar    1  UNL1        0.0664
     10 N          -9.9748  -18.4384   22.2092 N.am    1  UNL1       -0.2581
     11 C         -10.4592  -17.9258   20.8852 C.2     1  UNL1        0.2298
     12 C         -11.2382  -18.8254   19.9722 C.3     1  UNL1        0.0952
     13 O         -10.1645  -16.5136   20.4745 O.2     1  UNL1       -0.2745
     14 C          -9.7183  -20.3877   23.9076 C.3     1  UNL1        0.0237
     15 C         -10.2695  -19.8506   22.6200 C.3     1  UNL1        0.0983
     16 N          -4.0792  -18.0858   21.7601 N.am    1  UNL1       -0.2594
     17 C          -2.9703  -17.0956   21.5608 C.2     1  UNL1        0.2683
     18 O          -3.1352  -15.6804   22.0298 O.2     1  UNL1       -0.2681
     19 H          -3.9709  -19.0147   21.4523 H       1  UNL1        0.1571
     20 C          -1.6964  -17.5206   20.8925 C.ar    1  UNL1        0.1330
     21 C          -0.5425  -16.6275   20.5450 C.ar    1  UNL1        0.0458
     22 C           0.5142  -17.4684   19.8922 C.ar    1  UNL1        0.1218
     23 N           0.0135  -18.8812   19.8362 N.ar    1  UNL1       -0.1675
     24 N          -1.3528  -18.9135   20.4545 N.ar    1  UNL1       -0.2443
     25 C          -2.2228  -20.1258   20.6077 C.3     1  UNL1        0.1539
     26 O          -6.8587  -14.8397   25.8615 O.3     1  UNL1       -0.4699
     27 C          -6.5772  -15.2647   27.2722 C.3     1  UNL1        0.2525
@<TRIPOS>BOND
     1    14    15    1
     2    15    10    1
     3    10    11   am
     4    11    12    1
     5    11    13    2
     6    10     1    1
     7     1     2   ar
     8     2     3   ar
     9     3     4   ar
    10     4    26    1
    11    26    27    1
    12     4     5   ar
    13     5     6   ar
    14     6     7   ar
    15     7    16    1
    16    16    17   am
    17    17    18    2
    18    17    20    1
    19    20    21   ar
    20    21    22   ar
    21    22    23   ar
    22    23    24   ar
    23    24    25    1
    24     7     8   ar
    25     8     9   ar
    26     9     1   ar
    27     9     5   ar
    28    24    20   ar
    29    16    19    1
@<TRIPOS>MOLECULE
*****
 27 29 0 0 0
SMALL
GASTEIGER

@<TRIPOS>ATOM
      1 C          -9.7296  -18.7598   21.7923 C.ar    1  UNL1        0.0615
      2 C         -10.9186  -19.1761   20.9781 C.ar    1  UNL1        0.0186
      3 C         -10.7220  -19.7990   19.6279 C.ar    1  UNL1        0.0398
      4 C          -9.3363  -20.0057   19.0918 C.ar    1  UNL1        0.1568
      5 C          -8.1473  -19.5894   19.9060 C.ar    1  UNL1        0.1242
      6 N          -6.6729  -19.6669   19.6415 N.ar    1  UNL1       -0.2208
      7 C          -5.9583  -19.0918   20.8283 C.ar    1  UNL1        0.1659
      8 S          -6.9910  -18.6589   21.8263 S.2     1  UNL1       -0.0500
      9 C          -8.3440  -18.9665   21.2563 C.ar    1  UNL1        0.0664
     10 N          -9.9262  -18.1368   23.1426 N.am    1  UNL1       -0.2581
     11 C          -9.7683  -18.9671   24.3819 C.2     1  UNL1        0.2298
     12 C          -9.9649  -18.3442   25.7321 C.3     1  UNL1        0.0952
     13 O          -9.4136  -20.4203   24.2707 O.2     1  UNL1       -0.2745
     14 C         -11.5873  -16.1866   22.7092 C.3     1  UNL1        0.0237
     15 C         -10.2808  -16.6835   23.2537 C.3     1  UNL1        0.0983
     16 N          -4.4718  -18.9707   20.9889 N.am    1  UNL1       -0.2594
     17 C          -3.6564  -18.2870   19.9318 C.2     1  UNL1        0.2683
     18 O          -4.3273  -17.7242   18.7140 O.2     1  UNL1       -0.2681
     19 H          -4.0314  -19.3401   21.7882 H       1  UNL1        0.1571
     20 C          -2.1699  -18.1660   20.0925 C.ar    1  UNL1        0.1330
     21 C          -1.1647  -18.1077   18.9808 C.ar    1  UNL1        0.0458
     22 C           0.1987  -17.9878   19.5945 C.ar    1  UNL1        0.1218
     23 N           0.0363  -17.9719   21.0855 N.ar    1  UNL1       -0.1675
     24 N          -1.4278  -18.0821   21.3933 N.ar    1  UNL1       -0.2443
     25 C          -2.0417  -18.1044   22.7618 C.3     1  UNL1        0.1539
     26 O          -9.1398  -20.6287   17.7415 O.3     1  UNL1       -0.4699
     27 C          -8.8324  -22.0925   17.6284 C.3     1  UNL1        0.2525
@<TRIPOS>BOND
     1    14    15    1
     2    15    10    1
     3    10    11   am
     4    11    12    1
     5    11    13    2
     6    10     1    1
     7     1     2   ar
     8     2     3   ar
     9     3     4   ar
    10     4    26    1
    11    26    27    1
    12     4     5   ar
    13     5     6   ar
    14     6     7   ar
    15     7    16    1
    16    16    17   am
    17    17    18    2
    18    17    20    1
    19    20    21   ar
    20    21    22   ar
    21    22    23   ar
    22    23    24   ar
    23    24    25    1
    24     7     8   ar
    25     8     9   ar
    26     9     1   ar
    27     9     5   ar
    28    24    20   ar
    29    16    19    1
@<TRIPOS>MOLECULE
*****
 27 29 0 0 0
SMALL
GASTEIGER

@<TRIPOS>ATOM
      1 C           4.9314   -0.1899   34.5651 C.ar    1  UNL1        0.0615
      2 C           5.1434   -0.1598   36.0497 C.ar    1  UNL1        0.0186
      3 C           4.2913    0.7243   36.9112 C.ar    1  UNL1        0.0398
      4 C           3.2271    1.5783   36.2881 C.ar    1  UNL1        0.1568
      5 C           3.0151    1.5482   34.8034 C.ar    1  UNL1        0.1242
      6 N           2.0510    2.2738   33.9123 N.ar    1  UNL1       -0.2208
      7 C           2.3074    1.8381   32.5001 C.ar    1  UNL1        0.1659
      8 S           3.4298    0.8432   32.5184 S.2     1  UNL1       -0.0500
      9 C           3.8672    0.6641   33.9420 C.ar    1  UNL1        0.0664
     10 N           5.7835   -1.0740   33.7036 N.am    1  UNL1       -0.2581
     11 C           5.2465   -2.3859   33.2128 C.2     1  UNL1        0.2298
     12 C           6.0986   -3.2700   32.3514 C.3     1  UNL1        0.0952
     13 O           3.8574   -2.8134   33.5836 O.2     1  UNL1       -0.2745
     14 C           7.4666    0.8007   33.0693 C.3     1  UNL1        0.0237
     15 C           7.1727   -0.6464   33.3329 C.3     1  UNL1        0.0983
     16 N           1.5706    2.3137   31.2831 N.am    1  UNL1       -0.2594
     17 C           1.1469    1.3317   30.2314 C.2     1  UNL1        0.2683
     18 O           1.4600   -0.1259   30.3965 O.2     1  UNL1       -0.2681
     19 H           1.3651    3.2704   31.1747 H       1  UNL1        0.1571
     20 C           0.4102    1.8075   29.0144 C.ar    1  UNL1        0.1330
     21 C           0.7431    3.0230   28.2012 C.ar    1  UNL1        0.0458
     22 C          -0.2502    3.1179   27.0813 C.ar    1  UNL1        0.1218
     23 N          -1.1972    1.9610   27.2023 N.ar    1  UNL1       -0.1675
     24 N          -0.7890    1.1510   28.3972 N.ar    1  UNL1       -0.2443
     25 C          -1.4619   -0.0963   28.8884 C.3     1  UNL1        0.1539
     26 O           2.3749    2.4625   37.1496 O.3     1  UNL1       -0.4699
     27 C           2.1616    2.1212   38.5946 C.3     1  UNL1        0.2525
@<TRIPOS>BOND
     1    14    15    1
     2    15    10    1
     3    10    11   am
     4    11    12    1
     5    11    13    2
     6    10     1    1
     7     1     2   ar
     8     2     3   ar
     9     3     4   ar
    10     4    26    1
    11    26    27    1
    12     4     5   ar
    13     5     6   ar
    14     6     7   ar
    15     7    16    1
    16    16    17   am
    17    17    18    2
    18    17    20    1
    19    20    21   ar
    20    21    22   ar
    21    22    23   ar
    22    23    24   ar
    23    24    25    1
    24     7     8   ar
    25     8     9   ar
    26     9     1   ar
    27     9     5   ar
    28    24    20   ar
    29    16    19    1
@<TRIPOS>MOLECULE
*****
 27 29 0 0 0
SMALL
GASTEIGER

@<TRIPOS>ATOM
      1 C          -0.6357    2.0454   26.6291 C.ar    1  UNL1        0.0615
      2 C          -1.7765    2.9687   26.9393 C.ar    1  UNL1        0.0186
      3 C          -2.4080    3.7751   25.8435 C.ar    1  UNL1        0.0398
      4 C          -1.8988    3.6582   24.4373 C.ar    1  UNL1        0.1568
      5 C          -0.7581    2.7349   24.1272 C.ar    1  UNL1        0.1242
      6 N          -0.0473    2.4129   22.8461 N.ar    1  UNL1       -0.2208
      7 C           1.0235    1.4075   23.1503 C.ar    1  UNL1        0.1659
      8 S           0.9746    1.1081   24.6193 S.2     1  UNL1       -0.0500
      9 C          -0.1265    1.9285   25.2230 C.ar    1  UNL1        0.0664
     10 N          -0.0042    1.2390   27.7250 N.am    1  UNL1       -0.2581
     11 C           1.2727    1.7056   28.3590 C.2     1  UNL1        0.2298
     12 C           1.9043    0.8993   29.4548 C.3     1  UNL1        0.0952
     13 O           1.9180    2.9784   27.8970 O.2     1  UNL1       -0.2745
     14 C          -1.7723    0.0122   29.1806 C.3     1  UNL1        0.0237
     15 C          -0.6496   -0.0338   28.1869 C.3     1  UNL1        0.0983
     16 N           1.9761    0.8069   22.1594 N.am    1  UNL1       -0.2594
     17 C           1.4496    0.1169   20.9360 C.2     1  UNL1        0.2683
     18 O          -0.0296    0.0274   20.7035 O.2     1  UNL1       -0.2681
     19 H           2.9470    0.8656   22.3119 H       1  UNL1        0.1571
     20 C           2.4022   -0.4837   19.9452 C.ar    1  UNL1        0.1330
     21 C           2.9111   -1.8946   19.9548 C.ar    1  UNL1        0.0458
     22 C           3.8366   -2.0616   18.7863 C.ar    1  UNL1        0.1218
     23 N           3.8999   -0.7539   18.0544 N.ar    1  UNL1       -0.1675
     24 N           3.0133    0.2214   18.7707 N.ar    1  UNL1       -0.2443
     25 C           2.7790    1.6508   18.3808 C.3     1  UNL1        0.1539
     26 O          -2.5304    4.4646   23.3415 O.3     1  UNL1       -0.4699
     27 C          -3.4122    3.7945   22.3300 C.3     1  UNL1        0.2525
@<TRIPOS>BOND
     1    14    15    1
     2    15    10    1
     3    10    11   am
     4    11    12    1
     5    11    13    2
     6    10     1    1
     7     1     2   ar
     8     2     3   ar
     9     3     4   ar
    10     4    26    1
    11    26    27    1
    12     4     5   ar
    13     5     6   ar
    14     6     7   ar
    15     7    16    1
    16    16    17   am
    17    17    18    2
    18    17    20    1
    19    20    21   ar
    20    21    22   ar
    21    22    23   ar
    22    23    24   ar
    23    24    25    1
    24     7     8   ar
    25     8     9   ar
    26     9     1   ar
    27     9     5   ar
    28    24    20   ar
    29    16    19    1
@<TRIPOS>MOLECULE
*****
 27 29 0 0 0
SMALL
GASTEIGER

@<TRIPOS>ATOM
      1 C           3.8806    1.3547   34.9833 C.ar    1  UNL1        0.0615
      2 C           2.8863    2.4559   34.7626 C.ar    1  UNL1        0.0186
      3 C           2.0289    2.4568   33.5319 C.ar    1  UNL1        0.0398
      4 C           2.1658    1.3564   32.5216 C.ar    1  UNL1        0.1568
      5 C           3.1601    0.2553   32.7422 C.ar    1  UNL1        0.1242
      6 N           3.5163   -0.9533   31.9283 N.ar    1  UNL1       -0.2208
      7 C           4.5939   -1.7011   32.6561 C.ar    1  UNL1        0.1659
      8 S           4.9037   -0.9547   33.9198 S.2     1  UNL1       -0.0500
      9 C           4.0175    0.2544   33.9731 C.ar    1  UNL1        0.0664
     10 N           4.7380    1.3539   36.2141 N.am    1  UNL1       -0.2581
     11 C           6.0519    2.0776   36.2134 C.2     1  UNL1        0.2298
     12 C           6.9093    2.0768   37.4441 C.3     1  UNL1        0.0952
     13 O           6.5083    2.8022   34.9818 O.2     1  UNL1       -0.2745
     14 C           3.1572    1.1844   38.2689 C.3     1  UNL1        0.0237
     15 C           4.2815    0.6293   37.4456 C.3     1  UNL1        0.0983
     16 N           5.2470   -2.9722   32.2002 N.am    1  UNL1       -0.2594
     17 C           6.2419   -2.9435   31.0780 C.2     1  UNL1        0.2683
     18 O           6.5836   -1.6439   30.4115 O.2     1  UNL1       -0.2681
     19 H           5.0228   -3.8252   32.6376 H       1  UNL1        0.1571
     20 C           6.8950   -4.2147   30.6222 C.ar    1  UNL1        0.1330
     21 C           7.6567   -5.1741   31.4876 C.ar    1  UNL1        0.0458
     22 C           8.1335   -6.3019   30.6211 C.ar    1  UNL1        0.1218
     23 N           7.6664   -6.0395   29.2201 N.ar    1  UNL1       -0.1675
     24 N           6.9010   -4.7494   29.2207 N.ar    1  UNL1       -0.2443
     25 C           6.2549   -4.1070   28.0291 C.3     1  UNL1        0.1539
     26 O           1.3084    1.3574   31.2908 O.3     1  UNL1       -0.4699
     27 C           1.8980    1.7418   29.9663 C.3     1  UNL1        0.2525
@<TRIPOS>BOND
     1    14    15    1
     2    15    10    1
     3    10    11   am
     4    11    12    1
     5    11    13    2
     6    10     1    1
     7     1     2   ar
     8     2     3   ar
     9     3     4   ar
    10     4    26    1
    11    26    27    1
    12     4     5   ar
    13     5     6   ar
    14     6     7   ar
    15     7    16    1
    16    16    17   am
    17    17    18    2
    18    17    20    1
    19    20    21   ar
    20    21    22   ar
    21    22    23   ar
    22    23    24   ar
    23    24    25    1
    24     7     8   ar
    25     8     9   ar
    26     9     1   ar
    27     9     5   ar
    28    24    20   ar
    29    16    19    1
@<TRIPOS>MOLECULE
*****
 27 29 0 0 0
SMALL
GASTEIGER

@<TRIPOS>ATOM
      1 C           3.7178    1.7812   36.2801 C.ar    1  UNL1        0.0615
      2 C           4.6715    0.8015   36.8970 C.ar    1  UNL1        0.0186
      3 C           5.2204   -0.3285   36.0775 C.ar    1  UNL1        0.0398
      4 C           4.8155   -0.4790   34.6410 C.ar    1  UNL1        0.1568
      5 C           3.8618    0.5007   34.0241 C.ar    1  UNL1        0.1242
      6 N           3.2854    0.6068   32.6433 N.ar    1  UNL1       -0.2208
      7 C           2.3803    1.8025   32.6095 C.ar    1  UNL1        0.1659
      8 S           2.3973    2.4354   33.9694 S.2     1  UNL1       -0.0500
      9 C           3.3129    1.6308   34.8437 C.ar    1  UNL1        0.0664
     10 N           3.1689    2.9113   37.0997 N.am    1  UNL1       -0.2581
     11 C           3.9213    4.2058   37.1914 C.2     1  UNL1        0.2298
     12 C           3.3725    5.3358   38.0109 C.3     1  UNL1        0.0952
     13 O           5.2225    4.3700   36.4635 O.2     1  UNL1       -0.2745
     14 C           1.7565    1.7597   38.9515 C.3     1  UNL1        0.0237
     15 C           1.8676    2.7469   37.8275 C.3     1  UNL1        0.0983
     16 N           1.5959    2.2813   31.4240 N.am    1  UNL1       -0.2594
     17 C           1.2035    1.3162   30.3449 C.2     1  UNL1        0.2683
     18 O           1.5954   -0.1278   30.4512 O.2     1  UNL1       -0.2681
     19 H           1.3387    3.2290   31.3541 H       1  UNL1        0.1571
     20 C           0.4191    1.7951   29.1594 C.ar    1  UNL1        0.1330
     21 C           0.6932    3.0369   28.3641 C.ar    1  UNL1        0.0458
     22 C          -0.3337    3.1255   27.2742 C.ar    1  UNL1        0.1218
     23 N          -1.2424    1.9384   27.3959 N.ar    1  UNL1       -0.1675
     24 N          -0.7771    1.1161   28.5611 N.ar    1  UNL1       -0.2443
     25 C          -1.3990   -0.1610   29.0432 C.3     1  UNL1        0.1539
     26 O           5.3645   -1.6091   33.8215 O.3     1  UNL1       -0.4699
     27 C           4.4563   -2.7087   33.3568 C.3     1  UNL1        0.2525
@<TRIPOS>BOND
     1    14    15    1
     2    15    10    1
     3    10    11   am
     4    11    12    1
     5    11    13    2
     6    10     1    1
     7     1     2   ar
     8     2     3   ar
     9     3     4   ar
    10     4    26    1
    11    26    27    1
    12     4     5   ar
    13     5     6   ar
    14     6     7   ar
    15     7    16    1
    16    16    17   am
    17    17    18    2
    18    17    20    1
    19    20    21   ar
    20    21    22   ar
    21    22    23   ar
    22    23    24   ar
    23    24    25    1
    24     7     8   ar
    25     8     9   ar
    26     9     1   ar
    27     9     5   ar
    28    24    20   ar
    29    16    19    1
@<TRIPOS>MOLECULE
*****
 27 29 0 0 0
SMALL
GASTEIGER

@<TRIPOS>ATOM
      1 C          -5.1645  -18.1666   22.0360 C.ar    1  UNL1        0.0615
      2 C          -3.8528  -17.6306   22.5282 C.ar    1  UNL1        0.0186
      3 C          -3.8256  -16.5912   23.6093 C.ar    1  UNL1        0.0398
      4 C          -5.1100  -16.0877   24.1983 C.ar    1  UNL1        0.1568
      5 C          -6.4217  -16.6238   23.7061 C.ar    1  UNL1        0.1242
      6 N          -7.8387  -16.3204   24.0934 N.ar    1  UNL1       -0.2208
      7 C          -8.7417  -17.1724   23.2515 C.ar    1  UNL1        0.1659
      8 S          -7.8828  -18.0023   22.3440 S.2     1  UNL1       -0.0500
      9 C          -6.4489  -17.6632   22.6250 C.ar    1  UNL1        0.0664
     10 N          -5.1917  -19.2060   20.9549 N.am    1  UNL1       -0.2581
     11 C          -5.8433  -20.5335   21.2069 C.2     1  UNL1        0.2298
     12 C          -5.8705  -21.5728   20.1258 C.3     1  UNL1        0.0952
     13 O          -6.4675  -20.8213   22.5401 O.2     1  UNL1       -0.2745
     14 C          -3.1103  -19.1968   19.4001 C.3     1  UNL1        0.0237
     15 C          -4.5674  -18.9180   19.6217 C.3     1  UNL1        0.0983
     16 N         -10.2406  -17.1913   23.3074 N.am    1  UNL1       -0.2594
     17 C         -10.9495  -18.2787   24.0589 C.2     1  UNL1        0.2683
     18 O         -10.1597  -19.3473   24.7547 O.2     1  UNL1       -0.2681
     19 H         -10.7590  -16.4899   22.8507 H       1  UNL1        0.1571
     20 C         -12.4484  -18.2975   24.1147 C.ar    1  UNL1        0.1330
     21 C         -13.2820  -18.5686   25.3318 C.ar    1  UNL1        0.0458
     22 C         -14.7256  -18.4871   24.9324 C.ar    1  UNL1        0.1218
     23 N         -14.7841  -18.1655   23.4685 N.ar    1  UNL1       -0.1675
     24 N         -13.3766  -18.0483   22.9631 N.ar    1  UNL1       -0.2443
     25 C         -12.9691  -17.7367   21.5536 C.3     1  UNL1        0.1539
     26 O          -5.0827  -15.0483   25.2795 O.3     1  UNL1       -0.4699
     27 C          -5.8911  -15.2432   26.5279 C.3     1  UNL1        0.2525
@<TRIPOS>BOND
     1    14    15    1
     2    15    10    1
     3    10    11   am
     4    11    12    1
     5    11    13    2
     6    10     1    1
     7     1     2   ar
     8     2     3   ar
     9     3     4   ar
    10     4    26    1
    11    26    27    1
    12     4     5   ar
    13     5     6   ar
    14     6     7   ar
    15     7    16    1
    16    16    17   am
    17    17    18    2
    18    17    20    1
    19    20    21   ar
    20    21    22   ar
    21    22    23   ar
    22    23    24   ar
    23    24    25    1
    24     7     8   ar
    25     8     9   ar
    26     9     1   ar
    27     9     5   ar
    28    24    20   ar
    29    16    19    1
@<TRIPOS>MOLECULE
*****
 27 29 0 0 0
SMALL
GASTEIGER

@<TRIPOS>ATOM
      1 C          -9.6862  -18.5169   22.5257 C.ar    1  UNL1        0.0615
      2 C         -11.0724  -18.8901   22.0907 C.ar    1  UNL1        0.0186
      3 C         -11.3031  -19.4464   20.7171 C.ar    1  UNL1        0.0398
      4 C         -10.1476  -19.6297   19.7782 C.ar    1  UNL1        0.1568
      5 C          -8.7615  -19.2565   20.2132 C.ar    1  UNL1        0.1242
      6 N          -7.4372  -19.3241   19.5120 N.ar    1  UNL1       -0.2208
      7 C          -6.3880  -18.8095   20.4524 C.ar    1  UNL1        0.1659
      8 S          -7.0638  -18.4239   21.7348 S.2     1  UNL1       -0.0500
      9 C          -8.5308  -18.7001   21.5870 C.ar    1  UNL1        0.0664
     10 N          -9.4555  -17.9605   23.8995 N.am    1  UNL1       -0.2581
     11 C          -9.0105  -16.5379   24.0675 C.2     1  UNL1        0.2298
     12 C          -8.7798  -15.9815   25.4412 C.3     1  UNL1        0.0952
     13 O          -8.7962  -15.6718   22.8617 O.2     1  UNL1       -0.2745
     14 C          -9.9818  -20.2841   24.9358 C.3     1  UNL1        0.0237
     15 C          -9.6698  -18.8267   25.1052 C.3     1  UNL1        0.0983
     16 N          -4.9206  -18.6999   20.1616 N.am    1  UNL1       -0.2594
     17 C          -4.0054  -18.0491   21.1561 C.2     1  UNL1        0.2683
     18 O          -4.5576  -17.5081   22.4415 O.2     1  UNL1       -0.2681
     19 H          -4.5581  -19.0550   19.3179 H       1  UNL1        0.1571
     20 C          -2.5380  -17.9395   20.8651 C.ar    1  UNL1        0.1330
     21 C          -1.7605  -16.6649   20.7209 C.ar    1  UNL1        0.0458
     22 C          -0.3324  -17.0230   20.4340 C.ar    1  UNL1        0.1218
     23 N          -0.2272  -18.5189   20.4008 N.ar    1  UNL1       -0.1675
     24 N          -1.5904  -19.0854   20.6673 N.ar    1  UNL1       -0.2443
     25 C          -1.9439  -20.5419   20.7258 C.3     1  UNL1        0.1539
     26 O         -10.3785  -20.1861   18.4044 O.3     1  UNL1       -0.4699
     27 C          -9.3396  -21.0584   17.7643 C.3     1  UNL1        0.2525
@<TRIPOS>BOND
     1    14    15    1
     2    15    10    1
     3    10    11   am
     4    11    12    1
     5    11    13    2
     6    10     1    1
     7     1     2   ar
     8     2     3   ar
     9     3     4   ar
    10     4    26    1
    11    26    27    1
    12     4     5   ar
    13     5     6   ar
    14     6     7   ar
    15     7    16    1
    16    16    17   am
    17    17    18    2
    18    17    20    1
    19    20    21   ar
    20    21    22   ar
    21    22    23   ar
    22    23    24   ar
    23    24    25    1
    24     7     8   ar
    25     8     9   ar
    26     9     1   ar
    27     9     5   ar
    28    24    20   ar
    29    16    19    1
@<TRIPOS>MOLECULE
*****
 27 29 0 0 0
SMALL
GASTEIGER

@<TRIPOS>ATOM
      1 C           1.2546    1.3383   30.3834 C.ar    1  UNL1        0.0615
      2 C           0.5971    2.4892   31.0856 C.ar    1  UNL1        0.0186
      3 C           1.0304    2.8693   32.4704 C.ar    1  UNL1        0.0398
      4 C           2.1213    2.0986   33.1530 C.ar    1  UNL1        0.1568
      5 C           2.7788    0.9477   32.4508 C.ar    1  UNL1        0.1242
      6 N           3.8728    0.0101   32.8680 N.ar    1  UNL1       -0.2208
      7 C           4.1156   -0.9495   31.7410 C.ar    1  UNL1        0.1659
      8 S           3.1716   -0.6050   30.6273 S.2     1  UNL1       -0.0500
      9 C           2.3455    0.5676   31.0660 C.ar    1  UNL1        0.0664
     10 N           0.8212    0.9582   28.9986 N.am    1  UNL1       -0.2581
     11 C           1.3623    1.7010   27.8130 C.2     1  UNL1        0.2298
     12 C           0.9290    1.3209   26.4282 C.3     1  UNL1        0.0952
     13 O           2.3366    2.8239   28.0123 O.2     1  UNL1       -0.2745
     14 C          -1.6069    0.0404   29.1067 C.3     1  UNL1        0.0237
     15 C          -0.1531   -0.1647   28.7994 C.3     1  UNL1        0.0983
     16 N           5.1250   -2.0590   31.7297 N.am    1  UNL1       -0.2594
     17 C           6.4151   -1.8916   30.9830 C.2     1  UNL1        0.2683
     18 O           6.6959   -0.6147   30.2476 O.2     1  UNL1       -0.2681
     19 H           4.9408   -2.8971   32.2123 H       1  UNL1        0.1571
     20 C           7.4245   -3.0011   30.9717 C.ar    1  UNL1        0.1330
     21 C           8.5376   -3.1905   31.9591 C.ar    1  UNL1        0.0458
     22 C           9.2990   -4.4225   31.5686 C.ar    1  UNL1        0.1218
     23 N           8.6566   -4.9945   30.3398 N.ar    1  UNL1       -0.1675
     24 N           7.4980   -4.1160   29.9709 N.ar    1  UNL1       -0.2443
     25 C           6.5750   -4.3171   28.8057 C.3     1  UNL1        0.1539
     26 O           2.5546    2.4788   34.5379 O.3     1  UNL1       -0.4699
     27 C           2.0038    3.7159   35.1830 C.3     1  UNL1        0.2525
@<TRIPOS>BOND
     1    14    15    1
     2    15    10    1
     3    10    11   am
     4    11    12    1
     5    11    13    2
     6    10     1    1
     7     1     2   ar
     8     2     3   ar
     9     3     4   ar
    10     4    26    1
    11    26    27    1
    12     4     5   ar
    13     5     6   ar
    14     6     7   ar
    15     7    16    1
    16    16    17   am
    17    17    18    2
    18    17    20    1
    19    20    21   ar
    20    21    22   ar
    21    22    23   ar
    22    23    24   ar
    23    24    25    1
    24     7     8   ar
    25     8     9   ar
    26     9     1   ar
    27     9     5   ar
    28    24    20   ar
    29    16    19    1
