@<TRIPOS>MOLECULE
*****
 28 31 0 0 0
SMALL
GASTEIGER

@<TRIPOS>ATOM
      1 C          -8.1727  -18.7282   22.9601 C.ar    1  UNL1        0.0579
      2 C          -6.9382  -19.1140   22.2005 C.ar    1  UNL1        0.0833
      3 N          -5.8982  -18.0600   22.4400 N.ar    1  UNL1       -0.3048
      4 C          -6.4899  -17.0227   23.3477 C.ar    1  UNL1        0.0641
      5 C          -5.9303  -15.7555   23.9230 C.ar    1  UNL1        0.0175
      6 C          -6.7764  -14.9013   24.8198 C.ar    1  UNL1        0.0015
      7 C          -8.1821  -15.3142   25.1413 C.ar    1  UNL1        0.0001
      8 C          -8.7418  -16.5814   24.5660 C.ar    1  UNL1        0.0016
      9 C          -7.8956  -17.4357   23.6692 C.ar    1  UNL1        0.0207
     10 C          -4.5101  -18.0457   21.8716 C.ar    1  UNL1        0.0640
     11 C          -3.4117  -17.3222   22.5928 C.ar    1  UNL1        0.0176
     12 C          -2.0236  -17.3079   22.0244 C.ar    1  UNL1        0.0026
     13 C          -1.7339  -18.0172   20.7349 C.ar    1  UNL1        0.0141
     14 C          -2.8323  -18.7407   20.0137 C.ar    1  UNL1        0.0026
     15 C          -4.2203  -18.7549   20.5821 C.ar    1  UNL1        0.0176
     16 C          -0.3458  -18.0029   20.1665 C.2     1  UNL1        0.0729
     17 O           0.2688  -19.2725   19.6564 O.co2   1  UNL1       -0.5446
     18 O           0.4275  -16.7190   20.1082 O.co2   1  UNL1       -0.5446
     19 C          -9.4585  -19.4994   23.0033 C.2     1  UNL1        0.1976
     20 O          -9.4673  -20.9159   23.4963 O.2     1  UNL1       -0.2865
     21 C          -9.8916  -18.8965   20.0966 C.3     1  UNL1        0.0312
     22 C         -10.9522  -18.5524   21.1000 C.ar    1  UNL1       -0.0179
     23 C         -12.2293  -17.9070   20.6500 C.ar    1  UNL1       -0.0041
     24 C         -13.2898  -17.5631   21.6534 C.ar    1  UNL1        0.0005
     25 C         -13.0733  -17.8645   23.1068 C.ar    1  UNL1        0.0115
     26 C         -11.7963  -18.5099   23.5568 C.ar    1  UNL1        0.0604
     27 CL        -11.5797  -18.8114   25.0101 Cl      1  UNL1       -0.0822
     28 C         -10.7357  -18.8539   22.5533 C.ar    1  UNL1        0.0456
@<TRIPOS>UNITY_ATOM_ATTR
17 1
charge -1
@<TRIPOS>BOND
     1    21    22    1
     2    22    23   ar
     3    23    24   ar
     4    24    25   ar
     5    25    26   ar
     6    26    27    1
     7    26    28   ar
     8    28    19    1
     9    19    20    2
    10    19     1    1
    11     1     2   ar
    12     2     3   ar
    13     3    10    1
    14    10    11   ar
    15    11    12   ar
    16    12    13   ar
    17    13    16    1
    18    16    17   ar
    19    16    18   ar
    20    13    14   ar
    21    14    15   ar
    22     3     4   ar
    23     4     5   ar
    24     5     6   ar
    25     6     7   ar
    26     7     8   ar
    27     8     9   ar
    28    28    22   ar
    29     9     1   ar
    30    15    10   ar
    31     9     4   ar
@<TRIPOS>MOLECULE
*****
 28 31 0 0 0
SMALL
GASTEIGER

@<TRIPOS>ATOM
      1 C          -8.1785  -18.6957   22.9369 C.ar    1  UNL1        0.0579
      2 C          -6.9450  -19.0854   22.1776 C.ar    1  UNL1        0.0833
      3 N          -5.8980  -18.0404   22.4266 N.ar    1  UNL1       -0.3048
      4 C          -6.4845  -17.0050   23.3397 C.ar    1  UNL1        0.0641
      5 C          -5.9172  -15.7457   23.9248 C.ar    1  UNL1        0.0175
      6 C          -6.7594  -14.8914   24.8252 C.ar    1  UNL1        0.0015
      7 C          -8.1688  -15.2963   25.1406 C.ar    1  UNL1        0.0001
      8 C          -8.7361  -16.5556   24.5556 C.ar    1  UNL1        0.0016
      9 C          -7.8939  -17.4099   23.6551 C.ar    1  UNL1        0.0207
     10 C          -4.5085  -18.0324   21.8616 C.ar    1  UNL1        0.0640
     11 C          -4.2195  -18.7401   20.5709 C.ar    1  UNL1        0.0176
     12 C          -2.8300  -18.7321   20.0059 C.ar    1  UNL1        0.0026
     13 C          -1.7295  -18.0163   20.7315 C.ar    1  UNL1        0.0141
     14 C          -2.0185  -17.3086   22.0221 C.ar    1  UNL1        0.0026
     15 C          -3.4080  -17.3166   22.5871 C.ar    1  UNL1        0.0176
     16 C          -0.3400  -18.0082   20.1665 C.2     1  UNL1        0.0729
     17 O           0.4413  -16.7288   20.1151 O.co2   1  UNL1       -0.5446
     18 O           0.2681  -19.2796   19.6530 O.co2   1  UNL1       -0.5446
     19 C          -9.4699  -19.4579   22.9718 C.2     1  UNL1        0.1976
     20 O          -9.4906  -20.8767   23.4582 O.2     1  UNL1       -0.2865
     21 C         -11.6227  -18.8282   24.9640 C.3     1  UNL1        0.0312
     22 C         -11.8173  -18.4864   23.5164 C.ar    1  UNL1       -0.0179
     23 C         -13.0881  -17.8299   23.0651 C.ar    1  UNL1       -0.0041
     24 C         -13.2826  -17.4882   21.6175 C.ar    1  UNL1        0.0005
     25 C         -12.2062  -17.8031   20.6214 C.ar    1  UNL1        0.0115
     26 C         -10.9353  -18.4596   21.0728 C.ar    1  UNL1        0.0604
     27 CL         -9.8589  -18.7745   20.0767 Cl      1  UNL1       -0.0822
     28 C         -10.7409  -18.8013   22.5204 C.ar    1  UNL1        0.0456
@<TRIPOS>UNITY_ATOM_ATTR
17 1
charge -1
@<TRIPOS>BOND
     1    21    22    1
     2    22    23   ar
     3    23    24   ar
     4    24    25   ar
     5    25    26   ar
     6    26    27    1
     7    26    28   ar
     8    28    19    1
     9    19    20    2
    10    19     1    1
    11     1     2   ar
    12     2     3   ar
    13     3    10    1
    14    10    11   ar
    15    11    12   ar
    16    12    13   ar
    17    13    16    1
    18    16    17   ar
    19    16    18   ar
    20    13    14   ar
    21    14    15   ar
    22     3     4   ar
    23     4     5   ar
    24     5     6   ar
    25     6     7   ar
    26     7     8   ar
    27     8     9   ar
    28    28    22   ar
    29     9     1   ar
    30    15    10   ar
    31     9     4   ar
@<TRIPOS>MOLECULE
*****
 28 31 0 0 0
SMALL
GASTEIGER

@<TRIPOS>ATOM
      1 C          -8.0901  -17.7289   22.8646 C.ar    1  UNL1        0.0579
      2 C          -6.6079  -17.4984   22.8669 C.ar    1  UNL1        0.0833
      3 N          -6.0353  -18.1522   21.6443 N.ar    1  UNL1       -0.3048
      4 C          -7.1636  -18.7867   20.8864 C.ar    1  UNL1        0.0641
      5 C          -7.1987  -19.5689   19.6070 C.ar    1  UNL1        0.0175
      6 C          -8.5037  -20.0894   19.0818 C.ar    1  UNL1        0.0015
      7 C          -9.7736  -19.8278   19.8360 C.ar    1  UNL1        0.0001
      8 C          -9.7385  -19.0456   21.1154 C.ar    1  UNL1        0.0016
      9 C          -8.4335  -18.5250   21.6406 C.ar    1  UNL1        0.0207
     10 C          -4.5884  -18.1685   21.2489 C.ar    1  UNL1        0.0640
     11 C          -4.2004  -18.4928   19.8366 C.ar    1  UNL1        0.0176
     12 C          -2.7535  -18.5092   19.4413 C.ar    1  UNL1        0.0026
     13 C          -1.6947  -18.2014   20.4582 C.ar    1  UNL1        0.0141
     14 C          -2.0827  -17.8772   21.8704 C.ar    1  UNL1        0.0026
     15 C          -3.5295  -17.8608   22.2657 C.ar    1  UNL1        0.0176
     16 C          -0.2478  -18.2178   20.0628 C.2     1  UNL1        0.0729
     17 O           0.4135  -19.5118   19.6911 O.co2   1  UNL1       -0.5446
     18 O           0.5377  -16.9401   20.0392 O.co2   1  UNL1       -0.5446
     19 C          -9.0588  -17.2476   23.9038 C.2     1  UNL1        0.1976
     20 O          -8.5581  -16.5204   25.1163 O.2     1  UNL1       -0.2865
     21 C         -10.3862  -19.5003   25.3746 C.3     1  UNL1        0.0312
     22 C         -11.1920  -18.6200   24.4659 C.ar    1  UNL1       -0.0179
     23 C         -12.6615  -18.8661   24.2926 C.ar    1  UNL1       -0.0041
     24 C         -13.4673  -17.9859   23.3839 C.ar    1  UNL1        0.0005
     25 C         -12.8036  -16.8595   22.6485 C.ar    1  UNL1        0.0115
     26 C         -11.3341  -16.6134   22.8217 C.ar    1  UNL1        0.0604
     27 CL        -10.6704  -15.4871   22.0863 Cl      1  UNL1       -0.0822
     28 C         -10.5284  -17.4937   23.7305 C.ar    1  UNL1        0.0456
@<TRIPOS>UNITY_ATOM_ATTR
17 1
charge -1
@<TRIPOS>BOND
     1    21    22    1
     2    22    23   ar
     3    23    24   ar
     4    24    25   ar
     5    25    26   ar
     6    26    27    1
     7    26    28   ar
     8    28    19    1
     9    19    20    2
    10    19     1    1
    11     1     2   ar
    12     2     3   ar
    13     3    10    1
    14    10    11   ar
    15    11    12   ar
    16    12    13   ar
    17    13    16    1
    18    16    17   ar
    19    16    18   ar
    20    13    14   ar
    21    14    15   ar
    22     3     4   ar
    23     4     5   ar
    24     5     6   ar
    25     6     7   ar
    26     7     8   ar
    27     8     9   ar
    28    28    22   ar
    29     9     1   ar
    30    15    10   ar
    31     9     4   ar
@<TRIPOS>MOLECULE
*****
 28 31 0 0 0
SMALL
GASTEIGER

@<TRIPOS>ATOM
      1 C          -8.0841  -17.7601   22.8885 C.ar    1  UNL1        0.0579
      2 C          -6.6025  -17.5260   22.8875 C.ar    1  UNL1        0.0833
      3 N          -6.0332  -18.1651   21.6556 N.ar    1  UNL1       -0.3048
      4 C          -7.1630  -18.7942   20.8954 C.ar    1  UNL1        0.0641
      5 C          -7.2013  -19.5626   19.6077 C.ar    1  UNL1        0.0175
      6 C          -8.5071  -20.0806   19.0821 C.ar    1  UNL1        0.0015
      7 C          -9.7747  -19.8303   19.8441 C.ar    1  UNL1        0.0001
      8 C          -9.7364  -19.0619   21.1317 C.ar    1  UNL1        0.0016
      9 C          -8.4305  -18.5439   21.6574 C.ar    1  UNL1        0.0207
     10 C          -4.5879  -18.1737   21.2544 C.ar    1  UNL1        0.0640
     11 C          -4.1950  -18.6135   19.8752 C.ar    1  UNL1        0.0176
     12 C          -2.7496  -18.6221   19.4740 C.ar    1  UNL1        0.0026
     13 C          -1.6972  -18.1909   20.4519 C.ar    1  UNL1        0.0141
     14 C          -2.0902  -17.7511   21.8311 C.ar    1  UNL1        0.0026
     15 C          -3.5355  -17.7425   22.2323 C.ar    1  UNL1        0.0176
     16 C          -0.2519  -18.1995   20.0507 C.2     1  UNL1        0.0729
     17 O           0.5325  -16.9209   20.0451 O.co2   1  UNL1       -0.5446
     18 O           0.4090  -19.4866   19.6553 O.co2   1  UNL1       -0.5446
     19 C          -9.0499  -17.2925   23.9367 C.2     1  UNL1        0.1976
     20 O          -8.5452  -16.5865   25.1601 O.2     1  UNL1       -0.2865
     21 C         -10.6438  -15.5436   22.0927 C.3     1  UNL1        0.0312
     22 C         -11.3175  -16.6565   22.8395 C.ar    1  UNL1       -0.0179
     23 C         -12.7879  -16.8949   22.6642 C.ar    1  UNL1       -0.0041
     24 C         -13.4615  -18.0078   23.4111 C.ar    1  UNL1        0.0005
     25 C         -12.6645  -18.8823   24.3331 C.ar    1  UNL1        0.0115
     26 C         -11.1940  -18.6439   24.5084 C.ar    1  UNL1        0.0604
     27 CL        -10.3971  -19.5184   25.4304 Cl      1  UNL1       -0.0822
     28 C         -10.5205  -17.5310   23.7615 C.ar    1  UNL1        0.0456
@<TRIPOS>UNITY_ATOM_ATTR
17 1
charge -1
@<TRIPOS>BOND
     1    21    22    1
     2    22    23   ar
     3    23    24   ar
     4    24    25   ar
     5    25    26   ar
     6    26    27    1
     7    26    28   ar
     8    28    19    1
     9    19    20    2
    10    19     1    1
    11     1     2   ar
    12     2     3   ar
    13     3    10    1
    14    10    11   ar
    15    11    12   ar
    16    12    13   ar
    17    13    16    1
    18    16    17   ar
    19    16    18   ar
    20    13    14   ar
    21    14    15   ar
    22     3     4   ar
    23     4     5   ar
    24     5     6   ar
    25     6     7   ar
    26     7     8   ar
    27     8     9   ar
    28    28    22   ar
    29     9     1   ar
    30    15    10   ar
    31     9     4   ar
@<TRIPOS>MOLECULE
*****
 28 31 0 0 0
SMALL
GASTEIGER

@<TRIPOS>ATOM
      1 C          -8.4045  -17.6908   22.3569 C.ar    1  UNL1        0.0579
      2 C          -6.9259  -17.4509   22.4344 C.ar    1  UNL1        0.0833
      3 N          -6.2768  -18.1880   21.3006 N.ar    1  UNL1       -0.3048
      4 C          -7.3542  -18.8834   20.5225 C.ar    1  UNL1        0.0641
      5 C          -7.3078  -19.7567   19.3038 C.ar    1  UNL1        0.0175
      6 C          -8.5764  -20.3227   18.7380 C.ar    1  UNL1        0.0015
      7 C          -9.8914  -20.0154   19.3908 C.ar    1  UNL1        0.0001
      8 C          -9.9379  -19.1421   20.6095 C.ar    1  UNL1        0.0016
      9 C          -8.6693  -18.5761   21.1753 C.ar    1  UNL1        0.0207
     10 C          -4.8080  -18.2234   20.9981 C.ar    1  UNL1        0.0640
     11 C          -4.3304  -18.6817   19.6520 C.ar    1  UNL1        0.0176
     12 C          -2.8616  -18.7172   19.3494 C.ar    1  UNL1        0.0026
     13 C          -1.8705  -18.2944   20.3930 C.ar    1  UNL1        0.0141
     14 C          -2.3481  -17.8362   21.7390 C.ar    1  UNL1        0.0026
     15 C          -3.8169  -17.8007   22.0415 C.ar    1  UNL1        0.0176
     16 C          -0.4017  -18.3298   20.0904 C.2     1  UNL1        0.0729
     17 O           0.4147  -17.0753   20.1883 O.co2   1  UNL1       -0.5446
     18 O           0.2505  -19.6198   19.6900 O.co2   1  UNL1       -0.5446
     19 C          -9.4372  -17.1418   23.2961 C.2     1  UNL1        0.1976
     20 O         -10.8288  -16.8715   22.8060 O.2     1  UNL1       -0.2865
     21 C         -10.1112  -19.1409   25.4291 C.3     1  UNL1        0.0312
     22 C          -9.4152  -17.8627   25.7922 C.ar    1  UNL1       -0.0179
     23 C          -9.0563  -17.5840   27.2217 C.ar    1  UNL1       -0.0041
     24 C          -8.3604  -16.3058   27.5847 C.ar    1  UNL1        0.0005
     25 C          -8.0234  -15.3063   26.5183 C.ar    1  UNL1        0.0115
     26 C          -8.3823  -15.5849   25.0888 C.ar    1  UNL1        0.0604
     27 CL         -8.0454  -14.5853   24.0223 Cl      1  UNL1       -0.0822
     28 C          -9.0783  -16.8631   24.7257 C.ar    1  UNL1        0.0456
@<TRIPOS>UNITY_ATOM_ATTR
17 1
charge -1
@<TRIPOS>BOND
     1    21    22    1
     2    22    23   ar
     3    23    24   ar
     4    24    25   ar
     5    25    26   ar
     6    26    27    1
     7    26    28   ar
     8    28    19    1
     9    19    20    2
    10    19     1    1
    11     1     2   ar
    12     2     3   ar
    13     3    10    1
    14    10    11   ar
    15    11    12   ar
    16    12    13   ar
    17    13    16    1
    18    16    17   ar
    19    16    18   ar
    20    13    14   ar
    21    14    15   ar
    22     3     4   ar
    23     4     5   ar
    24     5     6   ar
    25     6     7   ar
    26     7     8   ar
    27     8     9   ar
    28    28    22   ar
    29     9     1   ar
    30    15    10   ar
    31     9     4   ar
@<TRIPOS>MOLECULE
*****
 28 31 0 0 0
SMALL
GASTEIGER

@<TRIPOS>ATOM
      1 C          -8.4366  -17.7913   22.3374 C.ar    1  UNL1        0.0579
      2 C          -6.9604  -17.5379   22.4188 C.ar    1  UNL1        0.0833
      3 N          -6.3027  -18.2605   21.2807 N.ar    1  UNL1       -0.3048
      4 C          -7.3723  -18.9606   20.4960 C.ar    1  UNL1        0.0641
      5 C          -7.3157  -19.8246   19.2712 C.ar    1  UNL1        0.0175
      6 C          -8.5780  -20.3987   18.6994 C.ar    1  UNL1        0.0015
      7 C          -9.8969  -20.1088   19.3525 C.ar    1  UNL1        0.0001
      8 C          -9.9535  -19.2447   20.5773 C.ar    1  UNL1        0.0016
      9 C          -8.6912  -18.6706   21.1490 C.ar    1  UNL1        0.0207
     10 C          -4.8332  -18.2797   20.9802 C.ar    1  UNL1        0.0640
     11 C          -3.8403  -18.0222   22.0748 C.ar    1  UNL1        0.0176
     12 C          -2.3709  -18.0414   21.7742 C.ar    1  UNL1        0.0026
     13 C          -1.8942  -18.3181   20.3791 C.ar    1  UNL1        0.0141
     14 C          -2.8871  -18.5755   19.2846 C.ar    1  UNL1        0.0026
     15 C          -4.3565  -18.5563   19.5852 C.ar    1  UNL1        0.0176
     16 C          -0.4248  -18.3373   20.0785 C.2     1  UNL1        0.0729
     17 O           0.2530  -19.6297   19.7319 O.co2   1  UNL1       -0.5446
     18 O           0.3668  -17.0640   20.1246 O.co2   1  UNL1       -0.5446
     19 C          -9.4758  -17.2590   23.2790 C.2     1  UNL1        0.1976
     20 O         -10.8824  -17.0486   22.8024 O.2     1  UNL1       -0.2865
     21 C          -8.0915  -14.6760   23.9205 C.3     1  UNL1        0.0312
     22 C          -8.4163  -15.6456   25.0181 C.ar    1  UNL1       -0.0179
     23 C          -8.0489  -15.3236   26.4362 C.ar    1  UNL1       -0.0041
     24 C          -8.3737  -16.2932   27.5337 C.ar    1  UNL1        0.0005
     25 C          -9.0658  -17.5847   27.2129 C.ar    1  UNL1        0.0115
     26 C          -9.4332  -17.9067   25.7947 C.ar    1  UNL1        0.0604
     27 CL        -10.1254  -19.1982   25.4739 Cl      1  UNL1       -0.0822
     28 C          -9.1084  -16.9371   24.6973 C.ar    1  UNL1        0.0456
@<TRIPOS>UNITY_ATOM_ATTR
17 1
charge -1
@<TRIPOS>BOND
     1    21    22    1
     2    22    23   ar
     3    23    24   ar
     4    24    25   ar
     5    25    26   ar
     6    26    27    1
     7    26    28   ar
     8    28    19    1
     9    19    20    2
    10    19     1    1
    11     1     2   ar
    12     2     3   ar
    13     3    10    1
    14    10    11   ar
    15    11    12   ar
    16    12    13   ar
    17    13    16    1
    18    16    17   ar
    19    16    18   ar
    20    13    14   ar
    21    14    15   ar
    22     3     4   ar
    23     4     5   ar
    24     5     6   ar
    25     6     7   ar
    26     7     8   ar
    27     8     9   ar
    28    28    22   ar
    29     9     1   ar
    30    15    10   ar
    31     9     4   ar
@<TRIPOS>MOLECULE
*****
 28 31 0 0 0
SMALL
GASTEIGER

@<TRIPOS>ATOM
      1 C          -0.9480    3.3114   20.9437 C.ar    1  UNL1        0.0579
      2 C          -0.1326    2.5512   19.9402 C.ar    1  UNL1        0.0833
      3 N           0.7282    1.5752   20.6861 N.ar    1  UNL1       -0.3048
      4 C           0.4448    1.7322   22.1507 C.ar    1  UNL1        0.0641
      5 C           0.9961    1.0367   23.3599 C.ar    1  UNL1        0.0175
      6 C           0.5115    1.4143   24.7283 C.ar    1  UNL1        0.0015
      7 C          -0.5245    2.4873   24.8875 C.ar    1  UNL1        0.0001
      8 C          -1.0758    3.1828   23.6783 C.ar    1  UNL1        0.0016
      9 C          -0.5912    2.8052   22.3099 C.ar    1  UNL1        0.0207
     10 C           1.7016    0.6115   20.0749 C.ar    1  UNL1        0.0640
     11 C           1.8915   -0.7479   20.6801 C.ar    1  UNL1        0.0176
     12 C           2.8649   -1.7117   20.0688 C.ar    1  UNL1        0.0026
     13 C           3.6484   -1.3162   18.8524 C.ar    1  UNL1        0.0141
     14 C           3.4585    0.0431   18.2473 C.ar    1  UNL1        0.0026
     15 C           2.4851    1.0069   18.8585 C.ar    1  UNL1        0.0176
     16 C           4.6218   -2.2800   18.2411 C.2     1  UNL1        0.0729
     17 O           4.5631   -3.7349   18.6013 O.co2   1  UNL1       -0.5446
     18 O           5.6538   -1.7888   17.2697 O.co2   1  UNL1       -0.5446
     19 C          -1.9452    4.3886   20.6353 C.2     1  UNL1        0.1976
     20 O          -1.6873    5.7985   21.0775 O.2     1  UNL1       -0.2865
     21 C          -4.4029    3.5321   22.1272 C.3     1  UNL1        0.0312
     22 C          -4.4294    3.6277   20.6305 C.ar    1  UNL1       -0.0179
     23 C          -5.6847    3.2950   19.8798 C.ar    1  UNL1       -0.0041
     24 C          -5.7111    3.3906   18.3831 C.ar    1  UNL1        0.0005
     25 C          -4.4823    3.8189   17.6371 C.ar    1  UNL1        0.0115
     26 C          -3.2270    4.1515   18.3878 C.ar    1  UNL1        0.0604
     27 CL         -1.9981    4.5798   17.6418 Cl      1  UNL1       -0.0822
     28 C          -3.2006    4.0559   19.8845 C.ar    1  UNL1        0.0456
@<TRIPOS>UNITY_ATOM_ATTR
17 1
charge -1
@<TRIPOS>BOND
     1    21    22    1
     2    22    23   ar
     3    23    24   ar
     4    24    25   ar
     5    25    26   ar
     6    26    27    1
     7    26    28   ar
     8    28    19    1
     9    19    20    2
    10    19     1    1
    11     1     2   ar
    12     2     3   ar
    13     3    10    1
    14    10    11   ar
    15    11    12   ar
    16    12    13   ar
    17    13    16    1
    18    16    17   ar
    19    16    18   ar
    20    13    14   ar
    21    14    15   ar
    22     3     4   ar
    23     4     5   ar
    24     5     6   ar
    25     6     7   ar
    26     7     8   ar
    27     8     9   ar
    28    28    22   ar
    29     9     1   ar
    30    15    10   ar
    31     9     4   ar
@<TRIPOS>MOLECULE
*****
 28 31 0 0 0
SMALL
GASTEIGER

@<TRIPOS>ATOM
      1 C           1.3732    1.7257   24.4245 C.ar    1  UNL1        0.0579
      2 C           2.3019    0.6429   23.9607 C.ar    1  UNL1        0.0833
      3 N           2.0180    0.3778   22.5119 N.ar    1  UNL1       -0.3048
      4 C           0.9138    1.2967   22.0802 C.ar    1  UNL1        0.0641
      5 C           0.2198    1.4826   20.7635 C.ar    1  UNL1        0.0175
      6 C          -0.8728    2.5015   20.6289 C.ar    1  UNL1        0.0015
      7 C          -1.2713    3.3345   21.8109 C.ar    1  UNL1        0.0001
      8 C          -0.5773    3.1487   23.1276 C.ar    1  UNL1        0.0016
      9 C           0.5153    2.1298   23.2623 C.ar    1  UNL1        0.0207
     10 C           2.7157   -0.6294   21.6466 C.ar    1  UNL1        0.0640
     11 C           2.5042   -0.6172   20.1616 C.ar    1  UNL1        0.0176
     12 C           3.2019   -1.6244   19.2963 C.ar    1  UNL1        0.0026
     13 C           4.1112   -2.6438   19.9160 C.ar    1  UNL1        0.0141
     14 C           4.3227   -2.6560   21.4009 C.ar    1  UNL1        0.0026
     15 C           3.6249   -1.6488   22.2662 C.ar    1  UNL1        0.0176
     16 C           4.8089   -3.6510   19.0507 C.2     1  UNL1        0.0729
     17 O           5.5501   -3.2025   17.8262 O.co2   1  UNL1       -0.5446
     18 O           4.7654   -5.1066   19.4100 O.co2   1  UNL1       -0.5446
     19 C           1.3129    2.3030   25.8076 C.2     1  UNL1        0.1976
     20 O           1.8238    3.6896   26.0645 O.2     1  UNL1       -0.2865
     21 C          -1.5911    2.5580   26.5157 C.3     1  UNL1        0.0312
     22 C          -0.7103    1.6211   27.2881 C.ar    1  UNL1       -0.0179
     23 C          -1.2816    0.8117   28.4143 C.ar    1  UNL1       -0.0041
     24 C          -0.4008   -0.1252   29.1866 C.ar    1  UNL1        0.0005
     25 C           1.0512   -0.2527   28.8325 C.ar    1  UNL1        0.0115
     26 C           1.6225    0.5567   27.7063 C.ar    1  UNL1        0.0604
     27 CL          3.0745    0.4291   27.3522 Cl      1  UNL1       -0.0822
     28 C           0.7417    1.4936   26.9340 C.ar    1  UNL1        0.0456
@<TRIPOS>UNITY_ATOM_ATTR
17 1
charge -1
@<TRIPOS>BOND
     1    21    22    1
     2    22    23   ar
     3    23    24   ar
     4    24    25   ar
     5    25    26   ar
     6    26    27    1
     7    26    28   ar
     8    28    19    1
     9    19    20    2
    10    19     1    1
    11     1     2   ar
    12     2     3   ar
    13     3    10    1
    14    10    11   ar
    15    11    12   ar
    16    12    13   ar
    17    13    16    1
    18    16    17   ar
    19    16    18   ar
    20    13    14   ar
    21    14    15   ar
    22     3     4   ar
    23     4     5   ar
    24     5     6   ar
    25     6     7   ar
    26     7     8   ar
    27     8     9   ar
    28    28    22   ar
    29     9     1   ar
    30    15    10   ar
    31     9     4   ar
@<TRIPOS>MOLECULE
*****
 28 31 0 0 0
SMALL
GASTEIGER

@<TRIPOS>ATOM
      1 C           3.3143   -1.3543   22.2689 C.ar    1  UNL1        0.0579
      2 C           3.1569   -0.7972   23.6526 C.ar    1  UNL1        0.0833
      3 N           2.1289    0.2937   23.5989 N.ar    1  UNL1       -0.3048
      4 C           1.6509    0.4109   22.1819 C.ar    1  UNL1        0.0641
      5 C           0.6432    1.3135   21.5340 C.ar    1  UNL1        0.0175
      6 C           0.3682    1.1974   20.0640 C.ar    1  UNL1        0.0015
      7 C           1.1009    0.1789   19.2420 C.ar    1  UNL1        0.0001
      8 C           2.1085   -0.7237   19.8899 C.ar    1  UNL1        0.0016
      9 C           2.3836   -0.6077   21.3599 C.ar    1  UNL1        0.0207
     10 C           1.6610    1.1221   24.7585 C.ar    1  UNL1        0.0640
     11 C           2.6516    1.9022   25.5712 C.ar    1  UNL1        0.0176
     12 C           2.1836    2.7306   26.7308 C.ar    1  UNL1        0.0026
     13 C           0.7251    2.7790   27.0778 C.ar    1  UNL1        0.0141
     14 C          -0.2654    1.9990   26.2652 C.ar    1  UNL1        0.0026
     15 C           0.2025    1.1706   25.1056 C.ar    1  UNL1        0.0176
     16 C           0.2572    3.6074   28.2375 C.2     1  UNL1        0.0729
     17 O          -0.5812    4.8279   27.9975 O.co2   1  UNL1       -0.5446
     18 O           0.6276    3.2153   29.6371 O.co2   1  UNL1       -0.5446
     19 C           4.2400   -2.4634   21.8649 C.2     1  UNL1        0.1976
     20 O           4.3453   -3.6978   22.7104 O.2     1  UNL1       -0.2865
     21 C           3.5222   -4.0655   19.4322 C.3     1  UNL1        0.0312
     22 C           4.7015   -3.1390   19.3990 C.ar    1  UNL1       -0.0179
     23 C           5.5218   -3.0136   18.1494 C.ar    1  UNL1       -0.0041
     24 C           6.7010   -2.0872   18.1163 C.ar    1  UNL1        0.0005
     25 C           7.0599   -1.2862   19.3327 C.ar    1  UNL1        0.0115
     26 C           6.2396   -1.4115   20.5822 C.ar    1  UNL1        0.0604
     27 CL          6.5985   -0.6105   21.7985 Cl      1  UNL1       -0.0822
     28 C           5.0604   -2.3380   20.6153 C.ar    1  UNL1        0.0456
@<TRIPOS>UNITY_ATOM_ATTR
17 1
charge -1
@<TRIPOS>BOND
     1    21    22    1
     2    22    23   ar
     3    23    24   ar
     4    24    25   ar
     5    25    26   ar
     6    26    27    1
     7    26    28   ar
     8    28    19    1
     9    19    20    2
    10    19     1    1
    11     1     2   ar
    12     2     3   ar
    13     3    10    1
    14    10    11   ar
    15    11    12   ar
    16    12    13   ar
    17    13    16    1
    18    16    17   ar
    19    16    18   ar
    20    13    14   ar
    21    14    15   ar
    22     3     4   ar
    23     4     5   ar
    24     5     6   ar
    25     6     7   ar
    26     7     8   ar
    27     8     9   ar
    28    28    22   ar
    29     9     1   ar
    30    15    10   ar
    31     9     4   ar
