@<TRIPOS>MOLECULE
*****
 17 18 0 0 0
SMALL
GASTEIGER

@<TRIPOS>ATOM
      1 C          -9.6963  -18.2721   23.2155 C.ar    1  UNL1        0.1386
      2 C          -9.3172  -19.7231   23.1870 C.ar    1  UNL1        0.0369
      3 C          -7.9922  -20.1412   22.6218 C.ar    1  UNL1        0.0046
      4 C          -7.0462  -19.1082   22.0851 C.ar    1  UNL1        0.0175
      5 C          -7.4253  -17.6572   22.1135 C.ar    1  UNL1        0.0046
      6 C          -8.7504  -17.2392   22.6787 C.ar    1  UNL1        0.0369
      7 C          -5.7211  -19.5263   21.5199 C.ar    1  UNL1        0.0795
      8 C          -5.5109  -20.4297   20.3411 C.ar    1  UNL1        0.0412
      9 C          -4.0335  -20.5761   20.1269 C.ar    1  UNL1        0.1217
     10 N          -3.3306  -19.7631   21.1733 N.ar    1  UNL1       -0.1676
     11 N          -4.3737  -19.1143   22.0342 N.ar    1  UNL1       -0.2488
     12 C          -4.1147  -18.2120   23.2041 C.3     1  UNL1        0.1537
     13 O         -11.0214  -17.8541   23.7807 O.3     1  UNL1       -0.4755
     14 C         -12.0637  -17.2545   22.8840 C.3     1  UNL1        0.2054
     15 C         -12.4074  -17.9194   21.5842 C.3     1  UNL1        0.0473
     16 C         -10.6903  -18.5265   19.7312 C.3     1  UNL1        0.0001
     17 C         -11.6610  -17.5552   20.3350 C.3     1  UNL1        0.0038
@<TRIPOS>BOND
     1    16    17    1
     2    17    15    1
     3    15    14    1
     4    14    13    1
     5    13     1    1
     6     1     2   ar
     7     2     3   ar
     8     3     4   ar
     9     4     7    1
    10     7     8   ar
    11     8     9   ar
    12     9    10   ar
    13    10    11   ar
    14    11    12    1
    15     4     5   ar
    16     5     6   ar
    17     6     1   ar
    18    11     7   ar
@<TRIPOS>MOLECULE
*****
 17 18 0 0 0
SMALL
GASTEIGER

@<TRIPOS>ATOM
      1 C          -4.0988  -19.6821   21.3936 C.ar    1  UNL1        0.1386
      2 C          -4.8703  -18.7507   22.2808 C.ar    1  UNL1        0.0369
      3 C          -6.3639  -18.6721   22.1674 C.ar    1  UNL1        0.0046
      4 C          -7.0861  -19.5249   21.1668 C.ar    1  UNL1        0.0175
      5 C          -6.3146  -20.4563   20.2796 C.ar    1  UNL1        0.0046
      6 C          -4.8209  -20.5349   20.3930 C.ar    1  UNL1        0.0369
      7 C          -8.5797  -19.4463   21.0535 C.ar    1  UNL1        0.0795
      8 C          -9.3527  -19.0918   19.8179 C.ar    1  UNL1        0.0412
      9 C         -10.8134  -19.1348   20.1565 C.ar    1  UNL1        0.1217
     10 N         -10.9431  -19.5159   21.6015 N.ar    1  UNL1       -0.1676
     11 N          -9.5626  -19.7084   22.1558 N.ar    1  UNL1       -0.2488
     12 C          -9.2245  -20.0952   23.5651 C.3     1  UNL1        0.1537
     13 O          -2.6051  -19.7607   21.5069 O.3     1  UNL1       -0.4755
     14 C          -1.7961  -18.5048   21.6416 C.3     1  UNL1        0.2054
     15 C          -0.9968  -17.9991   20.4774 C.3     1  UNL1        0.0473
     16 C          -2.8467  -17.3787   18.7618 C.3     1  UNL1        0.0001
     17 C          -1.5608  -18.0779   19.0896 C.3     1  UNL1        0.0038
@<TRIPOS>BOND
     1    16    17    1
     2    17    15    1
     3    15    14    1
     4    14    13    1
     5    13     1    1
     6     1     2   ar
     7     2     3   ar
     8     3     4   ar
     9     4     7    1
    10     7     8   ar
    11     8     9   ar
    12     9    10   ar
    13    10    11   ar
    14    11    12    1
    15     4     5   ar
    16     5     6   ar
    17     6     1   ar
    18    11     7   ar
@<TRIPOS>MOLECULE
*****
 17 18 0 0 0
SMALL
GASTEIGER

@<TRIPOS>ATOM
      1 C          -9.9416  -18.3100   23.1673 C.ar    1  UNL1        0.1386
      2 C          -9.4616  -19.7259   23.0461 C.ar    1  UNL1        0.0369
      3 C          -8.0393  -20.0052   22.6600 C.ar    1  UNL1        0.0046
      4 C          -7.0970  -18.8686   22.3952 C.ar    1  UNL1        0.0175
      5 C          -7.5770  -17.4527   22.5165 C.ar    1  UNL1        0.0046
      6 C          -8.9993  -17.1734   22.9025 C.ar    1  UNL1        0.0369
      7 C          -5.6747  -19.1480   22.0091 C.ar    1  UNL1        0.0795
      8 C          -4.4563  -18.5186   22.6169 C.ar    1  UNL1        0.0412
      9 C          -3.2496  -19.0874   21.9309 C.ar    1  UNL1        0.1217
     10 N          -3.7223  -20.0682   20.8992 N.ar    1  UNL1       -0.1676
     11 N          -5.2211  -20.1056   20.9475 N.ar    1  UNL1       -0.2488
     12 C          -6.1101  -20.9522   20.0855 C.3     1  UNL1        0.1537
     13 O         -11.3639  -18.0307   23.5534 O.3     1  UNL1       -0.4755
     14 C         -12.2512  -17.2474   22.6319 C.3     1  UNL1        0.2054
     15 C         -12.4446  -17.6980   21.2143 C.3     1  UNL1        0.0473
     16 C         -11.6229  -15.8668   19.5645 C.3     1  UNL1        0.0001
     17 C         -11.4941  -17.2433   20.1465 C.3     1  UNL1        0.0038
@<TRIPOS>BOND
     1    16    17    1
     2    17    15    1
     3    15    14    1
     4    14    13    1
     5    13     1    1
     6     1     2   ar
     7     2     3   ar
     8     3     4   ar
     9     4     7    1
    10     7     8   ar
    11     8     9   ar
    12     9    10   ar
    13    10    11   ar
    14    11    12    1
    15     4     5   ar
    16     5     6   ar
    17     6     1   ar
    18    11     7   ar
@<TRIPOS>MOLECULE
*****
 17 18 0 0 0
SMALL
GASTEIGER

@<TRIPOS>ATOM
      1 C         -11.1690  -17.9131   23.2925 C.ar    1  UNL1        0.1386
      2 C         -10.6057  -16.5799   22.8987 C.ar    1  UNL1        0.0369
      3 C          -9.5261  -15.9478   23.7263 C.ar    1  UNL1        0.0046
      4 C          -9.0099  -16.6489   24.9478 C.ar    1  UNL1        0.0175
      5 C          -9.5733  -17.9821   25.3416 C.ar    1  UNL1        0.0046
      6 C         -10.6529  -18.6142   24.5139 C.ar    1  UNL1        0.0369
      7 C          -7.9304  -16.0167   25.7754 C.ar    1  UNL1        0.0795
      8 C          -8.0456  -15.6136   27.2156 C.ar    1  UNL1        0.0412
      9 C          -6.7325  -15.0245   27.6385 C.ar    1  UNL1        0.1217
     10 N          -5.8058  -15.0635   26.4597 N.ar    1  UNL1       -0.1676
     11 N          -6.5462  -15.6768   25.3082 N.ar    1  UNL1       -0.2488
     12 C          -5.9984  -15.9093   23.9313 C.3     1  UNL1        0.1537
     13 O         -12.2486  -18.5452   22.4648 O.3     1  UNL1       -0.4755
     14 C         -12.0028  -18.8483   21.0165 C.3     1  UNL1        0.2054
     15 C         -10.7965  -19.6419   20.6105 C.3     1  UNL1        0.0473
     16 C          -8.5564  -19.7148   19.2962 C.3     1  UNL1        0.0001
     17 C          -9.9497  -19.1839   19.4601 C.3     1  UNL1        0.0038
@<TRIPOS>BOND
     1    16    17    1
     2    17    15    1
     3    15    14    1
     4    14    13    1
     5    13     1    1
     6     1     2   ar
     7     2     3   ar
     8     3     4   ar
     9     4     7    1
    10     7     8   ar
    11     8     9   ar
    12     9    10   ar
    13    10    11   ar
    14    11    12    1
    15     4     5   ar
    16     5     6   ar
    17     6     1   ar
    18    11     7   ar
@<TRIPOS>MOLECULE
*****
 17 18 0 0 0
SMALL
GASTEIGER

@<TRIPOS>ATOM
      1 C          -9.9082  -17.0514   21.5171 C.ar    1  UNL1        0.1386
      2 C          -8.4346  -17.3206   21.5942 C.ar    1  UNL1        0.0369
      3 C          -7.6668  -16.9439   22.8265 C.ar    1  UNL1        0.0046
      4 C          -8.3726  -16.2980   23.9817 C.ar    1  UNL1        0.0175
      5 C          -9.8462  -16.0287   23.9046 C.ar    1  UNL1        0.0046
      6 C         -10.6140  -16.4054   22.6723 C.ar    1  UNL1        0.0369
      7 C          -7.6049  -15.9213   25.2140 C.ar    1  UNL1        0.0795
      8 C          -8.1351  -15.9200   26.6172 C.ar    1  UNL1        0.0412
      9 C          -7.0300  -15.4777   27.5299 C.ar    1  UNL1        0.1217
     10 N          -5.8167  -15.2056   26.6909 N.ar    1  UNL1       -0.1676
     11 N          -6.1721  -15.4797   25.2596 N.ar    1  UNL1       -0.2488
     12 C          -5.2554  -15.3373   24.0808 C.3     1  UNL1        0.1537
     13 O         -10.6760  -17.4281   20.2847 O.3     1  UNL1       -0.4755
     14 C         -10.4612  -18.7691   19.6479 C.3     1  UNL1        0.2054
     15 C         -10.4656  -20.0093   20.4916 C.3     1  UNL1        0.0473
     16 C         -10.4881  -20.1586   23.0853 C.3     1  UNL1        0.0001
     17 C         -11.2252  -20.0340   21.7849 C.3     1  UNL1        0.0038
@<TRIPOS>BOND
     1    16    17    1
     2    17    15    1
     3    15    14    1
     4    14    13    1
     5    13     1    1
     6     1     2   ar
     7     2     3   ar
     8     3     4   ar
     9     4     7    1
    10     7     8   ar
    11     8     9   ar
    12     9    10   ar
    13    10    11   ar
    14    11    12    1
    15     4     5   ar
    16     5     6   ar
    17     6     1   ar
    18    11     7   ar
@<TRIPOS>MOLECULE
*****
 17 18 0 0 0
SMALL
GASTEIGER

@<TRIPOS>ATOM
      1 C          -9.2374  -19.4579   20.7644 C.ar    1  UNL1        0.1386
      2 C          -8.6510  -19.5111   22.1440 C.ar    1  UNL1        0.0369
      3 C          -7.1627  -19.4807   22.3280 C.ar    1  UNL1        0.0046
      4 C          -6.2607  -19.3973   21.1325 C.ar    1  UNL1        0.0175
      5 C          -6.8470  -19.3441   19.7529 C.ar    1  UNL1        0.0046
      6 C          -8.3354  -19.3744   19.5688 C.ar    1  UNL1        0.0369
      7 C          -4.7723  -19.3669   21.3165 C.ar    1  UNL1        0.0795
      8 C          -3.7742  -20.1995   20.5678 C.ar    1  UNL1        0.0412
      9 C          -2.4057  -19.8458   21.0701 C.ar    1  UNL1        0.1217
     10 N          -2.5581  -18.7948   22.1294 N.ar    1  UNL1       -0.1676
     11 N          -4.0207  -18.4988   22.2816 N.ar    1  UNL1       -0.2488
     12 C          -4.6256  -17.5085   23.2322 C.3     1  UNL1        0.1537
     13 O         -10.7257  -19.4882   20.5803 O.3     1  UNL1       -0.4755
     14 C         -11.6239  -18.9160   21.6366 C.3     1  UNL1        0.2054
     15 C         -12.4366  -17.6892   21.3461 C.3     1  UNL1        0.0473
     16 C         -10.6430  -15.8516   20.9506 C.3     1  UNL1        0.0001
     17 C         -11.8641  -16.5944   20.4954 C.3     1  UNL1        0.0038
@<TRIPOS>BOND
     1    16    17    1
     2    17    15    1
     3    15    14    1
     4    14    13    1
     5    13     1    1
     6     1     2   ar
     7     2     3   ar
     8     3     4   ar
     9     4     7    1
    10     7     8   ar
    11     8     9   ar
    12     9    10   ar
    13    10    11   ar
    14    11    12    1
    15     4     5   ar
    16     5     6   ar
    17     6     1   ar
    18    11     7   ar
@<TRIPOS>MOLECULE
*****
 17 18 0 0 0
SMALL
GASTEIGER

@<TRIPOS>ATOM
      1 C         -12.4371   -5.5683   19.2128 C.ar    1  UNL1        0.1386
      2 C         -13.7322   -5.0427   19.7570 C.ar    1  UNL1        0.0369
      3 C         -14.9760   -5.8767   19.6696 C.ar    1  UNL1        0.0046
      4 C         -14.9246   -7.2362   19.0380 C.ar    1  UNL1        0.0175
      5 C         -13.6294   -7.7618   18.4938 C.ar    1  UNL1        0.0046
      6 C         -12.3856   -6.9279   18.5812 C.ar    1  UNL1        0.0369
      7 C         -16.1683   -8.0701   18.9506 C.ar    1  UNL1        0.0795
      8 C         -16.7935   -8.8415   20.0749 C.ar    1  UNL1        0.0412
      9 C         -18.0168   -9.5272   19.5428 C.ar    1  UNL1        0.1217
     10 N         -18.1478   -9.1796   18.0895 N.ar    1  UNL1       -0.1676
     11 N         -17.0054   -8.2790   17.7236 N.ar    1  UNL1       -0.2488
     12 C         -16.7456   -7.6907   16.3684 C.3     1  UNL1        0.1537
     13 O         -11.1933   -4.7344   19.3002 O.3     1  UNL1       -0.4755
     14 C          -9.8461   -5.3812   19.1714 C.3     1  UNL1        0.2054
     15 C          -9.2081   -5.5229   17.8213 C.3     1  UNL1        0.0473
     16 C          -8.9271   -3.6134   16.0821 C.3     1  UNL1        0.0001
     17 C          -9.7357   -4.7386   16.6565 C.3     1  UNL1        0.0038
@<TRIPOS>BOND
     1    16    17    1
     2    17    15    1
     3    15    14    1
     4    14    13    1
     5    13     1    1
     6     1     2   ar
     7     2     3   ar
     8     3     4   ar
     9     4     7    1
    10     7     8   ar
    11     8     9   ar
    12     9    10   ar
    13    10    11   ar
    14    11    12    1
    15     4     5   ar
    16     5     6   ar
    17     6     1   ar
    18    11     7   ar
@<TRIPOS>MOLECULE
*****
 17 18 0 0 0
SMALL
GASTEIGER

@<TRIPOS>ATOM
      1 C         -10.3852  -17.7853   22.3203 C.ar    1  UNL1        0.1386
      2 C          -9.6178  -16.6041   21.8046 C.ar    1  UNL1        0.0369
      3 C          -8.5250  -15.9990   22.6350 C.ar    1  UNL1        0.0046
      4 C          -8.1996  -16.5750   23.9812 C.ar    1  UNL1        0.0175
      5 C          -8.9669  -17.7562   24.4969 C.ar    1  UNL1        0.0046
      6 C         -10.0597  -18.3613   23.6665 C.ar    1  UNL1        0.0369
      7 C          -7.1068  -15.9699   24.8117 C.ar    1  UNL1        0.0795
      8 C          -5.6961  -15.7210   24.3666 C.ar    1  UNL1        0.0412
      9 C          -4.9503  -15.1047   25.5128 C.ar    1  UNL1        0.1217
     10 N          -5.9000  -14.9727   26.6664 N.ar    1  UNL1       -0.1676
     11 N          -7.2327  -15.5075   26.2330 N.ar    1  UNL1       -0.2488
     12 C          -8.4736  -15.5689   27.0735 C.3     1  UNL1        0.1537
     13 O         -11.4780  -18.3904   21.4899 O.3     1  UNL1       -0.4755
     14 C         -12.8760  -17.8553   21.5851 C.3     1  UNL1        0.2054
     15 C         -13.3598  -17.2447   22.8669 C.3     1  UNL1        0.0473
     16 C         -14.9955  -18.4185   24.5091 C.3     1  UNL1        0.0001
     17 C         -13.5950  -18.1112   24.0686 C.3     1  UNL1        0.0038
@<TRIPOS>BOND
     1    16    17    1
     2    17    15    1
     3    15    14    1
     4    14    13    1
     5    13     1    1
     6     1     2   ar
     7     2     3   ar
     8     3     4   ar
     9     4     7    1
    10     7     8   ar
    11     8     9   ar
    12     9    10   ar
    13    10    11   ar
    14    11    12    1
    15     4     5   ar
    16     5     6   ar
    17     6     1   ar
    18    11     7   ar
@<TRIPOS>MOLECULE
*****
 17 18 0 0 0
SMALL
GASTEIGER

@<TRIPOS>ATOM
      1 C          -7.6923  -16.7171   23.5086 C.ar    1  UNL1        0.1386
      2 C          -7.6713  -17.8792   22.5604 C.ar    1  UNL1        0.0369
      3 C          -6.3619  -18.4465   22.0982 C.ar    1  UNL1        0.0046
      4 C          -5.0735  -17.8518   22.5842 C.ar    1  UNL1        0.0175
      5 C          -5.0945  -16.6897   23.5324 C.ar    1  UNL1        0.0046
      6 C          -6.4038  -16.1224   23.9945 C.ar    1  UNL1        0.0369
      7 C          -3.7641  -18.4191   22.1220 C.ar    1  UNL1        0.0795
      8 C          -3.4751  -19.8668   21.8562 C.ar    1  UNL1        0.0412
      9 C          -2.0462  -19.9808   21.4144 C.ar    1  UNL1        0.1217
     10 N          -1.4520  -18.6035   21.4071 N.ar    1  UNL1       -0.1676
     11 N          -2.5137  -17.6384   21.8444 N.ar    1  UNL1       -0.2488
     12 C          -2.3532  -16.1532   21.9802 C.3     1  UNL1        0.1537
     13 O          -9.0016  -16.1498   23.9708 O.3     1  UNL1       -0.4755
     14 C         -10.2842  -16.8484   23.6289 C.3     1  UNL1        0.2054
     15 C         -11.2104  -16.2583   22.6071 C.3     1  UNL1        0.0473
     16 C         -11.0285  -17.8652   20.5737 C.3     1  UNL1        0.0001
     17 C         -10.9546  -16.4806   21.1458 C.3     1  UNL1        0.0038
@<TRIPOS>BOND
     1    16    17    1
     2    17    15    1
     3    15    14    1
     4    14    13    1
     5    13     1    1
     6     1     2   ar
     7     2     3   ar
     8     3     4   ar
     9     4     7    1
    10     7     8   ar
    11     8     9   ar
    12     9    10   ar
    13    10    11   ar
    14    11    12    1
    15     4     5   ar
    16     5     6   ar
    17     6     1   ar
    18    11     7   ar
