@<TRIPOS>MOLECULE
*****
 38 41 0 0 0
SMALL
GASTEIGER

@<TRIPOS>ATOM
      1 N           7.7156   -4.7428   28.0614 N.am    1  UNL1       -0.2733
      2 C           7.4643   -4.9003   29.5319 C.2     1  UNL1        0.2462
      3 O           7.9578   -6.1209   30.2506 O.2     1  UNL1       -0.2730
      4 C           6.7197   -3.8371   30.2836 C.3     1  UNL1        0.1759
      5 N           6.2262   -2.6165   29.5649 N.am    1  UNL1       -0.2951
      6 C           6.4774   -2.4590   28.0945 C.2     1  UNL1        0.2390
      7 O           5.9839   -1.2384   27.3758 O.2     1  UNL1       -0.2734
      8 C           7.2221   -3.5222   27.3427 C.3     1  UNL1        0.1314
      9 C           7.9668   -4.5854   26.5911 C.3     1  UNL1        0.0445
     10 C           8.2180   -4.4279   25.1207 C.3     1  UNL1        0.0745
     11 N           7.7245   -3.2073   24.4020 N.3     1  UNL1       -0.2688
     12 C           6.9798   -2.1441   25.1536 C.3     1  UNL1        0.0745
     13 C           6.7286   -2.3016   26.6240 C.3     1  UNL1        0.0445
     14 H           5.7374   -1.9187   30.0582 H       1  UNL1        0.1499
     15 C           6.4684   -3.9945   31.7540 C.3     1  UNL1        0.1372
     16 O           6.5022   -5.3577   32.3789 O.3     1  UNL1       -0.3823
     17 H           6.6983   -6.0206   31.6984 H       1  UNL1        0.2104
     18 C           6.1834   -2.7888   32.5995 C.3     1  UNL1        0.0291
     19 C           7.2728   -1.7976   32.8837 C.3     1  UNL1        0.0026
     20 C           4.8090   -2.5742   33.1607 C.3     1  UNL1        0.0026
     21 C           8.4603   -5.8060   27.3098 C.3     1  UNL1        0.0938
     22 C           7.8480   -7.1629   27.1257 C.3     1  UNL1        0.0215
     23 C           9.5250   -7.8986   25.2828 C.3     1  UNL1        0.0001
     24 C           8.6168   -8.2440   26.4256 C.3     1  UNL1        0.0018
     25 C           7.9758   -3.0499   22.9315 C.3     1  UNL1        0.0992
     26 C           6.8256   -2.8349   21.9929 C.ar    1  UNL1       -0.0059
     27 C           6.8542   -1.6928   21.0209 C.ar    1  UNL1        0.0002
     28 C           5.7040   -1.4779   20.0823 C.ar    1  UNL1        0.0372
     29 C           4.5253   -2.4051   20.1157 C.ar    1  UNL1        0.1453
     30 C           4.4968   -3.5471   21.0878 C.ar    1  UNL1        0.0372
     31 C           5.6469   -3.7621   22.0264 C.ar    1  UNL1        0.0002
     32 O           3.3752   -2.1901   19.1771 O.3     1  UNL1       -0.4535
     33 C           2.5512   -0.9405   19.2744 C.ar    1  UNL1        0.1453
     34 C           2.8692    0.2374   18.4019 C.ar    1  UNL1        0.0375
     35 C           2.0452    1.4870   18.4991 C.ar    1  UNL1        0.0031
     36 C           0.9032    1.5587   19.4690 C.ar    1  UNL1        0.0002
     37 C           0.5851    0.3808   20.3416 C.ar    1  UNL1        0.0031
     38 C           1.4091   -0.8688   20.2443 C.ar    1  UNL1        0.0375
@<TRIPOS>BOND
     1    23    24    1
     2    24    22    1
     3    22    21    1
     4    21     1    1
     5     1     2   am
     6     2     3    2
     7     2     4    1
     8     4    15    1
     9    15    16    1
    10    15    18    1
    11    18    19    1
    12    18    20    1
    13     4     5    1
    14     5     6   am
    15     6     7    2
    16     6     8    1
    17     8     9    1
    18     9    10    1
    19    10    11    1
    20    11    25    1
    21    25    26    1
    22    26    27   ar
    23    27    28   ar
    24    28    29   ar
    25    29    32    1
    26    32    33    1
    27    33    34   ar
    28    34    35   ar
    29    35    36   ar
    30    36    37   ar
    31    37    38   ar
    32    29    30   ar
    33    30    31   ar
    34    11    12    1
    35    12    13    1
    36     8     1    1
    37    31    26   ar
    38    13     8    1
    39    38    33   ar
    40    16    17    1
    41     5    14    1
@<TRIPOS>MOLECULE
*****
 38 41 0 0 0
SMALL
GASTEIGER

@<TRIPOS>ATOM
      1 N           6.7824   -3.3488   29.8208 N.am    1  UNL1       -0.2733
      2 C           6.3061   -3.3104   31.2427 C.2     1  UNL1        0.2462
      3 O           6.7713   -4.3509   32.2178 O.2     1  UNL1       -0.2730
      4 C           5.3646   -2.2316   31.6893 C.3     1  UNL1        0.1759
      5 N           4.8993   -1.1911   30.7142 N.am    1  UNL1       -0.2951
      6 C           5.3756   -1.2294   29.2924 C.2     1  UNL1        0.2390
      7 O           4.9104   -0.1889   28.3172 O.2     1  UNL1       -0.2734
      8 C           6.3172   -2.3083   28.8456 C.3     1  UNL1        0.1314
      9 C           7.2587   -3.3872   28.3989 C.3     1  UNL1        0.0445
     10 C           7.7349   -3.4256   26.9771 C.3     1  UNL1        0.0745
     11 N           7.2697   -2.3851   26.0020 N.3     1  UNL1       -0.2688
     12 C           6.3282   -1.3062   26.4486 C.3     1  UNL1        0.0745
     13 C           5.8519   -1.2679   27.8705 C.3     1  UNL1        0.0445
     14 H           4.2814   -0.4830   31.0074 H       1  UNL1        0.1499
     15 C           4.8882   -2.1931   33.1112 C.3     1  UNL1        0.1372
     16 O           3.8992   -3.2101   33.5986 O.3     1  UNL1       -0.3823
     17 H           3.6732   -3.8144   32.8742 H       1  UNL1        0.2104
     18 C           5.4010   -1.1378   34.0457 C.3     1  UNL1        0.0291
     19 C           4.5589   -0.6867   35.2022 C.3     1  UNL1        0.0026
     20 C           6.7558   -0.5334   33.8237 C.3     1  UNL1        0.0026
     21 C           7.7239   -4.4277   29.3741 C.3     1  UNL1        0.0938
     22 C           7.2668   -5.8560   29.3418 C.3     1  UNL1        0.0215
     23 C           9.4004   -7.3383   29.3247 C.3     1  UNL1        0.0001
     24 C           8.1173   -6.9010   28.6826 C.3     1  UNL1        0.0018
     25 C           7.7460   -2.4235   24.5801 C.3     1  UNL1        0.0992
     26 C           6.7556   -2.5479   23.4604 C.ar    1  UNL1       -0.0059
     27 C           6.9796   -1.8075   22.1753 C.ar    1  UNL1        0.0002
     28 C           5.9891   -1.9319   21.0556 C.ar    1  UNL1        0.0372
     29 C           4.7747   -2.7966   21.2211 C.ar    1  UNL1        0.1453
     30 C           4.5507   -3.5370   22.5063 C.ar    1  UNL1        0.0372
     31 C           5.5411   -3.4126   23.6259 C.ar    1  UNL1        0.0002
     32 O           3.7844   -2.9209   20.1015 O.3     1  UNL1       -0.4535
     33 C           3.1049   -1.6974   19.5618 C.ar    1  UNL1        0.1453
     34 C           1.8781   -1.1609   20.2379 C.ar    1  UNL1        0.0375
     35 C           1.1987    0.0626   19.6982 C.ar    1  UNL1        0.0031
     36 C           1.7461    0.7498   18.4824 C.ar    1  UNL1        0.0002
     37 C           2.9730    0.2134   17.8063 C.ar    1  UNL1        0.0031
     38 C           3.6524   -1.0102   18.3460 C.ar    1  UNL1        0.0375
@<TRIPOS>BOND
     1    23    24    1
     2    24    22    1
     3    22    21    1
     4    21     1    1
     5     1     2   am
     6     2     3    2
     7     2     4    1
     8     4    15    1
     9    15    16    1
    10    15    18    1
    11    18    19    1
    12    18    20    1
    13     4     5    1
    14     5     6   am
    15     6     7    2
    16     6     8    1
    17     8     9    1
    18     9    10    1
    19    10    11    1
    20    11    25    1
    21    25    26    1
    22    26    27   ar
    23    27    28   ar
    24    28    29   ar
    25    29    32    1
    26    32    33    1
    27    33    34   ar
    28    34    35   ar
    29    35    36   ar
    30    36    37   ar
    31    37    38   ar
    32    29    30   ar
    33    30    31   ar
    34    11    12    1
    35    12    13    1
    36     8     1    1
    37    31    26   ar
    38    13     8    1
    39    38    33   ar
    40    16    17    1
    41     5    14    1
@<TRIPOS>MOLECULE
*****
 38 41 0 0 0
SMALL
GASTEIGER

@<TRIPOS>ATOM
      1 N          -4.0286    3.8418   22.8417 N.am    1  UNL1       -0.2733
      2 C          -5.3306    4.0403   23.5597 C.2     1  UNL1        0.2462
      3 O          -5.3874    3.9283   25.0544 O.2     1  UNL1       -0.2730
      4 C          -6.5757    4.3507   22.7829 C.3     1  UNL1        0.1759
      5 N          -6.5188    4.4627   21.2882 N.am    1  UNL1       -0.2951
      6 C          -5.2169    4.2642   20.5702 C.2     1  UNL1        0.2390
      7 O          -5.1601    4.3762   19.0755 O.2     1  UNL1       -0.2734
      8 C          -3.9717    3.9538   21.3469 C.3     1  UNL1        0.1314
      9 C          -2.7267    3.6434   22.1237 C.3     1  UNL1        0.0445
     10 C          -1.4248    3.4449   21.4057 C.3     1  UNL1        0.0745
     11 N          -1.3679    3.5569   19.9109 N.3     1  UNL1       -0.2688
     12 C          -2.6130    3.8673   19.1342 C.3     1  UNL1        0.0745
     13 C          -3.9149    4.0658   19.8522 C.3     1  UNL1        0.0445
     14 H          -7.3361    4.6665   20.7784 H       1  UNL1        0.1499
     15 C          -7.8777    4.5492   23.5009 C.3     1  UNL1        0.1372
     16 O          -8.8612    3.4206   23.5964 O.3     1  UNL1       -0.3823
     17 H          -8.5027    2.6404   23.1451 H       1  UNL1        0.2104
     18 C          -8.1962    5.8762   24.1234 C.3     1  UNL1        0.0291
     19 C          -7.1988    6.9946   24.0568 C.3     1  UNL1        0.0026
     20 C          -9.5121    6.0849   24.8125 C.3     1  UNL1        0.0026
     21 C          -2.7835    3.5314   23.6184 C.3     1  UNL1        0.0938
     22 C          -2.2663    4.5114   24.6294 C.3     1  UNL1        0.0215
     23 C          -1.3813    2.7536   26.3255 C.3     1  UNL1        0.0001
     24 C          -2.0330    4.0753   26.0455 C.3     1  UNL1        0.0018
     25 C          -0.0659    3.3584   19.1929 C.3     1  UNL1        0.0992
     26 C           0.6747    2.0609   19.3276 C.ar    1  UNL1       -0.0059
     27 C           0.0619    0.9232   20.0892 C.ar    1  UNL1        0.0002
     28 C           0.8026   -0.3743   20.2239 C.ar    1  UNL1        0.0372
     29 C           2.1559   -0.5340   19.5970 C.ar    1  UNL1        0.1453
     30 C           2.7686    0.6038   18.8354 C.ar    1  UNL1        0.0372
     31 C           2.0280    1.9012   18.7007 C.ar    1  UNL1        0.0002
     32 O           2.8964   -1.8314   19.7317 O.3     1  UNL1       -0.4535
     33 C           3.5770   -2.1760   21.0232 C.ar    1  UNL1        0.1453
     34 C           3.4471   -1.2630   22.2063 C.ar    1  UNL1        0.0375
     35 C           4.1276   -1.6076   23.4978 C.ar    1  UNL1        0.0031
     36 C           4.9381   -2.8651   23.6064 C.ar    1  UNL1        0.0002
     37 C           5.0680   -3.7781   22.4233 C.ar    1  UNL1        0.0031
     38 C           4.3875   -3.4335   21.1317 C.ar    1  UNL1        0.0375
@<TRIPOS>BOND
     1    23    24    1
     2    24    22    1
     3    22    21    1
     4    21     1    1
     5     1     2   am
     6     2     3    2
     7     2     4    1
     8     4    15    1
     9    15    16    1
    10    15    18    1
    11    18    19    1
    12    18    20    1
    13     4     5    1
    14     5     6   am
    15     6     7    2
    16     6     8    1
    17     8     9    1
    18     9    10    1
    19    10    11    1
    20    11    25    1
    21    25    26    1
    22    26    27   ar
    23    27    28   ar
    24    28    29   ar
    25    29    32    1
    26    32    33    1
    27    33    34   ar
    28    34    35   ar
    29    35    36   ar
    30    36    37   ar
    31    37    38   ar
    32    29    30   ar
    33    30    31   ar
    34    11    12    1
    35    12    13    1
    36     8     1    1
    37    31    26   ar
    38    13     8    1
    39    38    33   ar
    40    16    17    1
    41     5    14    1
@<TRIPOS>MOLECULE
*****
 38 41 0 0 0
SMALL
GASTEIGER

@<TRIPOS>ATOM
      1 N           4.6901   -2.1393   20.6446 N.am    1  UNL1       -0.2733
      2 C           3.5703   -1.2921   20.1168 C.2     1  UNL1        0.2462
      3 O           3.4177   -1.0868   18.6388 O.2     1  UNL1       -0.2730
      4 C           2.6032   -0.6504   21.0670 C.3     1  UNL1        0.1759
      5 N           2.7558   -0.8557   22.5450 N.am    1  UNL1       -0.2951
      6 C           3.8755   -1.7028   23.0728 C.2     1  UNL1        0.2390
      7 O           4.0281   -1.9081   24.5509 O.2     1  UNL1       -0.2734
      8 C           4.8427   -2.3446   22.1227 C.3     1  UNL1        0.1314
      9 C           5.8098   -2.9864   21.1725 C.3     1  UNL1        0.0445
     10 C           6.9295   -3.8334   21.7004 C.3     1  UNL1        0.0745
     11 N           7.0821   -4.0388   23.1784 N.3     1  UNL1       -0.2688
     12 C           6.1150   -3.3970   24.1285 C.3     1  UNL1        0.0745
     13 C           4.9953   -2.5500   23.6007 C.3     1  UNL1        0.0445
     14 H           2.1211   -0.4345   23.1686 H       1  UNL1        0.1499
     15 C           1.4834    0.1968   20.5391 C.3     1  UNL1        0.1372
     16 O           0.0882   -0.3516   20.4876 O.3     1  UNL1       -0.3823
     17 H           0.0847   -1.2592   20.8299 H       1  UNL1        0.2104
     18 C           1.7589    1.5922   20.0629 C.3     1  UNL1        0.0291
     19 C           1.5698    1.9421   18.6166 C.3     1  UNL1        0.0026
     20 C           2.2235    2.6377   21.0329 C.3     1  UNL1        0.0026
     21 C           5.6572   -2.7810   19.6945 C.3     1  UNL1        0.0938
     22 C           5.1480   -3.5936   18.5411 C.3     1  UNL1        0.0215
     23 C           3.3067   -5.1305   19.5400 C.3     1  UNL1        0.0001
     24 C           4.5886   -4.9649   18.7788 C.3     1  UNL1        0.0018
     25 C           8.2018   -4.8859   23.7062 C.3     1  UNL1        0.0992
     26 C           8.3095   -5.1546   25.1780 C.ar    1  UNL1       -0.0059
     27 C           7.5930   -6.3264   25.7809 C.ar    1  UNL1        0.0002
     28 C           7.7007   -6.5950   27.2528 C.ar    1  UNL1        0.0372
     29 C           8.5249   -5.6919   28.1216 C.ar    1  UNL1        0.1453
     30 C           9.2414   -4.5201   27.5187 C.ar    1  UNL1        0.0372
     31 C           9.1337   -4.2515   26.0470 C.ar    1  UNL1        0.0002
     32 O           8.6325   -5.9606   29.5934 O.3     1  UNL1       -0.4535
     33 C           8.2836   -4.8855   30.5796 C.ar    1  UNL1        0.1453
     34 C           6.8477   -4.6186   30.9213 C.ar    1  UNL1        0.0375
     35 C           6.4988   -3.5435   31.9075 C.ar    1  UNL1        0.0031
     36 C           7.5859   -2.7354   32.5519 C.ar    1  UNL1        0.0002
     37 C           9.0219   -3.0023   32.2101 C.ar    1  UNL1        0.0031
     38 C           9.3708   -4.0774   31.2240 C.ar    1  UNL1        0.0375
@<TRIPOS>BOND
     1    23    24    1
     2    24    22    1
     3    22    21    1
     4    21     1    1
     5     1     2   am
     6     2     3    2
     7     2     4    1
     8     4    15    1
     9    15    16    1
    10    15    18    1
    11    18    19    1
    12    18    20    1
    13     4     5    1
    14     5     6   am
    15     6     7    2
    16     6     8    1
    17     8     9    1
    18     9    10    1
    19    10    11    1
    20    11    25    1
    21    25    26    1
    22    26    27   ar
    23    27    28   ar
    24    28    29   ar
    25    29    32    1
    26    32    33    1
    27    33    34   ar
    28    34    35   ar
    29    35    36   ar
    30    36    37   ar
    31    37    38   ar
    32    29    30   ar
    33    30    31   ar
    34    11    12    1
    35    12    13    1
    36     8     1    1
    37    31    26   ar
    38    13     8    1
    39    38    33   ar
    40    16    17    1
    41     5    14    1
@<TRIPOS>MOLECULE
*****
 38 41 0 0 0
SMALL
GASTEIGER

@<TRIPOS>ATOM
      1 N          -4.6841    4.1787   22.1934 N.am    1  UNL1       -0.2733
      2 C          -6.1458    4.4529   22.3894 C.2     1  UNL1        0.2462
      3 O          -7.0105    4.7892   21.2108 O.2     1  UNL1       -0.2730
      4 C          -6.7428    4.3907   23.7641 C.3     1  UNL1        0.1759
      5 N          -5.8781    4.0544   24.9428 N.am    1  UNL1       -0.2951
      6 C          -4.4165    3.7803   24.7467 C.2     1  UNL1        0.2390
      7 O          -3.5518    3.4440   25.9254 O.2     1  UNL1       -0.2734
      8 C          -3.8195    3.8425   23.3720 C.3     1  UNL1        0.1314
      9 C          -3.2225    3.9046   21.9974 C.3     1  UNL1        0.0445
     10 C          -1.7609    3.6305   21.8014 C.3     1  UNL1        0.0745
     11 N          -0.8962    3.2942   22.9800 N.3     1  UNL1       -0.2688
     12 C          -1.4932    3.2320   24.3547 C.3     1  UNL1        0.0745
     13 C          -2.9548    3.5062   24.5507 C.3     1  UNL1        0.0445
     14 H          -6.2699    4.0136   25.8450 H       1  UNL1        0.1499
     15 C          -8.2045    4.6649   23.9602 C.3     1  UNL1        0.1372
     16 O          -9.2074    3.5687   23.7538 O.3     1  UNL1       -0.3823
     17 H          -8.7476    2.7536   23.4987 H       1  UNL1        0.2104
     18 C          -8.6632    6.0351   24.3626 C.3     1  UNL1        0.0291
     19 C          -7.6688    7.1504   24.4938 C.3     1  UNL1        0.0026
     20 C         -10.1163    6.2900   24.6337 C.3     1  UNL1        0.0026
     21 C          -4.0872    4.2409   20.8187 C.3     1  UNL1        0.0938
     22 C          -4.6693    3.4148   19.7102 C.3     1  UNL1        0.0215
     23 C          -3.9858    5.2097   17.9606 C.3     1  UNL1        0.0001
     24 C          -4.4642    3.8248   18.2820 C.3     1  UNL1        0.0018
     25 C           0.5655    3.0201   22.7839 C.3     1  UNL1        0.0992
     26 C           1.0305    2.2574   21.5789 C.ar    1  UNL1       -0.0059
     27 C           1.9168    2.9213   20.5672 C.ar    1  UNL1        0.0002
     28 C           2.3818    2.1586   19.3621 C.ar    1  UNL1        0.0372
     29 C           1.9605    0.7320   19.1689 C.ar    1  UNL1        0.1453
     30 C           1.0741    0.0681   20.1806 C.ar    1  UNL1        0.0372
     31 C           0.6091    0.8308   21.3856 C.ar    1  UNL1        0.0002
     32 O           2.4255   -0.0306   17.9639 O.3     1  UNL1       -0.4535
     33 C           3.7896   -0.6545   17.9515 C.ar    1  UNL1        0.1453
     34 C           4.9708    0.1347   17.4702 C.ar    1  UNL1        0.0375
     35 C           6.3349   -0.4891   17.4578 C.ar    1  UNL1        0.0031
     36 C           6.5177   -1.9022   17.9267 C.ar    1  UNL1        0.0002
     37 C           5.3363   -2.6914   18.4080 C.ar    1  UNL1        0.0031
     38 C           3.9723   -2.0676   18.4204 C.ar    1  UNL1        0.0375
@<TRIPOS>BOND
     1    23    24    1
     2    24    22    1
     3    22    21    1
     4    21     1    1
     5     1     2   am
     6     2     3    2
     7     2     4    1
     8     4    15    1
     9    15    16    1
    10    15    18    1
    11    18    19    1
    12    18    20    1
    13     4     5    1
    14     5     6   am
    15     6     7    2
    16     6     8    1
    17     8     9    1
    18     9    10    1
    19    10    11    1
    20    11    25    1
    21    25    26    1
    22    26    27   ar
    23    27    28   ar
    24    28    29   ar
    25    29    32    1
    26    32    33    1
    27    33    34   ar
    28    34    35   ar
    29    35    36   ar
    30    36    37   ar
    31    37    38   ar
    32    29    30   ar
    33    30    31   ar
    34    11    12    1
    35    12    13    1
    36     8     1    1
    37    31    26   ar
    38    13     8    1
    39    38    33   ar
    40    16    17    1
    41     5    14    1
@<TRIPOS>MOLECULE
*****
 38 41 0 0 0
SMALL
GASTEIGER

@<TRIPOS>ATOM
      1 N           3.8182   -2.0603   21.8975 N.am    1  UNL1       -0.2733
      2 C           2.7618   -1.2457   21.2115 C.2     1  UNL1        0.2462
      3 O           2.4364   -1.5008   19.7696 O.2     1  UNL1       -0.2730
      4 C           2.0308   -0.1760   21.9673 C.3     1  UNL1        0.1759
      5 N           2.3562    0.0792   23.4092 N.am    1  UNL1       -0.2951
      6 C           3.4125   -0.7353   24.0952 C.2     1  UNL1        0.2390
      7 O           3.7379   -0.4802   25.5371 O.2     1  UNL1       -0.2734
      8 C           4.1435   -1.8051   23.3394 C.3     1  UNL1        0.1314
      9 C           4.8745   -2.8748   22.5835 C.3     1  UNL1        0.0445
     10 C           5.9308   -3.6894   23.2695 C.3     1  UNL1        0.0745
     11 N           6.2561   -3.4342   24.7114 N.3     1  UNL1       -0.2688
     12 C           5.5252   -2.3645   25.4673 C.3     1  UNL1        0.0745
     13 C           4.4689   -1.5499   24.7813 C.3     1  UNL1        0.0445
     14 H           1.8764    0.7813   23.9053 H       1  UNL1        0.1499
     15 C           0.9745    0.6387   21.2813 C.3     1  UNL1        0.1372
     16 O          -0.1289   -0.0446   20.5292 O.3     1  UNL1       -0.3823
     17 H          -0.0115   -1.0058   20.5853 H       1  UNL1        0.2104
     18 C           1.0215    2.1364   21.3474 C.3     1  UNL1        0.0291
     19 C           2.3061    2.8594   21.0696 C.3     1  UNL1        0.0026
     20 C          -0.2160    2.9112   21.6913 C.3     1  UNL1        0.0026
     21 C           4.5491   -3.1300   21.1416 C.3     1  UNL1        0.0938
     22 C           5.3196   -2.7801   19.9031 C.3     1  UNL1        0.0215
     23 C           4.4921   -4.9454   18.7300 C.3     1  UNL1        0.0001
     24 C           5.1512   -3.5999   18.6584 C.3     1  UNL1        0.0018
     25 C           7.3125   -4.2488   25.3975 C.3     1  UNL1        0.0992
     26 C           7.3733   -4.2893   26.8956 C.ar    1  UNL1       -0.0059
     27 C           6.5262   -5.2674   27.6545 C.ar    1  UNL1        0.0002
     28 C           6.5870   -5.3078   29.1527 C.ar    1  UNL1        0.0372
     29 C           7.4950   -4.3703   29.8921 C.ar    1  UNL1        0.1453
     30 C           8.3421   -3.3923   29.1333 C.ar    1  UNL1        0.0372
     31 C           8.2813   -3.3518   27.6351 C.ar    1  UNL1        0.0002
     32 O           7.5558   -4.4108   31.3903 O.3     1  UNL1       -0.4535
     33 C           7.1383   -3.2128   32.1905 C.ar    1  UNL1        0.1453
     34 C           8.1653   -2.2164   32.6404 C.ar    1  UNL1        0.0375
     35 C           7.7479   -1.0184   33.4407 C.ar    1  UNL1        0.0031
     36 C           6.3034   -0.8167   33.7910 C.ar    1  UNL1        0.0002
     37 C           5.2763   -1.8131   33.3411 C.ar    1  UNL1        0.0031
     38 C           5.6938   -3.0111   32.5409 C.ar    1  UNL1        0.0375
@<TRIPOS>BOND
     1    23    24    1
     2    24    22    1
     3    22    21    1
     4    21     1    1
     5     1     2   am
     6     2     3    2
     7     2     4    1
     8     4    15    1
     9    15    16    1
    10    15    18    1
    11    18    19    1
    12    18    20    1
    13     4     5    1
    14     5     6   am
    15     6     7    2
    16     6     8    1
    17     8     9    1
    18     9    10    1
    19    10    11    1
    20    11    25    1
    21    25    26    1
    22    26    27   ar
    23    27    28   ar
    24    28    29   ar
    25    29    32    1
    26    32    33    1
    27    33    34   ar
    28    34    35   ar
    29    35    36   ar
    30    36    37   ar
    31    37    38   ar
    32    29    30   ar
    33    30    31   ar
    34    11    12    1
    35    12    13    1
    36     8     1    1
    37    31    26   ar
    38    13     8    1
    39    38    33   ar
    40    16    17    1
    41     5    14    1
@<TRIPOS>MOLECULE
*****
 38 41 0 0 0
SMALL
GASTEIGER

@<TRIPOS>ATOM
      1 N           3.8274    1.1526   18.5253 N.am    1  UNL1       -0.2733
      2 C           4.8203    0.0564   18.2748 C.2     1  UNL1        0.2462
      3 O           6.1378    0.3707   17.6305 O.2     1  UNL1       -0.2730
      4 C           4.4955   -1.3541   18.6687 C.3     1  UNL1        0.1759
      5 N           3.1779   -1.6684   19.3130 N.am    1  UNL1       -0.2951
      6 C           2.1851   -0.5723   19.5635 C.2     1  UNL1        0.2390
      7 O           0.8675   -0.8867   20.2078 O.2     1  UNL1       -0.2734
      8 C           2.5098    0.8382   19.1696 C.3     1  UNL1        0.1314
      9 C           2.8345    2.2486   18.7758 C.3     1  UNL1        0.0445
     10 C           1.8417    3.3447   19.0263 C.3     1  UNL1        0.0745
     11 N           0.5241    3.0304   19.6706 N.3     1  UNL1       -0.2688
     12 C           0.1994    1.6200   20.0645 C.3     1  UNL1        0.0745
     13 C           1.1922    0.5239   19.8140 C.3     1  UNL1        0.0445
     14 H           2.9648   -2.5942   19.5715 H       1  UNL1        0.1499
     15 C           5.4884   -2.4503   18.4182 C.3     1  UNL1        0.1372
     16 O           6.5280   -2.2906   17.3488 O.3     1  UNL1       -0.3823
     17 H           6.4191   -1.4282   16.9182 H       1  UNL1        0.2104
     18 C           5.4416   -3.7061   19.2371 C.3     1  UNL1        0.0291
     19 C           6.2088   -3.7918   20.5232 C.3     1  UNL1        0.0026
     20 C           4.6276   -4.8762   18.7700 C.3     1  UNL1        0.0026
     21 C           4.1521    2.5630   18.1314 C.3     1  UNL1        0.0938
     22 C           5.3448    3.2519   18.7256 C.3     1  UNL1        0.0215
     23 C           6.3254    3.7106   16.3638 C.3     1  UNL1        0.0001
     24 C           6.3064    3.9854   17.8383 C.3     1  UNL1        0.0018
     25 C          -0.4687    4.1266   19.9211 C.3     1  UNL1        0.0992
     26 C          -1.6914    3.8568   20.7471 C.ar    1  UNL1       -0.0059
     27 C          -2.9800    3.4796   20.0784 C.ar    1  UNL1        0.0002
     28 C          -4.2027    3.2098   20.9045 C.ar    1  UNL1        0.0372
     29 C          -4.1367    3.3172   22.3992 C.ar    1  UNL1        0.1453
     30 C          -2.8480    3.6943   23.0679 C.ar    1  UNL1        0.0372
     31 C          -1.6254    3.9641   22.2418 C.ar    1  UNL1        0.0002
     32 O          -5.3593    3.0473   23.2252 O.3     1  UNL1       -0.4535
     33 C          -6.1275    4.1887   23.8229 C.ar    1  UNL1        0.1453
     34 C          -5.7348    4.7371   25.1626 C.ar    1  UNL1        0.0375
     35 C          -6.5030    5.8784   25.7603 C.ar    1  UNL1        0.0031
     36 C          -7.6640    6.4713   25.0182 C.ar    1  UNL1        0.0002
     37 C          -8.0567    5.9228   23.6784 C.ar    1  UNL1        0.0031
     38 C          -7.2885    4.7815   23.0808 C.ar    1  UNL1        0.0375
@<TRIPOS>BOND
     1    23    24    1
     2    24    22    1
     3    22    21    1
     4    21     1    1
     5     1     2   am
     6     2     3    2
     7     2     4    1
     8     4    15    1
     9    15    16    1
    10    15    18    1
    11    18    19    1
    12    18    20    1
    13     4     5    1
    14     5     6   am
    15     6     7    2
    16     6     8    1
    17     8     9    1
    18     9    10    1
    19    10    11    1
    20    11    25    1
    21    25    26    1
    22    26    27   ar
    23    27    28   ar
    24    28    29   ar
    25    29    32    1
    26    32    33    1
    27    33    34   ar
    28    34    35   ar
    29    35    36   ar
    30    36    37   ar
    31    37    38   ar
    32    29    30   ar
    33    30    31   ar
    34    11    12    1
    35    12    13    1
    36     8     1    1
    37    31    26   ar
    38    13     8    1
    39    38    33   ar
    40    16    17    1
    41     5    14    1
@<TRIPOS>MOLECULE
*****
 38 41 0 0 0
SMALL
GASTEIGER

@<TRIPOS>ATOM
      1 N           1.8208    0.4141   20.3873 N.am    1  UNL1       -0.2733
      2 C           2.5147   -0.3526   19.3006 C.2     1  UNL1        0.2462
      3 O           2.1906   -0.0749   17.8626 O.2     1  UNL1       -0.2730
      4 C           3.5326   -1.3967   19.6519 C.3     1  UNL1        0.1759
      5 N           3.8567   -1.6744   21.0900 N.am    1  UNL1       -0.2951
      6 C           3.1628   -0.9078   22.1766 C.2     1  UNL1        0.2390
      7 O           3.4869   -1.1854   23.6147 O.2     1  UNL1       -0.2734
      8 C           2.1449    0.1365   21.8253 C.3     1  UNL1        0.1314
      9 C           1.1269    1.1806   21.4740 C.3     1  UNL1        0.0445
     10 C           0.4331    1.9472   22.5607 C.3     1  UNL1        0.0745
     11 N           0.7572    1.6696   23.9987 N.3     1  UNL1       -0.2688
     12 C           1.7751    0.6254   24.3500 C.3     1  UNL1        0.0745
     13 C           2.4690   -0.1412   23.2634 C.3     1  UNL1        0.0445
     14 H           4.5248   -2.3597   21.3205 H       1  UNL1        0.1499
     15 C           4.2265   -2.1634   18.5652 C.3     1  UNL1        0.1372
     16 O           4.0950   -1.7249   17.1368 O.3     1  UNL1       -0.3823
     17 H           3.5319   -0.9364   17.0911 H       1  UNL1        0.2104
     18 C           5.0517   -3.3684   18.9070 C.3     1  UNL1        0.0291
     19 C           6.4947   -3.2069   19.2832 C.3     1  UNL1        0.0026
     20 C           4.4340   -4.7348   18.8725 C.3     1  UNL1        0.0026
     21 C           0.8029    1.4583   20.0360 C.3     1  UNL1        0.0938
     22 C           1.1738    2.5908   19.1251 C.3     1  UNL1        0.0215
     23 C           0.1500    4.5225   17.7215 C.3     1  UNL1        0.0001
     24 C           0.2010    3.0690   18.0884 C.3     1  UNL1        0.0018
     25 C           0.0633    2.4362   25.0854 C.3     1  UNL1        0.0992
     26 C           0.2967    2.0772   26.5230 C.ar    1  UNL1       -0.0059
     27 C           1.4466    2.6846   27.2706 C.ar    1  UNL1        0.0002
     28 C           1.6800    2.3256   28.7082 C.ar    1  UNL1        0.0372
     29 C           0.7635    1.3592   29.3982 C.ar    1  UNL1        0.1453
     30 C          -0.3863    0.7518   28.6506 C.ar    1  UNL1        0.0372
     31 C          -0.6197    1.1108   27.2130 C.ar    1  UNL1        0.0002
     32 O           0.9969    1.0002   30.8357 O.3     1  UNL1       -0.4535
     33 C           1.1024    2.0805   31.8710 C.ar    1  UNL1        0.1453
     34 C           2.0639    1.9338   33.0128 C.ar    1  UNL1        0.0375
     35 C           2.1694    3.0141   34.0480 C.ar    1  UNL1        0.0031
     36 C           1.3133    4.2412   33.9415 C.ar    1  UNL1        0.0002
     37 C           0.3517    4.3880   32.7996 C.ar    1  UNL1        0.0031
     38 C           0.2463    3.3076   31.7643 C.ar    1  UNL1        0.0375
@<TRIPOS>BOND
     1    23    24    1
     2    24    22    1
     3    22    21    1
     4    21     1    1
     5     1     2   am
     6     2     3    2
     7     2     4    1
     8     4    15    1
     9    15    16    1
    10    15    18    1
    11    18    19    1
    12    18    20    1
    13     4     5    1
    14     5     6   am
    15     6     7    2
    16     6     8    1
    17     8     9    1
    18     9    10    1
    19    10    11    1
    20    11    25    1
    21    25    26    1
    22    26    27   ar
    23    27    28   ar
    24    28    29   ar
    25    29    32    1
    26    32    33    1
    27    33    34   ar
    28    34    35   ar
    29    35    36   ar
    30    36    37   ar
    31    37    38   ar
    32    29    30   ar
    33    30    31   ar
    34    11    12    1
    35    12    13    1
    36     8     1    1
    37    31    26   ar
    38    13     8    1
    39    38    33   ar
    40    16    17    1
    41     5    14    1
@<TRIPOS>MOLECULE
*****
 38 41 0 0 0
SMALL
GASTEIGER

@<TRIPOS>ATOM
      1 N           6.6740   -3.5318   26.2851 N.am    1  UNL1       -0.2733
      2 C           6.6171   -3.6280   27.7810 C.2     1  UNL1        0.2462
      3 O           5.9989   -2.5199   28.5808 O.2     1  UNL1       -0.2730
      4 C           7.1785   -4.8324   28.4769 C.3     1  UNL1        0.1759
      5 N           7.7968   -5.9405   27.6771 N.am    1  UNL1       -0.2951
      6 C           7.8537   -5.8443   26.1813 C.2     1  UNL1        0.2390
      7 O           8.4720   -6.9525   25.3815 O.2     1  UNL1       -0.2734
      8 C           7.2923   -4.6400   25.4853 C.3     1  UNL1        0.1314
      9 C           6.7309   -3.4356   24.7893 C.3     1  UNL1        0.0445
     10 C           6.7878   -3.3395   23.2935 C.3     1  UNL1        0.0745
     11 N           7.4061   -4.4476   22.4937 N.3     1  UNL1       -0.2688
     12 C           7.9675   -5.6519   23.1896 C.3     1  UNL1        0.0745
     13 C           7.9106   -5.7481   24.6854 C.3     1  UNL1        0.0445
     14 H           8.1652   -6.7310   28.1339 H       1  UNL1        0.1499
     15 C           7.1216   -4.9286   29.9728 C.3     1  UNL1        0.1372
     16 O           6.3420   -6.0321   30.6243 O.3     1  UNL1       -0.3823
     17 H           5.9396   -6.5907   29.9409 H       1  UNL1        0.2104
     18 C           7.8444   -3.9213   30.8172 C.3     1  UNL1        0.0291
     19 C           7.1655   -3.3182   32.0110 C.3     1  UNL1        0.0026
     20 C           9.2460   -3.5171   30.4677 C.3     1  UNL1        0.0026
     21 C           6.1126   -2.3275   25.5891 C.3     1  UNL1        0.0938
     22 C           4.6395   -2.0496   25.6418 C.3     1  UNL1        0.0215
     23 C           3.5868   -1.1572   23.4406 C.3     1  UNL1        0.0001
     24 C           4.0606   -0.9192   24.8437 C.3     1  UNL1        0.0018
     25 C           7.4630   -4.3514   20.9978 C.3     1  UNL1        0.0992
     26 C           6.4629   -3.5099   20.2618 C.ar    1  UNL1       -0.0059
     27 C           5.1499   -4.1009   19.8415 C.ar    1  UNL1        0.0002
     28 C           4.1499   -3.2593   19.1055 C.ar    1  UNL1        0.0372
     29 C           4.4628   -1.8267   18.7898 C.ar    1  UNL1        0.1453
     30 C           5.7759   -1.2357   19.2101 C.ar    1  UNL1        0.0372
     31 C           6.7759   -2.0772   19.9461 C.ar    1  UNL1        0.0002
     32 O           3.4628   -0.9852   18.0538 O.3     1  UNL1       -0.4535
     33 C           2.3727   -0.2836   18.8086 C.ar    1  UNL1        0.1453
     34 C           1.7922    0.9922   18.2747 C.ar    1  UNL1        0.0375
     35 C           0.7021    1.6938   19.0294 C.ar    1  UNL1        0.0031
     36 C           0.1926    1.1194   20.3180 C.ar    1  UNL1        0.0002
     37 C           0.7732   -0.1565   20.8519 C.ar    1  UNL1        0.0031
     38 C           1.8632   -0.8580   20.0972 C.ar    1  UNL1        0.0375
@<TRIPOS>BOND
     1    23    24    1
     2    24    22    1
     3    22    21    1
     4    21     1    1
     5     1     2   am
     6     2     3    2
     7     2     4    1
     8     4    15    1
     9    15    16    1
    10    15    18    1
    11    18    19    1
    12    18    20    1
    13     4     5    1
    14     5     6   am
    15     6     7    2
    16     6     8    1
    17     8     9    1
    18     9    10    1
    19    10    11    1
    20    11    25    1
    21    25    26    1
    22    26    27   ar
    23    27    28   ar
    24    28    29   ar
    25    29    32    1
    26    32    33    1
    27    33    34   ar
    28    34    35   ar
    29    35    36   ar
    30    36    37   ar
    31    37    38   ar
    32    29    30   ar
    33    30    31   ar
    34    11    12    1
    35    12    13    1
    36     8     1    1
    37    31    26   ar
    38    13     8    1
    39    38    33   ar
    40    16    17    1
    41     5    14    1
