@<TRIPOS>MOLECULE
*****
 54 59 0 0 0
SMALL
GASTEIGER

@<TRIPOS>ATOM
      1 C           4.8782   -1.8927   27.5760 C.3     1  UNL1        0.1269
      2 O           3.4863   -2.0508   27.0398 O.3     1  UNL1       -0.3830
      3 H           2.9340   -1.3172   27.3525 H       1  UNL1        0.2104
      4 C           5.9324   -2.9040   27.2358 C.3     1  UNL1        0.0401
      5 C           6.5752   -2.8905   25.8806 C.3     1  UNL1        0.0833
      6 O           6.4540   -0.8778   24.2422 O.2     1  UNL1       -0.2751
      7 C           5.9060   -2.1823   24.7401 C.2     1  UNL1        0.2226
      8 N           4.6887   -2.7785   24.0976 N.am    1  UNL1       -0.2999
      9 H           4.3290   -3.6347   24.4244 H       1  UNL1        0.1498
     10 C           4.0195   -2.0703   22.9572 C.3     1  UNL1        0.1278
     11 C           4.2967   -2.4938   21.5451 C.ar    1  UNL1        0.0320
     12 C           5.2430   -3.6254   21.2735 C.ar    1  UNL1        0.0004
     13 C           5.5201   -4.0489   19.8615 C.ar    1  UNL1       -0.0001
     14 C           4.8510   -3.3407   18.7210 C.ar    1  UNL1        0.0031
     15 C           3.9046   -2.2091   18.9927 C.ar    1  UNL1        0.0366
     16 C           3.6275   -1.7856   20.4047 C.ar    1  UNL1        0.1362
     17 O           2.6811   -0.6539   20.6763 O.3     1  UNL1       -0.4730
     18 C           2.4039   -0.2305   22.0884 C.3     1  UNL1        0.2364
     19 C           3.0732   -0.9387   23.2288 C.3     1  UNL1        0.1762
     20 O           2.7961   -0.5153   24.6409 O.3     1  UNL1       -0.3788
     21 H           2.1676    0.2236   24.6394 H       1  UNL1        0.2106
     22 C           7.8871   -3.5852   25.6658 C.3     1  UNL1        0.0371
     23 C           7.9929   -5.0676   25.8689 C.ar    1  UNL1       -0.0025
     24 C           7.8602   -5.9963   24.6984 C.ar    1  UNL1       -0.0011
     25 C           7.9661   -7.4788   24.9016 C.ar    1  UNL1        0.0204
     26 C           8.2045   -8.0324   26.2751 C.ar    1  UNL1        0.0989
     27 N           8.3372   -7.1037   27.4455 N.ar    1  UNL1       -0.2426
     28 C           8.2314   -5.6213   27.2424 C.ar    1  UNL1        0.0946
     29 C           5.2159   -0.7231   28.4525 C.3     1  UNL1        0.1021
     30 N           5.1136   -0.8492   29.9437 N.3     1  UNL1       -0.2621
     31 C           6.2373   -1.4655   30.7231 C.3     1  UNL1        0.0901
     32 C           6.1350   -1.5915   32.2143 C.3     1  UNL1        0.0900
     33 N           4.9089   -1.1013   32.9260 N.3     1  UNL1       -0.2635
     34 C           3.7853   -0.4850   32.1466 C.3     1  UNL1        0.0980
     35 C           3.8876   -0.3589   30.6554 C.3     1  UNL1        0.1510
     36 C           2.7640    0.2574   29.8760 C.2     1  UNL1        0.2386
     37 O           2.7287    1.7408   29.6563 O.2     1  UNL1       -0.2736
     38 N           1.6755   -0.6098   29.3161 N.am    1  UNL1       -0.2961
     39 H           1.6986   -1.5834   29.4602 H       1  UNL1        0.1497
     40 C           0.5519    0.0065   28.5367 C.3     1  UNL1        0.1939
     41 C          -0.8246    0.0720   29.1294 C.3     1  UNL1        0.4154
     42 F          -2.2009    0.1376   29.7220 F       1  UNL1       -0.1682
     43 F          -1.2681   -1.0370   28.2220 F       1  UNL1       -0.1682
     44 F          -0.3810    1.1811   30.0367 F       1  UNL1       -0.1682
     45 C           4.8066   -1.2273   34.4172 C.3     1  UNL1        0.1377
     46 C           4.3608   -0.0551   35.2402 C.ar    1  UNL1        0.1390
     47 C           4.5656    0.1148   36.7163 C.ar    1  UNL1        0.0374
     48 C           3.9633    1.4279   37.1198 C.ar    1  UNL1        0.0373
     49 C           3.8658    2.1223   38.4459 C.ar    1  UNL1        0.0031
     50 C           3.1911    3.4583   38.5451 C.ar    1  UNL1        0.0002
     51 C           2.6140    4.1000   37.3183 C.ar    1  UNL1        0.0031
     52 C           2.7116    3.4057   35.9922 C.ar    1  UNL1        0.0375
     53 C           3.3862    2.0697   35.8930 C.ar    1  UNL1        0.1449
     54 O           3.6319    1.1532   34.7313 O.2     1  UNL1       -0.4564
@<TRIPOS>BOND
     1     6     7    2
     2     7     8   am
     3    10     8    1
     4    10    11    1
     5    11    12   ar
     6    12    13   ar
     7    13    14   ar
     8    14    15   ar
     9    15    16   ar
    10    16    17    1
    11    17    18    1
    12    18    19    1
    13    19    20    1
    14     7     5    1
    15     5    22    1
    16    22    23    1
    17    23    24   ar
    18    24    25   ar
    19    25    26   ar
    20    26    27   ar
    21    27    28   ar
    22     5     4    1
    23     4     1    1
    24     1     2    1
    25     1    29    1
    26    29    30    1
    27    30    31    1
    28    31    32    1
    29    32    33    1
    30    33    45    1
    31    45    46    1
    32    46    47   ar
    33    47    48   ar
    34    48    49   ar
    35    49    50   ar
    36    50    51   ar
    37    51    52   ar
    38    52    53   ar
    39    53    54   ar
    40    33    34    1
    41    34    35    1
    42    35    36    1
    43    36    37    2
    44    36    38   am
    45    38    40    1
    46    40    41    1
    47    41    42    1
    48    41    43    1
    49    41    44    1
    50    19    10    1
    51    28    23   ar
    52    35    30    1
    53    16    11   ar
    54    54    46   ar
    55    53    48   ar
    56     8     9    1
    57    20    21    1
    58     2     3    1
    59    38    39    1
@<TRIPOS>MOLECULE
*****
 54 59 0 0 0
SMALL
GASTEIGER

@<TRIPOS>ATOM
      1 C           4.8228   -1.9116   27.5884 C.3     1  UNL1        0.1269
      2 O           3.4589   -2.0384   26.9771 O.3     1  UNL1       -0.3830
      3 H           2.8906   -1.3232   27.3034 H       1  UNL1        0.2104
      4 C           5.8944   -2.9030   27.2435 C.3     1  UNL1        0.0401
      5 C           6.5437   -2.8657   25.8919 C.3     1  UNL1        0.0833
      6 O           6.3940   -0.8043   24.3175 O.2     1  UNL1       -0.2751
      7 C           5.8777   -2.1414   24.7596 C.2     1  UNL1        0.2226
      8 N           4.6954   -2.7545   24.0693 N.am    1  UNL1       -0.2999
      9 H           4.3566   -3.6321   24.3595 H       1  UNL1        0.1498
     10 C           4.0294   -2.0303   22.9371 C.3     1  UNL1        0.1278
     11 C           4.3236   -2.4227   21.5195 C.ar    1  UNL1        0.0320
     12 C           5.2838   -3.5392   21.2342 C.ar    1  UNL1        0.0004
     13 C           5.5780   -3.9315   19.8166 C.ar    1  UNL1       -0.0001
     14 C           4.9120   -3.2074   18.6844 C.ar    1  UNL1        0.0031
     15 C           3.9518   -2.0909   18.9697 C.ar    1  UNL1        0.0366
     16 C           3.6576   -1.6986   20.3873 C.ar    1  UNL1        0.1362
     17 O           2.6974   -0.5820   20.6726 O.3     1  UNL1       -0.4730
     18 C           2.4032   -0.1897   22.0901 C.3     1  UNL1        0.2364
     19 C           3.0692   -0.9139   23.2224 C.3     1  UNL1        0.1762
     20 O           2.7750   -0.5215   24.6400 O.3     1  UNL1       -0.3788
     21 H           2.1392    0.2110   24.6474 H       1  UNL1        0.2106
     22 C           7.8590   -3.5525   25.6725 C.3     1  UNL1        0.0371
     23 C           8.1684   -4.1731   24.3424 C.ar    1  UNL1       -0.0025
     24 C           8.6892   -3.3235   23.2213 C.ar    1  UNL1       -0.0011
     25 C           8.9986   -3.9442   21.8912 C.ar    1  UNL1        0.0204
     26 C           8.7871   -5.4144   21.6822 C.ar    1  UNL1        0.0989
     27 N           8.2662   -6.2640   22.8034 N.ar    1  UNL1       -0.2426
     28 C           7.9569   -5.6434   24.1334 C.ar    1  UNL1        0.0946
     29 C           5.1152   -0.7935   28.5447 C.3     1  UNL1        0.1021
     30 N           4.9503   -1.0062   30.0203 N.3     1  UNL1       -0.2621
     31 C           6.0341   -1.6828   30.8063 C.3     1  UNL1        0.0901
     32 C           5.8692   -1.8955   32.2819 C.3     1  UNL1        0.0900
     33 N           4.6205   -1.4317   32.9716 N.3     1  UNL1       -0.2635
     34 C           3.5367   -0.7552   32.1857 C.3     1  UNL1        0.0980
     35 C           3.7016   -0.5425   30.7100 C.3     1  UNL1        0.1510
     36 C           2.6178    0.1340   29.9241 C.2     1  UNL1        0.2386
     37 O           2.6280    1.6252   29.7622 O.2     1  UNL1       -0.2736
     38 N           1.5238   -0.6807   29.2999 N.am    1  UNL1       -0.2961
     39 H           1.5171   -1.6594   29.4062 H       1  UNL1        0.1497
     40 C           0.4401   -0.0042   28.5140 C.3     1  UNL1        0.1939
     41 C          -0.9436    0.1037   29.0833 C.3     1  UNL1        0.4154
     42 F          -2.3271    0.2115   29.6526 F       1  UNL1       -0.1682
     43 F          -1.3718   -1.0794   28.2667 F       1  UNL1       -0.1682
     44 F          -0.5153    1.2867   29.8999 F       1  UNL1       -0.1682
     45 C           4.4556   -1.6445   34.4473 C.3     1  UNL1        0.1377
     46 C           4.8980   -0.5844   35.4119 C.ar    1  UNL1        0.1390
     47 C           6.1888    0.1775   35.3536 C.ar    1  UNL1        0.0374
     48 C           6.2159    1.1327   36.5099 C.ar    1  UNL1        0.0373
     49 C           7.2360    2.1365   36.9589 C.ar    1  UNL1        0.0031
     50 C           6.9821    2.9687   38.1808 C.ar    1  UNL1        0.0002
     51 C           5.7081    2.7971   38.9536 C.ar    1  UNL1        0.0031
     52 C           4.6879    1.7933   38.5047 C.ar    1  UNL1        0.0375
     53 C           4.9418    0.9611   37.2828 C.ar    1  UNL1        0.1449
     54 O           4.1274   -0.1001   36.6042 O.2     1  UNL1       -0.4564
@<TRIPOS>BOND
     1     6     7    2
     2     7     8   am
     3    10     8    1
     4    10    11    1
     5    11    12   ar
     6    12    13   ar
     7    13    14   ar
     8    14    15   ar
     9    15    16   ar
    10    16    17    1
    11    17    18    1
    12    18    19    1
    13    19    20    1
    14     7     5    1
    15     5    22    1
    16    22    23    1
    17    23    24   ar
    18    24    25   ar
    19    25    26   ar
    20    26    27   ar
    21    27    28   ar
    22     5     4    1
    23     4     1    1
    24     1     2    1
    25     1    29    1
    26    29    30    1
    27    30    31    1
    28    31    32    1
    29    32    33    1
    30    33    45    1
    31    45    46    1
    32    46    47   ar
    33    47    48   ar
    34    48    49   ar
    35    49    50   ar
    36    50    51   ar
    37    51    52   ar
    38    52    53   ar
    39    53    54   ar
    40    33    34    1
    41    34    35    1
    42    35    36    1
    43    36    37    2
    44    36    38   am
    45    38    40    1
    46    40    41    1
    47    41    42    1
    48    41    43    1
    49    41    44    1
    50    19    10    1
    51    28    23   ar
    52    35    30    1
    53    16    11   ar
    54    54    46   ar
    55    53    48   ar
    56     8     9    1
    57    20    21    1
    58     2     3    1
    59    38    39    1
@<TRIPOS>MOLECULE
*****
 54 59 0 0 0
SMALL
GASTEIGER

@<TRIPOS>ATOM
      1 C           4.4189   -0.8236   26.4409 C.3     1  UNL1        0.1269
      2 O           3.5160   -1.9768   26.7649 O.3     1  UNL1       -0.3830
      3 H           3.2589   -1.9337   27.6992 H       1  UNL1        0.2104
      4 C           4.9590   -0.6614   25.0510 C.3     1  UNL1        0.0401
      5 C           4.4140   -1.4986   23.9321 C.3     1  UNL1        0.0833
      6 O           4.4099   -3.8208   22.7670 O.2     1  UNL1       -0.2751
      7 C           5.1438   -2.7344   23.4958 C.2     1  UNL1        0.2226
      8 N           6.6074   -2.8837   23.7882 N.am    1  UNL1       -0.2999
      9 H           7.0890   -2.1706   24.2666 H       1  UNL1        0.1498
     10 C           7.3372   -4.1194   23.3520 C.3     1  UNL1        0.1278
     11 C           7.4512   -5.2908   24.2819 C.ar    1  UNL1        0.0320
     12 C           6.8354   -5.2265   25.6481 C.ar    1  UNL1        0.0004
     13 C           6.9494   -6.3979   26.5781 C.ar    1  UNL1       -0.0001
     14 C           7.6792   -7.6336   26.1418 C.ar    1  UNL1        0.0031
     15 C           8.2950   -7.6979   24.7756 C.ar    1  UNL1        0.0366
     16 C           8.1810   -6.5265   23.8456 C.ar    1  UNL1        0.1362
     17 O           8.7968   -6.5909   22.4793 O.3     1  UNL1       -0.4730
     18 C           8.6828   -5.4195   21.5494 C.3     1  UNL1        0.2364
     19 C           7.9530   -4.1837   21.9857 C.3     1  UNL1        0.1762
     20 O           7.8390   -3.0123   21.0558 O.3     1  UNL1       -0.3788
     21 H           8.2880   -3.2174   20.2208 H       1  UNL1        0.2106
     22 C           3.1392   -1.1001   23.2494 C.3     1  UNL1        0.0371
     23 C           3.1812   -0.4851   21.8820 C.ar    1  UNL1       -0.0025
     24 C           3.0443   -1.3517   20.6653 C.ar    1  UNL1       -0.0011
     25 C           3.0863   -0.7366   19.2978 C.ar    1  UNL1        0.0204
     26 C           3.2653    0.7450   19.1470 C.ar    1  UNL1        0.0989
     27 N           3.4023    1.6116   20.3637 N.ar    1  UNL1       -0.2426
     28 C           3.3602    0.9966   21.7311 C.ar    1  UNL1        0.0946
     29 C           4.7815    0.1675   27.5069 C.3     1  UNL1        0.1021
     30 N           4.8016   -0.2533   28.9466 N.3     1  UNL1       -0.2621
     31 C           6.0682   -0.7752   29.5578 C.3     1  UNL1        0.0901
     32 C           6.0883   -1.1959   30.9974 C.3     1  UNL1        0.0900
     33 N           4.8419   -1.0947   31.8259 N.3     1  UNL1       -0.2635
     34 C           3.5754   -0.5727   31.2147 C.3     1  UNL1        0.0980
     35 C           3.5553   -0.1520   29.7750 C.3     1  UNL1        0.1510
     36 C           2.2889    0.3699   29.1638 C.2     1  UNL1        0.2386
     37 O           2.0902    1.8473   28.9965 O.2     1  UNL1       -0.2736
     38 N           1.2210   -0.5855   28.7199 N.am    1  UNL1       -0.2961
     39 H           1.3514   -1.5551   28.8297 H       1  UNL1        0.1497
     40 C          -0.0454   -0.0635   28.1086 C.3     1  UNL1        0.1939
     41 C          -1.2884    0.0502   28.9406 C.3     1  UNL1        0.4154
     42 F          -2.5313    0.1639   29.7725 F       1  UNL1       -0.1682
     43 F          -0.8371    1.3939   29.4312 F       1  UNL1       -0.1682
     44 F          -1.7397   -1.2935   28.4500 F       1  UNL1       -0.1682
     45 C           4.8620   -1.5154   33.2655 C.3     1  UNL1        0.1377
     46 C           4.5872   -0.5102   34.3446 C.ar    1  UNL1        0.1390
     47 C           5.1781   -0.5129   35.7233 C.ar    1  UNL1        0.0374
     48 C           4.6294    0.6697   36.4650 C.ar    1  UNL1        0.0373
     49 C           4.8565    1.1734   37.8596 C.ar    1  UNL1        0.0031
     50 C           4.1535    2.4107   38.3339 C.ar    1  UNL1        0.0002
     51 C           3.2235    3.1443   37.4136 C.ar    1  UNL1        0.0031
     52 C           2.9965    2.6407   36.0191 C.ar    1  UNL1        0.0375
     53 C           3.6994    1.4034   35.5448 C.ar    1  UNL1        0.1449
     54 O           3.6733    0.6741   34.2343 O.2     1  UNL1       -0.4564
@<TRIPOS>BOND
     1     6     7    2
     2     7     8   am
     3    10     8    1
     4    10    11    1
     5    11    12   ar
     6    12    13   ar
     7    13    14   ar
     8    14    15   ar
     9    15    16   ar
    10    16    17    1
    11    17    18    1
    12    18    19    1
    13    19    20    1
    14     7     5    1
    15     5    22    1
    16    22    23    1
    17    23    24   ar
    18    24    25   ar
    19    25    26   ar
    20    26    27   ar
    21    27    28   ar
    22     5     4    1
    23     4     1    1
    24     1     2    1
    25     1    29    1
    26    29    30    1
    27    30    31    1
    28    31    32    1
    29    32    33    1
    30    33    45    1
    31    45    46    1
    32    46    47   ar
    33    47    48   ar
    34    48    49   ar
    35    49    50   ar
    36    50    51   ar
    37    51    52   ar
    38    52    53   ar
    39    53    54   ar
    40    33    34    1
    41    34    35    1
    42    35    36    1
    43    36    37    2
    44    36    38   am
    45    38    40    1
    46    40    41    1
    47    41    42    1
    48    41    43    1
    49    41    44    1
    50    19    10    1
    51    28    23   ar
    52    35    30    1
    53    16    11   ar
    54    54    46   ar
    55    53    48   ar
    56     8     9    1
    57    20    21    1
    58     2     3    1
    59    38    39    1
@<TRIPOS>MOLECULE
*****
 54 59 0 0 0
SMALL
GASTEIGER

@<TRIPOS>ATOM
      1 C           7.2192   -3.1689   27.4546 C.3     1  UNL1        0.1269
      2 O           5.9170   -3.8905   27.2717 O.3     1  UNL1       -0.3830
      3 H           5.8913   -4.2926   26.3893 H       1  UNL1        0.2104
      4 C           7.5082   -2.4580   28.7434 C.3     1  UNL1        0.0401
      5 C           6.3968   -2.1785   29.7113 C.3     1  UNL1        0.0833
      6 O           5.4458    0.2387   29.7674 O.2     1  UNL1       -0.2751
      7 C           5.3197   -1.1976   29.3536 C.2     1  UNL1        0.2226
      8 N           4.1167   -1.6530   28.5821 N.am    1  UNL1       -0.2999
      9 H           4.0340   -2.5957   28.3105 H       1  UNL1        0.1498
     10 C           3.0396   -0.6723   28.2245 C.3     1  UNL1        0.1278
     11 C           3.0061   -0.0615   26.8549 C.ar    1  UNL1        0.0320
     12 C           4.0496   -0.4315   25.8429 C.ar    1  UNL1        0.0004
     13 C           4.0160    0.1792   24.4733 C.ar    1  UNL1       -0.0001
     14 C           2.9390    1.1600   24.1156 C.ar    1  UNL1        0.0031
     15 C           1.8955    1.5300   25.1276 C.ar    1  UNL1        0.0366
     16 C           1.9290    0.9193   26.4972 C.ar    1  UNL1        0.1362
     17 O           0.8854    1.2894   27.5092 O.3     1  UNL1       -0.4730
     18 C           0.9190    0.6786   28.8788 C.3     1  UNL1        0.2364
     19 C           1.9961   -0.3022   29.2364 C.3     1  UNL1        0.1762
     20 O           2.0296   -0.9130   30.6061 O.3     1  UNL1       -0.3788
     21 H           1.2904   -0.5691   31.1316 H       1  UNL1        0.2106
     22 C           6.3625   -2.8797   31.0368 C.3     1  UNL1        0.0371
     23 C           5.8272   -2.1720   32.2461 C.ar    1  UNL1       -0.0025
     24 C           6.6681   -1.1482   32.9495 C.ar    1  UNL1       -0.0011
     25 C           6.1327   -0.4405   34.1589 C.ar    1  UNL1        0.0204
     26 C           4.7564   -0.7565   34.6648 C.ar    1  UNL1        0.0989
     27 N           3.9155   -1.7802   33.9614 N.ar    1  UNL1       -0.2426
     28 C           4.4508   -2.4880   32.7521 C.ar    1  UNL1        0.0946
     29 C           8.2325   -3.1583   26.3486 C.3     1  UNL1        0.1021
     30 N           7.7815   -3.1251   24.9184 N.3     1  UNL1       -0.2621
     31 C           7.3556   -1.8283   24.2962 C.3     1  UNL1        0.0901
     32 C           6.9045   -1.7951   22.8661 C.3     1  UNL1        0.0900
     33 N           6.8793   -3.0587   22.0581 N.3     1  UNL1       -0.2635
     34 C           7.3052   -4.3554   22.6803 C.3     1  UNL1        0.0980
     35 C           7.7562   -4.3886   24.1105 C.3     1  UNL1        0.1510
     36 C           8.1821   -5.6853   24.7326 C.2     1  UNL1        0.2386
     37 O           9.5048   -6.2926   24.3698 O.2     1  UNL1       -0.2736
     38 N           7.2853   -6.3747   25.7178 N.am    1  UNL1       -0.2961
     39 H           6.4172   -5.9761   25.9560 H       1  UNL1        0.1497
     40 C           7.7112   -7.6714   26.3400 C.3     1  UNL1        0.1939
     41 C           8.2627   -7.6886   27.7349 C.3     1  UNL1        0.4154
     42 F           8.8143   -7.7058   29.1296 F       1  UNL1       -0.1682
     43 F           7.8746   -6.2498   27.9061 F       1  UNL1       -0.1682
     44 F           8.6509   -9.1273   27.5636 F       1  UNL1       -0.1682
     45 C           6.4282   -3.0255   20.6279 C.3     1  UNL1        0.1377
     46 C           5.2256   -2.2175   20.2393 C.ar    1  UNL1        0.1390
     47 C           3.9123   -2.1871   20.9635 C.ar    1  UNL1        0.0374
     48 C           3.0002   -1.2489   20.2301 C.ar    1  UNL1        0.0373
     49 C           1.5839   -0.8239   20.4824 C.ar    1  UNL1        0.0031
     50 C           0.9172    0.1505   19.5571 C.ar    1  UNL1        0.0002
     51 C           1.6668    0.6999   18.3797 C.ar    1  UNL1        0.0031
     52 C           3.0830    0.2749   18.1275 C.ar    1  UNL1        0.0375
     53 C           3.7497   -0.6995   19.0527 C.ar    1  UNL1        0.1449
     54 O           5.1251   -1.2981   19.0584 O.2     1  UNL1       -0.4564
@<TRIPOS>BOND
     1     6     7    2
     2     7     8   am
     3    10     8    1
     4    10    11    1
     5    11    12   ar
     6    12    13   ar
     7    13    14   ar
     8    14    15   ar
     9    15    16   ar
    10    16    17    1
    11    17    18    1
    12    18    19    1
    13    19    20    1
    14     7     5    1
    15     5    22    1
    16    22    23    1
    17    23    24   ar
    18    24    25   ar
    19    25    26   ar
    20    26    27   ar
    21    27    28   ar
    22     5     4    1
    23     4     1    1
    24     1     2    1
    25     1    29    1
    26    29    30    1
    27    30    31    1
    28    31    32    1
    29    32    33    1
    30    33    45    1
    31    45    46    1
    32    46    47   ar
    33    47    48   ar
    34    48    49   ar
    35    49    50   ar
    36    50    51   ar
    37    51    52   ar
    38    52    53   ar
    39    53    54   ar
    40    33    34    1
    41    34    35    1
    42    35    36    1
    43    36    37    2
    44    36    38   am
    45    38    40    1
    46    40    41    1
    47    41    42    1
    48    41    43    1
    49    41    44    1
    50    19    10    1
    51    28    23   ar
    52    35    30    1
    53    16    11   ar
    54    54    46   ar
    55    53    48   ar
    56     8     9    1
    57    20    21    1
    58     2     3    1
    59    38    39    1
@<TRIPOS>MOLECULE
*****
 54 59 0 0 0
SMALL
GASTEIGER

@<TRIPOS>ATOM
      1 C           4.3886   -0.4736   27.0022 C.3     1  UNL1        0.1269
      2 O           3.5454   -1.6379   26.5738 O.3     1  UNL1       -0.3830
      3 H           2.7971   -1.7367   27.1831 H       1  UNL1        0.2104
      4 C           5.6149   -0.1075   26.2198 C.3     1  UNL1        0.0401
      5 C           6.2572   -1.1176   25.3160 C.3     1  UNL1        0.0833
      6 O           6.5204   -0.6521   22.7735 O.2     1  UNL1       -0.2751
      7 C           5.7678   -1.2824   23.9076 C.2     1  UNL1        0.2226
      8 N           4.5257   -2.0775   23.6334 N.am    1  UNL1       -0.2999
      9 H           4.0318   -2.4912   24.3778 H       1  UNL1        0.1498
     10 C           4.0363   -2.2423   22.2252 C.3     1  UNL1        0.1278
     11 C           3.0073   -1.3004   21.6737 C.ar    1  UNL1        0.0320
     12 C           2.4678   -0.1938   22.5305 C.ar    1  UNL1        0.0004
     13 C           1.4388    0.7481   21.9791 C.ar    1  UNL1       -0.0001
     14 C           0.9493    0.5833   20.5708 C.ar    1  UNL1        0.0031
     15 C           1.4889   -0.5233   19.7140 C.ar    1  UNL1        0.0366
     16 C           2.5179   -1.4652   20.2655 C.ar    1  UNL1        0.1362
     17 O           3.0575   -2.5719   19.4086 O.3     1  UNL1       -0.4730
     18 C           4.0865   -3.5137   19.9600 C.3     1  UNL1        0.2364
     19 C           4.5759   -3.3489   21.3684 C.3     1  UNL1        0.1762
     20 O           5.6049   -4.2907   21.9198 O.3     1  UNL1       -0.3788
     21 H           5.8443   -4.9413   21.2413 H       1  UNL1        0.2106
     22 C           7.3889   -1.9631   25.8204 C.3     1  UNL1        0.0371
     23 C           7.1371   -3.3815   26.2383 C.ar    1  UNL1       -0.0025
     24 C           6.5627   -3.6736   27.5928 C.ar    1  UNL1       -0.0011
     25 C           6.3109   -5.0921   28.0106 C.ar    1  UNL1        0.0204
     26 C           6.6336   -6.2184   27.0739 C.ar    1  UNL1        0.0989
     27 N           7.2080   -5.9263   25.7194 N.ar    1  UNL1       -0.2426
     28 C           7.4598   -4.5078   25.3016 C.ar    1  UNL1        0.0946
     29 C           4.0054    0.3246   28.2131 C.3     1  UNL1        0.1021
     30 N           4.3542   -0.1768   29.5831 N.3     1  UNL1       -0.2621
     31 C           5.7723   -0.5405   29.9101 C.3     1  UNL1        0.0901
     32 C           6.1211   -1.0420   31.2801 C.3     1  UNL1        0.0900
     33 N           5.0518   -1.1796   32.3231 N.3     1  UNL1       -0.2635
     34 C           3.6338   -0.8159   31.9961 C.3     1  UNL1        0.0980
     35 C           3.2850   -0.3145   30.6261 C.3     1  UNL1        0.1510
     36 C           1.8670    0.0493   30.2990 C.2     1  UNL1        0.2386
     37 O           1.1680    1.1210   31.0819 O.2     1  UNL1       -0.2736
     38 N           1.1480   -0.6587   29.1891 N.am    1  UNL1       -0.2961
     39 H           1.6068   -1.3621   28.6753 H       1  UNL1        0.1497
     40 C          -0.2700   -0.2950   28.8621 C.3     1  UNL1        0.1939
     41 C          -0.5555    0.7802   27.8558 C.3     1  UNL1        0.4154
     42 F          -0.8410    1.8552   26.8495 F       1  UNL1       -0.1682
     43 F          -1.9379    0.9377   28.4162 F       1  UNL1       -0.1682
     44 F           0.8269    0.6226   27.2953 F       1  UNL1       -0.1682
     45 C           5.4006   -1.6810   33.6931 C.3     1  UNL1        0.1377
     46 C           5.3916   -0.7398   34.8610 C.ar    1  UNL1        0.1390
     47 C           6.4944    0.2030   35.2421 C.ar    1  UNL1        0.0374
     48 C           6.0626    0.9493   36.4695 C.ar    1  UNL1        0.0373
     49 C           6.7396    2.0052   37.2922 C.ar    1  UNL1        0.0031
     50 C           6.0470    2.5796   38.4924 C.ar    1  UNL1        0.0002
     51 C           4.6775    2.0981   38.8699 C.ar    1  UNL1        0.0031
     52 C           4.0005    1.0423   38.0472 C.ar    1  UNL1        0.0375
     53 C           4.6930    0.4679   36.8470 C.ar    1  UNL1        0.1449
     54 O           4.2783   -0.5760   35.8529 O.2     1  UNL1       -0.4564
@<TRIPOS>BOND
     1     6     7    2
     2     7     8   am
     3    10     8    1
     4    10    11    1
     5    11    12   ar
     6    12    13   ar
     7    13    14   ar
     8    14    15   ar
     9    15    16   ar
    10    16    17    1
    11    17    18    1
    12    18    19    1
    13    19    20    1
    14     7     5    1
    15     5    22    1
    16    22    23    1
    17    23    24   ar
    18    24    25   ar
    19    25    26   ar
    20    26    27   ar
    21    27    28   ar
    22     5     4    1
    23     4     1    1
    24     1     2    1
    25     1    29    1
    26    29    30    1
    27    30    31    1
    28    31    32    1
    29    32    33    1
    30    33    45    1
    31    45    46    1
    32    46    47   ar
    33    47    48   ar
    34    48    49   ar
    35    49    50   ar
    36    50    51   ar
    37    51    52   ar
    38    52    53   ar
    39    53    54   ar
    40    33    34    1
    41    34    35    1
    42    35    36    1
    43    36    37    2
    44    36    38   am
    45    38    40    1
    46    40    41    1
    47    41    42    1
    48    41    43    1
    49    41    44    1
    50    19    10    1
    51    28    23   ar
    52    35    30    1
    53    16    11   ar
    54    54    46   ar
    55    53    48   ar
    56     8     9    1
    57    20    21    1
    58     2     3    1
    59    38    39    1
@<TRIPOS>MOLECULE
*****
 54 59 0 0 0
SMALL
GASTEIGER

@<TRIPOS>ATOM
      1 C           1.2069    1.7535   22.9830 C.3     1  UNL1        0.1269
      2 O           1.8559    3.1014   22.8747 O.3     1  UNL1       -0.3830
      3 H           2.4004    3.2623   23.6611 H       1  UNL1        0.2104
      4 C           0.3076    1.2638   21.8868 C.3     1  UNL1        0.0401
      5 C           0.4691    1.7918   20.4922 C.3     1  UNL1        0.0833
      6 O           0.9930    0.6078   18.2397 O.2     1  UNL1       -0.2751
      7 C           1.4546    1.1541   19.5582 C.2     1  UNL1        0.2226
      8 N           2.9015    1.0628   19.9428 N.am    1  UNL1       -0.2999
      9 H           3.2044    1.4214   20.8082 H       1  UNL1        0.1498
     10 C           3.8870    0.4252   19.0089 C.3     1  UNL1        0.1278
     11 C           4.1029   -1.0587   19.0452 C.ar    1  UNL1        0.0320
     12 C           3.3334   -1.9050   20.0155 C.ar    1  UNL1        0.0004
     13 C           3.5494   -3.3890   20.0519 C.ar    1  UNL1       -0.0001
     14 C           4.5348   -4.0266   19.1180 C.ar    1  UNL1        0.0031
     15 C           5.3044   -3.1803   18.1477 C.ar    1  UNL1        0.0366
     16 C           5.0884   -1.6963   18.1113 C.ar    1  UNL1        0.1362
     17 O           5.8580   -0.8500   17.1409 O.3     1  UNL1       -0.4730
     18 C           5.6421    0.6339   17.1046 C.3     1  UNL1        0.2364
     19 C           4.6565    1.2715   18.0386 C.3     1  UNL1        0.1762
     20 O           4.4406    2.7555   18.0022 O.3     1  UNL1       -0.3788
     21 H           5.0118    3.1488   17.3240 H       1  UNL1        0.2106
     22 C          -0.3549    2.9574   20.0315 C.3     1  UNL1        0.0371
     23 C          -1.4798    3.4645   20.8844 C.ar    1  UNL1       -0.0025
     24 C          -2.8803    2.9856   20.6411 C.ar    1  UNL1       -0.0011
     25 C          -4.0052    3.4928   21.4941 C.ar    1  UNL1        0.0204
     26 C          -3.7295    4.4788   22.5903 C.ar    1  UNL1        0.0989
     27 N          -2.3289    4.9577   22.8336 N.ar    1  UNL1       -0.2426
     28 C          -1.2041    4.4506   21.9807 C.ar    1  UNL1        0.0946
     29 C           1.4571    0.8952   24.1875 C.3     1  UNL1        0.1021
     30 N           2.8241    0.3292   24.4342 N.3     1  UNL1       -0.2621
     31 C           3.6514   -0.1619   23.2833 C.3     1  UNL1        0.0901
     32 C           5.0185   -0.7279   23.5301 C.3     1  UNL1        0.0900
     33 N           5.5582   -0.8028   24.9277 N.3     1  UNL1       -0.2635
     34 C           4.7309   -0.3117   26.0784 C.3     1  UNL1        0.0980
     35 C           3.3638    0.2543   25.8317 C.3     1  UNL1        0.1510
     36 C           2.5365    0.7453   26.9825 C.2     1  UNL1        0.2386
     37 O           2.5477    2.2003   27.3473 O.2     1  UNL1       -0.2736
     38 N           1.6979   -0.2186   27.7686 N.am    1  UNL1       -0.2961
     39 H           1.6906   -1.1735   27.5292 H       1  UNL1        0.1497
     40 C           0.8706    0.2725   28.9194 C.3     1  UNL1        0.1939
     41 C          -0.6022    0.4959   28.7428 C.3     1  UNL1        0.4154
     42 F          -2.0749    0.7193   28.5663 F       1  UNL1       -0.1682
     43 F          -0.8629   -0.9359   29.1061 F       1  UNL1       -0.1682
     44 F          -0.3414    1.9276   28.3796 F       1  UNL1       -0.1682
     45 C           6.9252   -1.3688   25.1744 C.3     1  UNL1        0.1377
     46 C           7.1248   -2.8548   25.2195 C.ar    1  UNL1        0.1390
     47 C           7.8752   -3.6746   24.2122 C.ar    1  UNL1        0.0374
     48 C           7.8231   -5.1084   24.6500 C.ar    1  UNL1        0.0373
     49 C           8.3873   -6.3621   24.0501 C.ar    1  UNL1        0.0031
     50 C           8.1687   -7.6822   24.7282 C.ar    1  UNL1        0.0002
     51 C           7.3860   -7.7484   26.0061 C.ar    1  UNL1        0.0031
     52 C           6.8219   -6.4947   26.6059 C.ar    1  UNL1        0.0375
     53 C           7.0404   -5.1747   25.9279 C.ar    1  UNL1        0.1449
     54 O           6.6088   -3.7819   26.2799 O.2     1  UNL1       -0.4564
@<TRIPOS>BOND
     1     6     7    2
     2     7     8   am
     3    10     8    1
     4    10    11    1
     5    11    12   ar
     6    12    13   ar
     7    13    14   ar
     8    14    15   ar
     9    15    16   ar
    10    16    17    1
    11    17    18    1
    12    18    19    1
    13    19    20    1
    14     7     5    1
    15     5    22    1
    16    22    23    1
    17    23    24   ar
    18    24    25   ar
    19    25    26   ar
    20    26    27   ar
    21    27    28   ar
    22     5     4    1
    23     4     1    1
    24     1     2    1
    25     1    29    1
    26    29    30    1
    27    30    31    1
    28    31    32    1
    29    32    33    1
    30    33    45    1
    31    45    46    1
    32    46    47   ar
    33    47    48   ar
    34    48    49   ar
    35    49    50   ar
    36    50    51   ar
    37    51    52   ar
    38    52    53   ar
    39    53    54   ar
    40    33    34    1
    41    34    35    1
    42    35    36    1
    43    36    37    2
    44    36    38   am
    45    38    40    1
    46    40    41    1
    47    41    42    1
    48    41    43    1
    49    41    44    1
    50    19    10    1
    51    28    23   ar
    52    35    30    1
    53    16    11   ar
    54    54    46   ar
    55    53    48   ar
    56     8     9    1
    57    20    21    1
    58     2     3    1
    59    38    39    1
@<TRIPOS>MOLECULE
*****
 54 59 0 0 0
SMALL
GASTEIGER

@<TRIPOS>ATOM
      1 C          -0.2952    4.1476   23.9551 C.3     1  UNL1        0.1269
      2 O           0.6272    4.8278   24.9228 O.3     1  UNL1       -0.3830
      3 H           1.1810    5.4666   24.4472 H       1  UNL1        0.2104
      4 C          -1.2605    3.1084   24.4432 C.3     1  UNL1        0.0401
      5 C          -1.2231    2.6636   25.8752 C.3     1  UNL1        0.0833
      6 O          -0.5878    0.5446   27.2377 O.2     1  UNL1       -0.2751
      7 C          -0.1950    1.6680   26.3247 C.2     1  UNL1        0.2226
      8 N           1.2258    1.7959   25.8611 N.am    1  UNL1       -0.2999
      9 H           1.4836    2.5332   25.2618 H       1  UNL1        0.1498
     10 C           2.2538    0.8003   26.3105 C.3     1  UNL1        0.1278
     11 C           2.9159   -0.0984   25.3085 C.ar    1  UNL1        0.0320
     12 C           2.5499   -0.0016   23.8571 C.ar    1  UNL1        0.0004
     13 C           3.2119   -0.9004   22.8551 C.ar    1  UNL1       -0.0001
     14 C           4.2399   -1.8959   23.3045 C.ar    1  UNL1        0.0031
     15 C           4.6059   -1.9927   24.7559 C.ar    1  UNL1        0.0366
     16 C           3.9439   -1.0939   25.7579 C.ar    1  UNL1        0.1362
     17 O           4.3100   -1.1907   27.2094 O.3     1  UNL1       -0.4730
     18 C           3.6479   -0.2920   28.2114 C.3     1  UNL1        0.2364
     19 C           2.6198    0.7036   27.7619 C.3     1  UNL1        0.1762
     20 O           1.9578    1.6023   28.7639 O.3     1  UNL1       -0.3788
     21 H           2.3058    1.4115   29.6490 H       1  UNL1        0.2106
     22 C          -2.2136    3.2143   26.8578 C.3     1  UNL1        0.0371
     23 C          -3.1587    4.3018   26.4405 C.ar    1  UNL1       -0.0025
     24 C          -2.6999    5.7299   26.4271 C.ar    1  UNL1       -0.0011
     25 C          -3.6450    6.8174   26.0098 C.ar    1  UNL1        0.0204
     26 C          -5.0489    6.4768   25.6059 C.ar    1  UNL1        0.0989
     27 N          -5.5077    5.0488   25.6192 N.ar    1  UNL1       -0.2426
     28 C          -4.5626    3.9613   26.0365 C.ar    1  UNL1        0.0946
     29 C          -0.2524    4.5067   22.4993 C.3     1  UNL1        0.1021
     30 N           0.2895    3.5271   21.5009 N.3     1  UNL1       -0.2621
     31 C           1.6855    2.9989   21.6501 C.3     1  UNL1        0.0901
     32 C           2.2274    2.0193   20.6516 C.3     1  UNL1        0.0900
     33 N           1.3732    1.5680   19.5041 N.3     1  UNL1       -0.2635
     34 C          -0.0227    2.0962   19.3550 C.3     1  UNL1        0.0980
     35 C          -0.5646    3.0758   20.3534 C.3     1  UNL1        0.1510
     36 C          -1.9605    3.6040   20.2043 C.2     1  UNL1        0.2386
     37 O          -2.1995    4.9001   19.4880 O.2     1  UNL1       -0.2736
     38 N          -3.1176    2.8362   20.7716 N.am    1  UNL1       -0.2961
     39 H          -2.9608    1.9856   21.2417 H       1  UNL1        0.1497
     40 C          -4.5135    3.3645   20.6225 C.3     1  UNL1        0.1939
     41 C          -5.4058    3.4753   21.8232 C.3     1  UNL1        0.4154
     42 F          -6.2979    3.5861   23.0239 F       1  UNL1       -0.1682
     43 F          -6.5248    3.9556   20.9474 F       1  UNL1       -0.1682
     44 F          -4.2867    2.9951   22.6990 F       1  UNL1       -0.1682
     45 C           1.9151    0.5884   18.5057 C.3     1  UNL1        0.1377
     46 C           2.9676   -0.3978   18.9177 C.ar    1  UNL1        0.1390
     47 C           2.7273   -1.8114   19.3580 C.ar    1  UNL1        0.0374
     48 C           4.0563   -2.4308   19.6742 C.ar    1  UNL1        0.0373
     49 C           4.4370   -3.8002   20.1535 C.ar    1  UNL1        0.0031
     50 C           5.8794   -4.1388   20.3878 C.ar    1  UNL1        0.0002
     51 C           6.9411   -3.1079   20.1429 C.ar    1  UNL1        0.0031
     52 C           6.5605   -1.7385   19.6636 C.ar    1  UNL1        0.0375
     53 C           5.1181   -1.3999   19.4292 C.ar    1  UNL1        0.1449
     54 O           4.4452   -0.1435   18.9617 O.2     1  UNL1       -0.4564
@<TRIPOS>BOND
     1     6     7    2
     2     7     8   am
     3    10     8    1
     4    10    11    1
     5    11    12   ar
     6    12    13   ar
     7    13    14   ar
     8    14    15   ar
     9    15    16   ar
    10    16    17    1
    11    17    18    1
    12    18    19    1
    13    19    20    1
    14     7     5    1
    15     5    22    1
    16    22    23    1
    17    23    24   ar
    18    24    25   ar
    19    25    26   ar
    20    26    27   ar
    21    27    28   ar
    22     5     4    1
    23     4     1    1
    24     1     2    1
    25     1    29    1
    26    29    30    1
    27    30    31    1
    28    31    32    1
    29    32    33    1
    30    33    45    1
    31    45    46    1
    32    46    47   ar
    33    47    48   ar
    34    48    49   ar
    35    49    50   ar
    36    50    51   ar
    37    51    52   ar
    38    52    53   ar
    39    53    54   ar
    40    33    34    1
    41    34    35    1
    42    35    36    1
    43    36    37    2
    44    36    38   am
    45    38    40    1
    46    40    41    1
    47    41    42    1
    48    41    43    1
    49    41    44    1
    50    19    10    1
    51    28    23   ar
    52    35    30    1
    53    16    11   ar
    54    54    46   ar
    55    53    48   ar
    56     8     9    1
    57    20    21    1
    58     2     3    1
    59    38    39    1
@<TRIPOS>MOLECULE
*****
 54 59 0 0 0
SMALL
GASTEIGER

@<TRIPOS>ATOM
      1 C           1.8807    0.2696   28.4912 C.3     1  UNL1        0.1269
      2 O           0.6327   -0.5468   28.3309 O.3     1  UNL1       -0.3830
      3 H           0.8307   -1.4791   28.5112 H       1  UNL1        0.2104
      4 C           1.8413    1.7521   28.2662 C.3     1  UNL1        0.0401
      5 C           2.2393    2.3196   26.9360 C.3     1  UNL1        0.0833
      6 O           0.1210    1.2737   25.8546 O.2     1  UNL1       -0.2751
      7 C           1.3951    2.0545   25.7246 C.2     1  UNL1        0.2226
      8 N           1.8252    2.5703   24.3834 N.am    1  UNL1       -0.2999
      9 H           2.6614    3.0828   24.2981 H       1  UNL1        0.1498
     10 C           0.9811    2.3053   23.1721 C.3     1  UNL1        0.1278
     11 C           1.3253    1.1723   22.2513 C.ar    1  UNL1        0.0320
     12 C           2.5136    0.3043   22.5419 C.ar    1  UNL1        0.0004
     13 C           2.8578   -0.8288   21.6211 C.ar    1  UNL1       -0.0001
     14 C           2.0137   -1.0938   20.4098 C.ar    1  UNL1        0.0031
     15 C           0.8254   -0.2257   20.1193 C.ar    1  UNL1        0.0366
     16 C           0.4812    0.9073   21.0400 C.ar    1  UNL1        0.1362
     17 O          -0.7071    1.7754   20.7494 O.3     1  UNL1       -0.4730
     18 C          -1.0513    2.9084   21.6702 C.3     1  UNL1        0.2364
     19 C          -0.2072    3.1734   22.8815 C.3     1  UNL1        0.1762
     20 O          -0.5514    4.3064   23.8022 O.3     1  UNL1       -0.3788
     21 H          -1.3410    4.7629   23.4720 H       1  UNL1        0.2106
     22 C           3.4813    3.1521   26.8170 C.3     1  UNL1        0.0371
     23 C           4.8107    2.4900   26.6069 C.ar    1  UNL1       -0.0025
     24 C           5.2382    2.0872   25.2267 C.ar    1  UNL1       -0.0011
     25 C           6.5677    1.4250   25.0166 C.ar    1  UNL1        0.0204
     26 C           7.4697    1.1657   26.1867 C.ar    1  UNL1        0.0989
     27 N           7.0422    1.5686   27.5669 N.ar    1  UNL1       -0.2426
     28 C           5.7128    2.2307   27.7770 C.ar    1  UNL1        0.0946
     29 C           3.1683   -0.3965   28.8766 C.3     1  UNL1        0.1021
     30 N           4.0501   -0.9925   27.8196 N.3     1  UNL1       -0.2621
     31 C           3.6017   -1.0050   26.3882 C.3     1  UNL1        0.0901
     32 C           4.4835   -1.6009   25.3312 C.3     1  UNL1        0.0900
     33 N           5.8138   -2.1844   25.7056 N.3     1  UNL1       -0.2635
     34 C           6.2621   -2.1719   27.1369 C.3     1  UNL1        0.0980
     35 C           5.3803   -1.5759   28.1940 C.3     1  UNL1        0.1510
     36 C           5.8287   -1.5634   29.6253 C.2     1  UNL1        0.2386
     37 O           5.9852   -0.2599   30.3509 O.2     1  UNL1       -0.2736
     38 N           6.1206   -2.8544   30.3311 N.am    1  UNL1       -0.2961
     39 H           6.0179   -3.7100   29.8549 H       1  UNL1        0.1497
     40 C           6.5690   -2.8419   31.7624 C.3     1  UNL1        0.1939
     41 C           7.9910   -3.1736   32.1059 C.3     1  UNL1        0.4154
     42 F           9.4130   -3.5053   32.4493 F       1  UNL1       -0.1682
     43 F           7.9938   -2.0891   33.1420 F       1  UNL1       -0.1682
     44 F           7.9882   -4.2582   31.0697 F       1  UNL1       -0.1682
     45 C           6.6956   -2.7803   24.6486 C.3     1  UNL1        0.1377
     46 C           6.1793   -2.9528   23.2508 C.ar    1  UNL1        0.1390
     47 C           6.6274   -2.1827   22.0441 C.ar    1  UNL1        0.0374
     48 C           5.8493   -2.6796   20.8619 C.ar    1  UNL1        0.0373
     49 C           5.8667   -2.2904   19.4133 C.ar    1  UNL1        0.0031
     50 C           4.9550   -2.9784   18.4409 C.ar    1  UNL1        0.0002
     51 C           4.0260   -4.0555   18.9170 C.ar    1  UNL1        0.0031
     52 C           4.0086   -4.4447   20.3655 C.ar    1  UNL1        0.0375
     53 C           4.9202   -3.7568   21.3379 C.ar    1  UNL1        0.1449
     54 O           5.1242   -3.9256   22.8144 O.2     1  UNL1       -0.4564
@<TRIPOS>BOND
     1     6     7    2
     2     7     8   am
     3    10     8    1
     4    10    11    1
     5    11    12   ar
     6    12    13   ar
     7    13    14   ar
     8    14    15   ar
     9    15    16   ar
    10    16    17    1
    11    17    18    1
    12    18    19    1
    13    19    20    1
    14     7     5    1
    15     5    22    1
    16    22    23    1
    17    23    24   ar
    18    24    25   ar
    19    25    26   ar
    20    26    27   ar
    21    27    28   ar
    22     5     4    1
    23     4     1    1
    24     1     2    1
    25     1    29    1
    26    29    30    1
    27    30    31    1
    28    31    32    1
    29    32    33    1
    30    33    45    1
    31    45    46    1
    32    46    47   ar
    33    47    48   ar
    34    48    49   ar
    35    49    50   ar
    36    50    51   ar
    37    51    52   ar
    38    52    53   ar
    39    53    54   ar
    40    33    34    1
    41    34    35    1
    42    35    36    1
    43    36    37    2
    44    36    38   am
    45    38    40    1
    46    40    41    1
    47    41    42    1
    48    41    43    1
    49    41    44    1
    50    19    10    1
    51    28    23   ar
    52    35    30    1
    53    16    11   ar
    54    54    46   ar
    55    53    48   ar
    56     8     9    1
    57    20    21    1
    58     2     3    1
    59    38    39    1
@<TRIPOS>MOLECULE
*****
 54 59 0 0 0
SMALL
GASTEIGER

@<TRIPOS>ATOM
      1 C           5.1306   -0.5377   29.1983 C.3     1  UNL1        0.1269
      2 O           3.8117   -1.0851   28.7393 O.3     1  UNL1       -0.3830
      3 H           3.1199   -0.4192   28.8766 H       1  UNL1        0.2104
      4 C           6.3690   -1.3774   29.0923 C.3     1  UNL1        0.0401
      5 C           6.8424   -1.8495   27.7495 C.3     1  UNL1        0.0833
      6 O           6.6630   -0.2199   25.7340 O.2     1  UNL1       -0.2751
      7 C           6.1396   -1.3957   26.5044 C.2     1  UNL1        0.2226
      8 N           4.9136   -2.1178   26.0297 N.am    1  UNL1       -0.2999
      9 H           4.5701   -2.8896   26.5353 H       1  UNL1        0.1498
     10 C           4.2108   -1.6641   24.7846 C.3     1  UNL1        0.1278
     11 C           4.5552   -2.2815   23.4617 C.ar    1  UNL1        0.0320
     12 C           5.6024   -3.3526   23.3838 C.ar    1  UNL1        0.0004
     13 C           5.9468   -3.9700   22.0609 C.ar    1  UNL1       -0.0001
     14 C           5.2441   -3.5163   20.8158 C.ar    1  UNL1        0.0031
     15 C           4.1969   -2.4452   20.8937 C.ar    1  UNL1        0.0366
     16 C           3.8525   -1.8278   22.2166 C.ar    1  UNL1        0.1362
     17 O           2.8053   -0.7566   22.2945 O.3     1  UNL1       -0.4730
     18 C           2.4608   -0.1392   23.6174 C.3     1  UNL1        0.2364
     19 C           3.1637   -0.5930   24.8625 C.3     1  UNL1        0.1762
     20 O           2.8192    0.0244   26.1855 O.3     1  UNL1       -0.3788
     21 H           2.1290    0.6942   26.0598 H       1  UNL1        0.2106
     22 C           8.0185   -2.7753   27.6518 C.3     1  UNL1        0.0371
     23 C           7.9189   -4.0311   26.8376 C.ar    1  UNL1       -0.0025
     24 C           6.9990   -5.1343   27.2699 C.ar    1  UNL1       -0.0011
     25 C           6.8994   -6.3901   26.4556 C.ar    1  UNL1        0.0204
     26 C           7.7196   -6.5427   25.2091 C.ar    1  UNL1        0.0989
     27 N           8.6395   -5.4396   24.7768 N.ar    1  UNL1       -0.2426
     28 C           8.7391   -4.1838   25.5910 C.ar    1  UNL1        0.0946
     29 C           5.2112    0.8495   29.7634 C.3     1  UNL1        0.1021
     30 N           5.3488    1.0496   31.2436 N.3     1  UNL1       -0.2621
     31 C           6.6922    1.3538   31.8377 C.3     1  UNL1        0.0901
     32 C           6.8297    1.5539   33.3179 C.3     1  UNL1        0.0900
     33 N           5.6238    1.4497   34.2040 N.3     1  UNL1       -0.2635
     34 C           4.2806    1.1455   33.6099 C.3     1  UNL1        0.0980
     35 C           4.1430    0.9454   32.1297 C.3     1  UNL1        0.1510
     36 C           2.7997    0.6412   31.5356 C.2     1  UNL1        0.2386
     37 O           2.3721   -0.7829   31.3381 O.2     1  UNL1       -0.2736
     38 N           1.8840    1.7612   31.1389 N.am    1  UNL1       -0.2961
     39 H           2.1647    2.6959   31.2685 H       1  UNL1        0.1497
     40 C           0.5407    1.4570   30.5448 C.3     1  UNL1        0.1939
     41 C           0.3844    1.3560   29.0564 C.3     1  UNL1        0.4154
     42 F           0.2281    1.2551   27.5680 F       1  UNL1       -0.1682
     43 F           0.3003   -0.1375   29.1665 F       1  UNL1       -0.1682
     44 F           0.4685    2.8496   28.9463 F       1  UNL1       -0.1682
     45 C           5.7614    1.6497   35.6843 C.3     1  UNL1        0.1377
     46 C           4.5387    1.6915   36.5522 C.ar    1  UNL1        0.1390
     47 C           3.6237    2.8667   36.7305 C.ar    1  UNL1        0.0374
     48 C           2.5359    2.4669   37.6828 C.ar    1  UNL1        0.0373
     49 C           1.3557    3.2142   38.2293 C.ar    1  UNL1        0.0031
     50 C           0.4181    2.5392   39.1861 C.ar    1  UNL1        0.0002
     51 C           0.6608    1.1169   39.5963 C.ar    1  UNL1        0.0031
     52 C           1.8410    0.3696   39.0498 C.ar    1  UNL1        0.0375
     53 C           2.7785    1.0446   38.0930 C.ar    1  UNL1        0.1449
     54 O           4.0163    0.5654   37.3943 O.2     1  UNL1       -0.4564
@<TRIPOS>BOND
     1     6     7    2
     2     7     8   am
     3    10     8    1
     4    10    11    1
     5    11    12   ar
     6    12    13   ar
     7    13    14   ar
     8    14    15   ar
     9    15    16   ar
    10    16    17    1
    11    17    18    1
    12    18    19    1
    13    19    20    1
    14     7     5    1
    15     5    22    1
    16    22    23    1
    17    23    24   ar
    18    24    25   ar
    19    25    26   ar
    20    26    27   ar
    21    27    28   ar
    22     5     4    1
    23     4     1    1
    24     1     2    1
    25     1    29    1
    26    29    30    1
    27    30    31    1
    28    31    32    1
    29    32    33    1
    30    33    45    1
    31    45    46    1
    32    46    47   ar
    33    47    48   ar
    34    48    49   ar
    35    49    50   ar
    36    50    51   ar
    37    51    52   ar
    38    52    53   ar
    39    53    54   ar
    40    33    34    1
    41    34    35    1
    42    35    36    1
    43    36    37    2
    44    36    38   am
    45    38    40    1
    46    40    41    1
    47    41    42    1
    48    41    43    1
    49    41    44    1
    50    19    10    1
    51    28    23   ar
    52    35    30    1
    53    16    11   ar
    54    54    46   ar
    55    53    48   ar
    56     8     9    1
    57    20    21    1
    58     2     3    1
    59    38    39    1
