@<TRIPOS>MOLECULE
*****
 32 36 0 0 0
SMALL
GASTEIGER

@<TRIPOS>ATOM
      1 C          -3.5313  -16.0044   22.3666 C.2     1  UNL1        0.2685
      2 O          -3.7522  -14.5274   22.5062 O.2     1  UNL1       -0.2682
      3 N          -4.2846  -16.9615   23.2420 N.am    1  UNL1       -0.2723
      4 C          -5.2588  -16.4416   24.2571 C.3     1  UNL1        0.0761
      5 C          -6.7299  -16.2396   24.0446 C.3     1  UNL1        0.0213
      6 C          -7.3134  -15.7056   25.3191 C.3     1  UNL1        0.0188
      7 C          -8.5831  -15.2507   25.9754 C.3     1  UNL1        0.0686
      8 N          -8.2574  -14.8414   27.3813 N.3     1  UNL1       -0.2975
      9 C          -6.7863  -15.0434   27.5938 C.3     1  UNL1        0.0686
     10 C          -6.2029  -15.5774   26.3193 C.3     1  UNL1        0.0188
     11 C          -4.9331  -16.0323   25.6630 C.3     1  UNL1        0.0213
     12 H          -8.7842  -15.4153   28.0397 H       1  UNL1        0.1232
     13 C           0.9587  -17.4730   20.0077 C.3     1  UNL1        0.1321
     14 N          -0.4932  -17.1993   20.2672 N.ar    1  UNL1       -0.3057
     15 C          -1.6220  -17.4491   19.3116 C.ar    1  UNL1        0.1787
     16 N          -2.8975  -17.0319   19.9817 N.ar    1  UNL1       -0.2192
     17 C          -2.5569  -16.5243   21.3514 C.ar    1  UNL1        0.1535
     18 C          -1.0709  -16.6277   21.5279 C.ar    1  UNL1        0.1012
     19 C          -4.0636  -18.4386   23.1023 C.3     1  UNL1        0.1205
     20 C          -4.8603  -19.2250   22.1040 C.ar    1  UNL1        0.0008
     21 C          -4.1616  -20.1244   21.1279 C.ar    1  UNL1       -0.0001
     22 C          -4.9584  -20.9108   20.1295 C.ar    1  UNL1        0.0325
     23 C          -6.4540  -20.7977   20.1073 C.ar    1  UNL1        0.1738
     24 F          -7.2508  -21.5841   19.1089 F       1  UNL1       -0.2010
     25 C          -7.1527  -19.8983   21.0834 C.ar    1  UNL1        0.1653
     26 C          -6.3559  -19.1119   22.0817 C.ar    1  UNL1        0.0366
     27 O          -8.6483  -19.7852   21.0611 O.3     1  UNL1       -0.4769
     28 C          -9.3833  -19.3186   22.2826 C.3     1  UNL1        0.1660
     29 C          -9.8124  -17.9101   22.5692 C.3     1  UNL1        0.0435
     30 C         -10.5125  -17.8996   23.8957 C.3     1  UNL1        0.0038
     31 C         -10.5162  -19.3016   24.4290 C.3     1  UNL1        0.0038
     32 C          -9.8183  -20.1786   23.4320 C.3     1  UNL1        0.0435
@<TRIPOS>BOND
     1    13    14    1
     2    14    15   ar
     3    15    16   ar
     4    16    17   ar
     5    17     1    1
     6     1     2    2
     7     1     3   am
     8     3    19    1
     9    19    20    1
    10    20    21   ar
    11    21    22   ar
    12    22    23   ar
    13    23    24    1
    14    23    25   ar
    15    25    27    1
    16    27    28    1
    17    28    29    1
    18    29    30    1
    19    30    31    1
    20    31    32    1
    21    25    26   ar
    22     4     3    1
    23     4     5    1
    24     6     5    1
    25     6     7    1
    26     7     8    1
    27     8     9    1
    28    10     9    1
    29    10    11    1
    30    17    18   ar
    31    18    14   ar
    32    26    20   ar
    33    11     4    1
    34    32    28    1
    35    10     6    1
    36     8    12    1
@<TRIPOS>MOLECULE
*****
 32 36 0 0 0
SMALL
GASTEIGER

@<TRIPOS>ATOM
      1 C         -10.6599  -19.2111   22.6303 C.2     1  UNL1        0.2685
      2 O         -10.5933  -20.5774   22.0149 O.2     1  UNL1       -0.2682
      3 N          -9.4584  -18.3138   22.5962 N.am    1  UNL1       -0.2723
      4 C          -8.1903  -18.7827   21.9468 C.3     1  UNL1        0.0761
      5 C          -7.3496  -19.9433   22.3899 C.3     1  UNL1        0.0213
      6 C          -6.1799  -20.0514   21.4571 C.3     1  UNL1        0.0188
      7 C          -4.9374  -20.8354   21.1545 C.3     1  UNL1        0.0686
      8 N          -4.2873  -20.2262   19.9478 N.3     1  UNL1       -0.2975
      9 C          -5.1280  -19.0656   19.5046 C.3     1  UNL1        0.0686
     10 C          -6.2977  -18.9576   20.4374 C.3     1  UNL1        0.0188
     11 C          -7.5401  -18.1735   20.7400 C.3     1  UNL1        0.0213
     12 H          -4.2294  -20.9173   19.1998 H       1  UNL1        0.1232
     13 C         -14.4890  -18.4174   26.1784 C.3     1  UNL1        0.1321
     14 N         -13.6881  -18.3773   24.9106 N.ar    1  UNL1       -0.3057
     15 C         -14.0710  -17.6638   23.6481 C.ar    1  UNL1        0.1787
     16 N         -12.9832  -17.8893   22.6401 N.ar    1  UNL1       -0.2192
     17 C         -11.9281  -18.7421   23.2798 C.ar    1  UNL1        0.1535
     18 C         -12.3637  -19.0438   24.6831 C.ar    1  UNL1        0.1012
     19 C          -9.5251  -16.9474   23.2117 C.3     1  UNL1        0.1205
     20 C          -8.3652  -16.4258   24.0071 C.ar    1  UNL1        0.0008
     21 C          -8.4906  -16.2549   25.4921 C.ar    1  UNL1       -0.0001
     22 C          -7.3307  -15.7333   26.2876 C.ar    1  UNL1        0.0325
     23 C          -6.0456  -15.3827   25.5980 C.ar    1  UNL1        0.1738
     24 F          -4.8857  -14.8610   26.3934 F       1  UNL1       -0.2010
     25 C          -5.9203  -15.5536   24.1131 C.ar    1  UNL1        0.1653
     26 C          -7.0801  -16.0752   23.3176 C.ar    1  UNL1        0.0366
     27 O          -4.6351  -15.2029   23.4235 O.3     1  UNL1       -0.4769
     28 C          -3.7290  -16.2906   22.9278 C.3     1  UNL1        0.1660
     29 C          -2.5793  -16.1169   21.9801 C.3     1  UNL1        0.0435
     30 C          -1.9532  -17.4620   21.7593 C.3     1  UNL1        0.0038
     31 C          -2.7159  -18.4670   22.5705 C.3     1  UNL1        0.0038
     32 C          -3.8134  -17.7431   23.2927 C.3     1  UNL1        0.0435
@<TRIPOS>BOND
     1    13    14    1
     2    14    15   ar
     3    15    16   ar
     4    16    17   ar
     5    17     1    1
     6     1     2    2
     7     1     3   am
     8     3    19    1
     9    19    20    1
    10    20    21   ar
    11    21    22   ar
    12    22    23   ar
    13    23    24    1
    14    23    25   ar
    15    25    27    1
    16    27    28    1
    17    28    29    1
    18    29    30    1
    19    30    31    1
    20    31    32    1
    21    25    26   ar
    22     4     3    1
    23     4     5    1
    24     6     5    1
    25     6     7    1
    26     7     8    1
    27     8     9    1
    28    10     9    1
    29    10    11    1
    30    17    18   ar
    31    18    14   ar
    32    26    20   ar
    33    11     4    1
    34    32    28    1
    35    10     6    1
    36     8    12    1
@<TRIPOS>MOLECULE
*****
 32 36 0 0 0
SMALL
GASTEIGER

@<TRIPOS>ATOM
      1 C         -16.9240   -2.8099   18.7238 C.2     1  UNL1        0.2685
      2 O         -17.9574   -3.6479   18.0311 O.2     1  UNL1       -0.2682
      3 N         -15.6965   -3.4544   19.2964 N.am    1  UNL1       -0.2723
      4 C         -15.5024   -4.9368   19.1764 C.3     1  UNL1        0.0761
      5 C         -16.4160   -5.9929   19.7242 C.3     1  UNL1        0.0213
      6 C         -15.8388   -7.3324   19.3738 C.3     1  UNL1        0.0188
      7 C         -16.0468   -8.8129   19.4959 C.3     1  UNL1        0.0686
      8 N         -14.9050   -9.4996   18.8070 N.3     1  UNL1       -0.2975
      9 C         -13.9913   -8.4436   18.2592 C.3     1  UNL1        0.0686
     10 C         -14.5685   -7.1041   18.6095 C.3     1  UNL1        0.0188
     11 C         -14.3605   -5.6237   18.4875 C.3     1  UNL1        0.0213
     12 H         -15.2583  -10.0801   18.0464 H       1  UNL1        0.1232
     13 C         -18.0718    1.9633   20.6680 C.3     1  UNL1        0.1321
     14 N         -17.6458    0.8666   19.7374 N.ar    1  UNL1       -0.3057
     15 C         -17.1883    1.0414   18.3197 C.ar    1  UNL1        0.1787
     16 N         -16.8622   -0.3146   17.7674 N.ar    1  UNL1       -0.2192
     17 C         -17.1182   -1.3273   18.8438 C.ar    1  UNL1        0.1535
     18 C         -17.6025   -0.5973   20.0614 C.ar    1  UNL1        0.1012
     19 C         -14.6631   -2.6162   19.9891 C.3     1  UNL1        0.1205
     20 C         -13.4960   -2.0754   19.2176 C.ar    1  UNL1        0.0008
     21 C         -13.5066   -0.6534   18.7402 C.ar    1  UNL1       -0.0001
     22 C         -12.3394   -0.1126   17.9686 C.ar    1  UNL1        0.0325
     23 C         -11.1618   -0.9938   17.6745 C.ar    1  UNL1        0.1738
     24 F          -9.9945   -0.4530   16.9029 F       1  UNL1       -0.2010
     25 C         -11.1512   -2.4157   18.1518 C.ar    1  UNL1        0.1653
     26 C         -12.3183   -2.9566   18.9234 C.ar    1  UNL1        0.0366
     27 O          -9.9735   -3.2970   17.8576 O.3     1  UNL1       -0.4769
     28 C         -10.0875   -4.7829   18.0283 C.3     1  UNL1        0.1660
     29 C          -9.5827   -5.5775   19.1962 C.3     1  UNL1        0.0435
     30 C          -9.9095   -7.0207   18.9508 C.3     1  UNL1        0.0038
     31 C         -10.6163   -7.1181   17.6314 C.3     1  UNL1        0.0038
     32 C         -10.7263   -5.7350   17.0612 C.3     1  UNL1        0.0435
@<TRIPOS>BOND
     1    13    14    1
     2    14    15   ar
     3    15    16   ar
     4    16    17   ar
     5    17     1    1
     6     1     2    2
     7     1     3   am
     8     3    19    1
     9    19    20    1
    10    20    21   ar
    11    21    22   ar
    12    22    23   ar
    13    23    24    1
    14    23    25   ar
    15    25    27    1
    16    27    28    1
    17    28    29    1
    18    29    30    1
    19    30    31    1
    20    31    32    1
    21    25    26   ar
    22     4     3    1
    23     4     5    1
    24     6     5    1
    25     6     7    1
    26     7     8    1
    27     8     9    1
    28    10     9    1
    29    10    11    1
    30    17    18   ar
    31    18    14   ar
    32    26    20   ar
    33    11     4    1
    34    32    28    1
    35    10     6    1
    36     8    12    1
@<TRIPOS>MOLECULE
*****
 32 36 0 0 0
SMALL
GASTEIGER

@<TRIPOS>ATOM
      1 C         -18.0133   -4.1892   18.9923 C.2     1  UNL1        0.2685
      2 O         -19.0559   -4.9570   18.2350 O.2     1  UNL1       -0.2682
      3 N         -16.7906   -4.8903   19.5054 N.am    1  UNL1       -0.2723
      4 C         -16.6103   -6.3592   19.2612 C.3     1  UNL1        0.0761
      5 C         -15.5776   -6.9848   18.3711 C.3     1  UNL1        0.0213
      6 C         -15.7602   -8.4728   18.4240 C.3     1  UNL1        0.0188
      7 C         -15.2347   -9.7790   17.9065 C.3     1  UNL1        0.0686
      8 N         -16.0555  -10.8802   18.5095 N.3     1  UNL1       -0.2975
      9 C         -17.0881  -10.2546   19.3996 C.3     1  UNL1        0.0686
     10 C         -16.9056   -8.7667   19.3467 C.3     1  UNL1        0.0188
     11 C         -17.4311   -7.4605   19.8642 C.3     1  UNL1        0.0213
     12 H         -15.4564  -11.4989   19.0561 H       1  UNL1        0.1232
     13 C         -18.2199    1.0355   18.2570 C.3     1  UNL1        0.1321
     14 N         -18.2886   -0.3187   18.8986 N.ar    1  UNL1       -0.3057
     15 C         -18.6536   -0.6007   20.3258 C.ar    1  UNL1        0.1787
     16 N         -18.5950   -2.0849   20.5347 N.ar    1  UNL1       -0.2192
     17 C         -18.1937   -2.7202   19.2365 C.ar    1  UNL1        0.1535
     18 C         -18.0043   -1.6286   18.2253 C.ar    1  UNL1        0.1012
     19 C         -15.7480   -4.1223   20.2627 C.3     1  UNL1        0.1205
     20 C         -14.6987   -3.3496   19.5199 C.ar    1  UNL1        0.0008
     21 C         -14.6953   -1.8504   19.5698 C.ar    1  UNL1       -0.0001
     22 C         -13.6459   -1.0776   18.8269 C.ar    1  UNL1        0.0325
     23 C         -12.6000   -1.8042   18.0344 C.ar    1  UNL1        0.1738
     24 F         -11.5505   -1.0314   17.2916 F       1  UNL1       -0.2010
     25 C         -12.6034   -3.3033   17.9846 C.ar    1  UNL1        0.1653
     26 C         -13.6527   -4.0760   18.7273 C.ar    1  UNL1        0.0366
     27 O         -11.5574   -4.0298   17.1919 O.3     1  UNL1       -0.4769
     28 C         -10.8840   -5.2391   17.7698 C.3     1  UNL1        0.1660
     29 C          -9.8761   -5.2407   18.8809 C.3     1  UNL1        0.0435
     30 C          -9.4695   -6.6617   19.1359 C.3     1  UNL1        0.0038
     31 C         -10.2259   -7.5385   18.1825 C.3     1  UNL1        0.0038
     32 C         -11.1001   -6.6593   17.3382 C.3     1  UNL1        0.0435
@<TRIPOS>BOND
     1    13    14    1
     2    14    15   ar
     3    15    16   ar
     4    16    17   ar
     5    17     1    1
     6     1     2    2
     7     1     3   am
     8     3    19    1
     9    19    20    1
    10    20    21   ar
    11    21    22   ar
    12    22    23   ar
    13    23    24    1
    14    23    25   ar
    15    25    27    1
    16    27    28    1
    17    28    29    1
    18    29    30    1
    19    30    31    1
    20    31    32    1
    21    25    26   ar
    22     4     3    1
    23     4     5    1
    24     6     5    1
    25     6     7    1
    26     7     8    1
    27     8     9    1
    28    10     9    1
    29    10    11    1
    30    17    18   ar
    31    18    14   ar
    32    26    20   ar
    33    11     4    1
    34    32    28    1
    35    10     6    1
    36     8    12    1
@<TRIPOS>MOLECULE
*****
 32 36 0 0 0
SMALL
GASTEIGER

@<TRIPOS>ATOM
      1 C           7.2590   -4.9124   24.2738 C.2     1  UNL1        0.2685
      2 O           7.6255   -5.9529   23.2574 O.2     1  UNL1       -0.2682
      3 N           6.3952   -3.7510   23.8803 N.am    1  UNL1       -0.2723
      4 C           5.8978   -3.6300   22.4704 C.3     1  UNL1        0.0761
      5 C           4.5156   -3.9620   21.9914 C.3     1  UNL1        0.0213
      6 C           4.4589   -3.6930   20.5169 C.3     1  UNL1        0.0188
      7 C           3.5696   -3.7319   19.3096 C.3     1  UNL1        0.0686
      8 N           4.3671   -3.2577   18.1310 N.3     1  UNL1       -0.2975
      9 C           5.7493   -2.9257   18.6098 C.3     1  UNL1        0.0686
     10 C           5.8060   -3.1947   20.0844 C.3     1  UNL1        0.0188
     11 C           6.6954   -3.1558   21.2917 C.3     1  UNL1        0.0213
     12 H           3.9311   -2.4275   17.7295 H       1  UNL1        0.1232
     13 C           7.5737   -6.1387   29.4000 C.3     1  UNL1        0.1321
     14 N           7.9011   -5.5971   28.0400 N.ar    1  UNL1       -0.3057
     15 C           9.1424   -4.8424   27.6669 C.ar    1  UNL1        0.1787
     16 N           9.0530   -4.4941   26.2107 N.ar    1  UNL1       -0.2192
     17 C           7.7564   -5.0335   25.6838 C.ar    1  UNL1        0.1535
     18 C           7.0444   -5.7152   26.8144 C.ar    1  UNL1        0.1012
     19 C           6.0287   -2.7105   24.8968 C.3     1  UNL1        0.1205
     20 C           5.6936   -1.3166   24.4558 C.ar    1  UNL1        0.0008
     21 C           6.7833   -0.2983   24.2955 C.ar    1  UNL1       -0.0001
     22 C           6.4482    1.0958   23.8545 C.ar    1  UNL1        0.0325
     23 C           5.0233    1.4714   23.5738 C.ar    1  UNL1        0.1738
     24 F           4.6882    2.8654   23.1328 F       1  UNL1       -0.2010
     25 C           3.9337    0.4531   23.7341 C.ar    1  UNL1        0.1653
     26 C           4.2688   -0.9409   24.1751 C.ar    1  UNL1        0.0366
     27 O           2.5089    0.8288   23.4535 O.3     1  UNL1       -0.4769
     28 C           1.8619    0.4084   22.1671 C.3     1  UNL1        0.1660
     29 C           0.5860    0.9577   21.6011 C.3     1  UNL1        0.0435
     30 C           0.3128    0.2538   20.3051 C.3     1  UNL1        0.0038
     31 C           1.4199   -0.7306   20.0700 C.3     1  UNL1        0.0038
     32 C           2.3774   -0.6350   21.2207 C.3     1  UNL1        0.0435
@<TRIPOS>BOND
     1    13    14    1
     2    14    15   ar
     3    15    16   ar
     4    16    17   ar
     5    17     1    1
     6     1     2    2
     7     1     3   am
     8     3    19    1
     9    19    20    1
    10    20    21   ar
    11    21    22   ar
    12    22    23   ar
    13    23    24    1
    14    23    25   ar
    15    25    27    1
    16    27    28    1
    17    28    29    1
    18    29    30    1
    19    30    31    1
    20    31    32    1
    21    25    26   ar
    22     4     3    1
    23     4     5    1
    24     6     5    1
    25     6     7    1
    26     7     8    1
    27     8     9    1
    28    10     9    1
    29    10    11    1
    30    17    18   ar
    31    18    14   ar
    32    26    20   ar
    33    11     4    1
    34    32    28    1
    35    10     6    1
    36     8    12    1
@<TRIPOS>MOLECULE
*****
 32 36 0 0 0
SMALL
GASTEIGER

@<TRIPOS>ATOM
      1 C          -1.1830    3.1752   21.6386 C.2     1  UNL1        0.2685
      2 O          -1.1512    4.0274   22.8725 O.2     1  UNL1       -0.2682
      3 N          -0.1710    2.0833   21.4549 N.am    1  UNL1       -0.2723
      4 C           0.8727    1.8437   22.5052 C.3     1  UNL1        0.0761
      5 C           0.6870    1.0585   23.7698 C.3     1  UNL1        0.0213
      6 C           1.9849    1.0766   24.5215 C.3     1  UNL1        0.0188
      7 C           2.6723    0.6026   25.7676 C.3     1  UNL1        0.0686
      8 N           4.0850    1.1060   25.7378 N.3     1  UNL1       -0.2975
      9 C           4.2707    1.8912   24.4732 C.3     1  UNL1        0.0686
     10 C           2.9728    1.8730   23.7215 C.3     1  UNL1        0.0188
     11 C           2.2854    2.3471   22.4754 C.3     1  UNL1        0.0213
     12 H           4.7334    0.3188   25.7548 H       1  UNL1        0.1232
     13 C          -5.8198    3.3769   19.1208 C.3     1  UNL1        0.1321
     14 N          -4.3581    3.5076   19.4310 N.ar    1  UNL1       -0.3057
     15 C          -3.3079    4.0598   18.5133 C.ar    1  UNL1        0.1787
     16 N          -1.9907    4.0025   19.2286 N.ar    1  UNL1       -0.2192
     17 C          -2.2268    3.4149   20.5883 C.ar    1  UNL1        0.1535
     18 C          -3.6899    3.1090   20.7134 C.ar    1  UNL1        0.1012
     19 C          -0.2028    1.2311   20.2209 C.3     1  UNL1        0.1205
     20 C           1.0663    0.6346   19.6885 C.ar    1  UNL1        0.0008
     21 C           1.8471    1.3549   18.6295 C.ar    1  UNL1       -0.0001
     22 C           3.1163    0.7583   18.0972 C.ar    1  UNL1        0.0325
     23 C           3.6046   -0.5586   18.6240 C.ar    1  UNL1        0.1738
     24 F           4.8738   -1.1552   18.0916 F       1  UNL1       -0.2010
     25 C           2.8238   -1.2788   19.6829 C.ar    1  UNL1        0.1653
     26 C           1.5547   -0.6823   20.2153 C.ar    1  UNL1        0.0366
     27 O           3.3122   -2.5957   20.2097 O.3     1  UNL1       -0.4769
     28 C           3.9625   -2.6689   21.5594 C.3     1  UNL1        0.1660
     29 C           3.8302   -1.6560   22.6579 C.3     1  UNL1        0.0435
     30 C           4.6452   -2.1289   23.8250 C.3     1  UNL1        0.0038
     31 C           5.2812   -3.4340   23.4479 C.3     1  UNL1        0.0038
     32 C           4.8592   -3.7677   22.0476 C.3     1  UNL1        0.0435
@<TRIPOS>BOND
     1    13    14    1
     2    14    15   ar
     3    15    16   ar
     4    16    17   ar
     5    17     1    1
     6     1     2    2
     7     1     3   am
     8     3    19    1
     9    19    20    1
    10    20    21   ar
    11    21    22   ar
    12    22    23   ar
    13    23    24    1
    14    23    25   ar
    15    25    27    1
    16    27    28    1
    17    28    29    1
    18    29    30    1
    19    30    31    1
    20    31    32    1
    21    25    26   ar
    22     4     3    1
    23     4     5    1
    24     6     5    1
    25     6     7    1
    26     7     8    1
    27     8     9    1
    28    10     9    1
    29    10    11    1
    30    17    18   ar
    31    18    14   ar
    32    26    20   ar
    33    11     4    1
    34    32    28    1
    35    10     6    1
    36     8    12    1
@<TRIPOS>MOLECULE
*****
 32 36 0 0 0
SMALL
GASTEIGER

@<TRIPOS>ATOM
      1 C          -9.2734  -17.4825   21.6468 C.2     1  UNL1        0.2685
      2 O          -9.6658  -16.0351   21.6756 O.2     1  UNL1       -0.2682
      3 N          -8.4410  -18.0561   22.7549 N.am    1  UNL1       -0.2723
      4 C          -8.0009  -17.1823   23.8918 C.3     1  UNL1        0.0761
      5 C          -6.6756  -16.4897   24.0098 C.3     1  UNL1        0.0213
      6 C          -6.6644  -15.7269   25.3013 C.3     1  UNL1        0.0188
      7 C          -5.8385  -14.8275   26.1724 C.3     1  UNL1        0.0686
      8 N          -6.6465  -14.4928   27.3910 N.3     1  UNL1       -0.2975
      9 C          -7.9718  -15.1853   27.2731 C.3     1  UNL1        0.0686
     10 C          -7.9829  -15.9481   25.9816 C.3     1  UNL1        0.0188
     11 C          -8.8089  -16.8475   25.1105 C.3     1  UNL1        0.0213
     12 H          -6.7868  -13.4840   27.4469 H       1  UNL1        0.1232
     13 C          -9.1904  -20.7873   17.5294 C.3     1  UNL1        0.1321
     14 N          -9.6754  -19.8754   18.6173 N.ar    1  UNL1       -0.3057
     15 C         -11.1060  -19.5268   18.9030 C.ar    1  UNL1        0.1787
     16 N         -11.1296  -18.5880   20.0727 N.ar    1  UNL1       -0.2192
     17 C          -9.7136  -18.3564   20.5098 C.ar    1  UNL1        0.1535
     18 C          -8.8148  -19.1521   19.6103 C.ar    1  UNL1        0.1012
     19 C          -8.0486  -19.5037   22.7261 C.3     1  UNL1        0.1205
     20 C          -6.8155  -19.9318   21.9871 C.ar    1  UNL1        0.0008
     21 C          -6.9359  -20.7743   20.7519 C.ar    1  UNL1       -0.0001
     22 C          -5.7027  -21.2024   20.0129 C.ar    1  UNL1        0.0325
     23 C          -4.3492  -20.7881   20.5092 C.ar    1  UNL1        0.1738
     24 F          -3.1160  -21.2162   19.7702 F       1  UNL1       -0.2010
     25 C          -4.2288  -19.9456   21.7444 C.ar    1  UNL1        0.1653
     26 C          -5.4620  -19.5175   22.4834 C.ar    1  UNL1        0.0366
     27 O          -2.8753  -19.5313   22.2407 O.3     1  UNL1       -0.4769
     28 C          -2.2271  -18.2899   21.7032 C.3     1  UNL1        0.1660
     29 C          -1.2502  -18.2267   20.5666 C.3     1  UNL1        0.0435
     30 C          -0.8614  -16.7916   20.3689 C.3     1  UNL1        0.0038
     31 C          -1.5979  -15.9678   21.3832 C.3     1  UNL1        0.0038
     32 C          -2.4420  -16.8938   22.2079 C.3     1  UNL1        0.0435
@<TRIPOS>BOND
     1    13    14    1
     2    14    15   ar
     3    15    16   ar
     4    16    17   ar
     5    17     1    1
     6     1     2    2
     7     1     3   am
     8     3    19    1
     9    19    20    1
    10    20    21   ar
    11    21    22   ar
    12    22    23   ar
    13    23    24    1
    14    23    25   ar
    15    25    27    1
    16    27    28    1
    17    28    29    1
    18    29    30    1
    19    30    31    1
    20    31    32    1
    21    25    26   ar
    22     4     3    1
    23     4     5    1
    24     6     5    1
    25     6     7    1
    26     7     8    1
    27     8     9    1
    28    10     9    1
    29    10    11    1
    30    17    18   ar
    31    18    14   ar
    32    26    20   ar
    33    11     4    1
    34    32    28    1
    35    10     6    1
    36     8    12    1
@<TRIPOS>MOLECULE
*****
 32 36 0 0 0
SMALL
GASTEIGER

@<TRIPOS>ATOM
      1 C           3.5546   -0.1277   31.9948 C.2     1  UNL1        0.2685
      2 O           3.0202   -1.3850   31.3754 O.2     1  UNL1       -0.2682
      3 N           3.1828    1.2076   31.4212 N.am    1  UNL1       -0.2723
      4 C           2.2767    1.2855   30.2285 C.3     1  UNL1        0.0761
      5 C           2.7109    1.3515   28.7942 C.3     1  UNL1        0.0213
      6 C           1.4798    1.4179   27.9397 C.3     1  UNL1        0.0188
      7 C           0.9874    1.4998   26.5252 C.3     1  UNL1        0.0686
      8 N          -0.5121    1.5253   26.5573 N.3     1  UNL1       -0.2975
      9 C          -0.9463    1.4593   27.9915 C.3     1  UNL1        0.0686
     10 C           0.2848    1.3929   28.8460 C.3     1  UNL1        0.0188
     11 C           0.7772    1.3111   30.2604 C.3     1  UNL1        0.0213
     12 H          -0.8829    0.7243   26.0461 H       1  UNL1        0.1232
     13 C           7.8728   -0.0722   35.0329 C.3     1  UNL1        0.1321
     14 N           6.4455   -0.1802   34.5841 N.ar    1  UNL1       -0.3057
     15 C           5.2648   -0.4711   35.4621 C.ar    1  UNL1        0.1787
     16 N           4.0381   -0.4869   34.5990 N.ar    1  UNL1       -0.2192
     17 C           4.4607   -0.2057   33.1876 C.ar    1  UNL1        0.1535
     18 C           5.9486   -0.0161   33.1783 C.ar    1  UNL1        0.1012
     19 C           3.7172    2.4649   32.0406 C.3     1  UNL1        0.1205
     20 C           2.9665    3.1289   33.1566 C.ar    1  UNL1        0.0008
     21 C           1.7830    3.9985   32.8511 C.ar    1  UNL1       -0.0001
     22 C           1.0322    4.6626   33.9672 C.ar    1  UNL1        0.0325
     23 C           1.4650    4.4569   35.3886 C.ar    1  UNL1        0.1738
     24 F           0.7142    5.1210   36.5047 F       1  UNL1       -0.2010
     25 C           2.6484    3.5874   35.6940 C.ar    1  UNL1        0.1653
     26 C           3.3992    2.9234   34.5781 C.ar    1  UNL1        0.0366
     27 O           3.0812    3.3818   37.1155 O.3     1  UNL1       -0.4769
     28 C           2.3144    2.4491   38.0054 C.3     1  UNL1        0.1660
     29 C           1.0817    2.7917   38.7886 C.3     1  UNL1        0.0435
     30 C           0.6511    1.5643   39.5357 C.3     1  UNL1        0.0038
     31 C           1.6175    0.4631   39.2142 C.3     1  UNL1        0.0038
     32 C           2.6455    1.0099   38.2684 C.3     1  UNL1        0.0435
@<TRIPOS>BOND
     1    13    14    1
     2    14    15   ar
     3    15    16   ar
     4    16    17   ar
     5    17     1    1
     6     1     2    2
     7     1     3   am
     8     3    19    1
     9    19    20    1
    10    20    21   ar
    11    21    22   ar
    12    22    23   ar
    13    23    24    1
    14    23    25   ar
    15    25    27    1
    16    27    28    1
    17    28    29    1
    18    29    30    1
    19    30    31    1
    20    31    32    1
    21    25    26   ar
    22     4     3    1
    23     4     5    1
    24     6     5    1
    25     6     7    1
    26     7     8    1
    27     8     9    1
    28    10     9    1
    29    10    11    1
    30    17    18   ar
    31    18    14   ar
    32    26    20   ar
    33    11     4    1
    34    32    28    1
    35    10     6    1
    36     8    12    1
@<TRIPOS>MOLECULE
*****
 32 36 0 0 0
SMALL
GASTEIGER

@<TRIPOS>ATOM
      1 C           6.3000   -3.0612   25.0688 C.2     1  UNL1        0.2685
      2 O           6.5474   -4.4925   24.6943 O.2     1  UNL1       -0.2682
      3 N           5.7622   -2.1015   24.0492 N.am    1  UNL1       -0.2723
      4 C           5.4717   -2.5729   22.6553 C.3     1  UNL1        0.0761
      5 C           4.3959   -3.5397   22.2576 C.3     1  UNL1        0.0213
      6 C           4.4653   -3.7247   20.7707 C.3     1  UNL1        0.0188
      7 C           3.8434   -4.4365   19.6060 C.3     1  UNL1        0.0686
      8 N           4.5777   -4.0240   18.3648 N.3     1  UNL1       -0.2975
      9 C           5.6534   -3.0572   18.7624 C.3     1  UNL1        0.0686
     10 C           5.5840   -2.8722   20.2493 C.3     1  UNL1        0.0188
     11 C           6.2060   -2.1604   21.4140 C.3     1  UNL1        0.0213
     12 H           3.9328   -3.5758   17.7140 H       1  UNL1        0.1232
     13 C           8.8500   -1.3183   29.3514 C.3     1  UNL1        0.1321
     14 N           7.7626   -1.7887   28.4313 N.ar    1  UNL1       -0.3057
     15 C           6.3128   -1.9401   28.7847 C.ar    1  UNL1        0.1787
     16 N           5.5884   -2.4352   27.5681 N.ar    1  UNL1       -0.2192
     17 C           6.5905   -2.5898   26.4629 C.ar    1  UNL1        0.1535
     18 C           7.9343   -2.1903   26.9963 C.ar    1  UNL1        0.1012
     19 C           5.5148   -0.6701   24.4238 C.3     1  UNL1        0.1205
     20 C           4.1155   -0.1302   24.4399 C.ar    1  UNL1        0.0008
     21 C           3.4756    0.2561   25.7404 C.ar    1  UNL1       -0.0001
     22 C           2.0761    0.7960   25.7565 C.ar    1  UNL1        0.0325
     23 C           1.3167    0.9495   24.4721 C.ar    1  UNL1        0.1738
     24 F          -0.0827    1.4894   24.4882 F       1  UNL1       -0.2010
     25 C           1.9566    0.5632   23.1717 C.ar    1  UNL1        0.1653
     26 C           3.3560    0.0233   23.1555 C.ar    1  UNL1        0.0366
     27 O           1.1971    0.7167   21.8872 O.3     1  UNL1       -0.4769
     28 C           1.8936    0.5099   20.5749 C.3     1  UNL1        0.1660
     29 C           2.2173   -0.8135   19.9474 C.3     1  UNL1        0.0435
     30 C           2.9124   -0.5511   18.6444 C.3     1  UNL1        0.0038
     31 C           3.0184    0.9345   18.4665 C.3     1  UNL1        0.0038
     32 C           2.3887    1.5903   19.6597 C.3     1  UNL1        0.0435
@<TRIPOS>BOND
     1    13    14    1
     2    14    15   ar
     3    15    16   ar
     4    16    17   ar
     5    17     1    1
     6     1     2    2
     7     1     3   am
     8     3    19    1
     9    19    20    1
    10    20    21   ar
    11    21    22   ar
    12    22    23   ar
    13    23    24    1
    14    23    25   ar
    15    25    27    1
    16    27    28    1
    17    28    29    1
    18    29    30    1
    19    30    31    1
    20    31    32    1
    21    25    26   ar
    22     4     3    1
    23     4     5    1
    24     6     5    1
    25     6     7    1
    26     7     8    1
    27     8     9    1
    28    10     9    1
    29    10    11    1
    30    17    18   ar
    31    18    14   ar
    32    26    20   ar
    33    11     4    1
    34    32    28    1
    35    10     6    1
    36     8    12    1
