@<TRIPOS>MOLECULE
*****
 39 43 0 0 0
SMALL
GASTEIGER

@<TRIPOS>ATOM
      1 C           4.3231   -1.5574   24.2512 C.3     1  UNL1        0.1522
      2 C           3.5022   -1.3488   23.0132 C.3     1  UNL1        0.0313
      3 C           4.0700   -2.2162   21.9290 C.3     1  UNL1        0.0264
      4 C           5.2417   -2.9608   22.4970 C.3     1  UNL1        0.0942
      5 N           5.3981   -2.5537   23.9322 N.am    1  UNL1       -0.2713
      6 C           6.4456   -3.0547   24.8817 C.2     1  UNL1        0.2509
      7 O           6.4777   -2.5542   26.2953 O.2     1  UNL1       -0.2727
      8 O           4.4474    0.5635   25.7467 O.2     1  UNL1       -0.2730
      9 C           4.1069   -0.8873   25.5757 C.2     1  UNL1        0.2442
     10 N           3.5501   -1.6680   26.7291 N.am    1  UNL1       -0.2826
     11 H           3.3266   -2.6202   26.6169 H       1  UNL1        0.1549
     12 C           3.3338   -0.9979   28.0536 C.ar    1  UNL1        0.0505
     13 C           1.9513   -0.5950   28.4735 C.ar    1  UNL1        0.0178
     14 C           1.7351    0.0751   29.7979 C.ar    1  UNL1        0.0388
     15 C           2.9014    0.3422   30.7026 C.ar    1  UNL1        0.1454
     16 C           4.2839   -0.0606   30.2827 C.ar    1  UNL1        0.0388
     17 C           4.5001   -0.7307   28.9583 C.ar    1  UNL1        0.0178
     18 O           2.6851    1.0123   32.0271 O.3     1  UNL1       -0.4535
     19 C           3.5063    0.6076   33.2153 C.ar    1  UNL1        0.1454
     20 C           3.9324    1.6381   34.2186 C.ar    1  UNL1        0.0398
     21 C           4.7535    1.2333   35.4069 C.ar    1  UNL1        0.0328
     22 C           5.1485   -0.2019   35.5918 C.ar    1  UNL1        0.1403
     23 F           5.9697   -0.6066   36.7800 F       1  UNL1       -0.2042
     24 C           4.7224   -1.2323   34.5885 C.ar    1  UNL1        0.0328
     25 C           3.9013   -0.8276   33.4002 C.ar    1  UNL1        0.0398
     26 C           3.5562   -2.3206   20.5236 C.3     1  UNL1        0.0281
     27 C           2.8354   -1.1620   19.9005 C.ar    1  UNL1       -0.0220
     28 C           3.5362   -0.2948   18.8971 C.ar    1  UNL1       -0.0020
     29 C           2.8155    0.8638   18.2740 C.ar    1  UNL1        0.0293
     30 C           1.3940    1.1551   18.6543 C.ar    1  UNL1        0.1401
     31 F           0.6733    2.3137   18.0312 F       1  UNL1       -0.2042
     32 C           0.6933    0.2878   19.6578 C.ar    1  UNL1        0.0293
     33 C           1.4140   -0.8707   20.2808 C.ar    1  UNL1       -0.0020
     34 C           7.4611   -4.0565   24.4176 C.3     1  UNL1        0.2138
     35 N           7.4515   -5.4484   24.9766 N.ar    1  UNL1       -0.2206
     36 C           8.0493   -6.6625   24.3297 C.ar    1  UNL1        0.1977
     37 N           7.8097   -7.8350   25.2340 N.ar    1  UNL1       -0.2007
     38 C           7.0637   -7.3455   26.4398 C.ar    1  UNL1        0.2210
     39 N           6.8424   -5.8705   26.2807 N.ar    1  UNL1       -0.1447
@<TRIPOS>BOND
     1     8     9    2
     2     9    10   am
     3    10    12    1
     4    12    13   ar
     5    13    14   ar
     6    14    15   ar
     7    15    18    1
     8    18    19    1
     9    19    20   ar
    10    20    21   ar
    11    21    22   ar
    12    22    23    1
    13    22    24   ar
    14    24    25   ar
    15    15    16   ar
    16    16    17   ar
    17     1     9    1
    18     1     2    1
    19     2     3    1
    20     3    26    1
    21    26    27    1
    22    27    28   ar
    23    28    29   ar
    24    29    30   ar
    25    30    31    1
    26    30    32   ar
    27    32    33   ar
    28     3     4    1
    29     4     5    1
    30     5     6   am
    31     6     7    2
    32     6    34    1
    33    34    35    1
    34    35    36   ar
    35    36    37   ar
    36    37    38   ar
    37    38    39   ar
    38    17    12   ar
    39     5     1    1
    40    39    35   ar
    41    25    19   ar
    42    33    27   ar
    43    10    11    1
@<TRIPOS>MOLECULE
*****
 39 43 0 0 0
SMALL
GASTEIGER

@<TRIPOS>ATOM
      1 C           2.1596    1.6587   32.4343 C.3     1  UNL1        0.1522
      2 C           2.2183    2.5924   33.6068 C.3     1  UNL1        0.0313
      3 C           3.1981    2.0336   34.5958 C.3     1  UNL1        0.0264
      4 C           3.7448    0.7545   34.0344 C.3     1  UNL1        0.0942
      5 N           3.1030    0.5229   32.6985 N.am    1  UNL1       -0.2713
      6 C           3.3596   -0.6404   31.7870 C.2     1  UNL1        0.2509
      7 O           2.6394   -0.7381   30.4748 O.2     1  UNL1       -0.2727
      8 O          -0.1812    1.6701   31.3072 O.2     1  UNL1       -0.2730
      9 C           1.3071    1.8307   31.2121 C.2     1  UNL1        0.2442
     10 N           1.9430    2.1634   29.8949 N.am    1  UNL1       -0.2826
     11 H           2.9198    2.2688   29.8326 H       1  UNL1        0.1549
     12 C           1.0905    2.3354   28.6727 C.ar    1  UNL1        0.0505
     13 C           0.3793    1.1542   28.0820 C.ar    1  UNL1        0.0178
     14 C          -0.4731    1.3263   26.8599 C.ar    1  UNL1        0.0388
     15 C          -0.6144    2.6796   26.2284 C.ar    1  UNL1        0.1454
     16 C           0.0968    3.8607   26.8191 C.ar    1  UNL1        0.0388
     17 C           0.9492    3.6887   28.0412 C.ar    1  UNL1        0.0178
     18 O          -1.4669    2.8516   25.0062 O.3     1  UNL1       -0.4535
     19 C          -2.8451    3.4307   25.1286 C.ar    1  UNL1        0.1454
     20 C          -3.3624    3.8589   26.4699 C.ar    1  UNL1        0.0398
     21 C          -4.7407    4.4380   26.5922 C.ar    1  UNL1        0.0328
     22 C          -5.6017    4.5890   25.3732 C.ar    1  UNL1        0.1403
     23 F          -6.9799    5.1681   25.4956 F       1  UNL1       -0.2042
     24 C          -5.0844    4.1608   24.0319 C.ar    1  UNL1        0.0328
     25 C          -3.7062    3.5817   23.9096 C.ar    1  UNL1        0.0398
     26 C           3.5663    2.6462   35.9145 C.3     1  UNL1        0.0281
     27 C           2.7805    2.3048   37.1457 C.ar    1  UNL1       -0.0220
     28 C           1.7589    3.2677   37.6743 C.ar    1  UNL1       -0.0020
     29 C           0.9730    2.9263   38.9055 C.ar    1  UNL1        0.0293
     30 C           1.2087    1.6221   39.6080 C.ar    1  UNL1        0.1401
     31 F           0.4228    1.2807   40.8392 F       1  UNL1       -0.2042
     32 C           2.2303    0.6592   39.0793 C.ar    1  UNL1        0.0293
     33 C           3.0161    1.0007   37.8482 C.ar    1  UNL1       -0.0020
     34 C           4.3363   -1.7060   32.1876 C.3     1  UNL1        0.2138
     35 N           5.4839   -2.0494   31.2848 N.ar    1  UNL1       -0.2206
     36 C           6.3769   -3.2480   31.4108 C.ar    1  UNL1        0.1977
     37 N           7.3849   -3.1937   30.3013 N.ar    1  UNL1       -0.2007
     38 C           7.1149   -1.9616   29.4896 C.ar    1  UNL1        0.2210
     39 N           5.9400   -1.2543   30.0974 N.ar    1  UNL1       -0.1447
@<TRIPOS>BOND
     1     8     9    2
     2     9    10   am
     3    10    12    1
     4    12    13   ar
     5    13    14   ar
     6    14    15   ar
     7    15    18    1
     8    18    19    1
     9    19    20   ar
    10    20    21   ar
    11    21    22   ar
    12    22    23    1
    13    22    24   ar
    14    24    25   ar
    15    15    16   ar
    16    16    17   ar
    17     1     9    1
    18     1     2    1
    19     2     3    1
    20     3    26    1
    21    26    27    1
    22    27    28   ar
    23    28    29   ar
    24    29    30   ar
    25    30    31    1
    26    30    32   ar
    27    32    33   ar
    28     3     4    1
    29     4     5    1
    30     5     6   am
    31     6     7    2
    32     6    34    1
    33    34    35    1
    34    35    36   ar
    35    36    37   ar
    36    37    38   ar
    37    38    39   ar
    38    17    12   ar
    39     5     1    1
    40    39    35   ar
    41    25    19   ar
    42    33    27   ar
    43    10    11    1
@<TRIPOS>MOLECULE
*****
 39 43 0 0 0
SMALL
GASTEIGER

@<TRIPOS>ATOM
      1 C          -1.3113    3.6387   22.9953 C.3     1  UNL1        0.1522
      2 C          -2.2145    4.7116   22.4633 C.3     1  UNL1        0.0313
      3 C          -3.0997    5.1702   23.5841 C.3     1  UNL1        0.0264
      4 C          -2.7435    4.3807   24.8088 C.3     1  UNL1        0.0942
      5 N          -1.6382    3.4341   24.4449 N.am    1  UNL1       -0.2713
      6 C          -0.9761    2.4550   25.3683 C.2     1  UNL1        0.2509
      7 O           0.1215    1.5683   24.8594 O.2     1  UNL1       -0.2727
      8 O           1.1889    3.1732   22.4637 O.2     1  UNL1       -0.2730
      9 C          -0.2649    2.9000   22.2147 C.2     1  UNL1        0.2442
     10 N          -0.6721    1.8881   21.1850 N.am    1  UNL1       -0.2826
     11 H          -1.6263    1.7088   21.0216 H       1  UNL1        0.1549
     12 C           0.3743    1.1494   20.4044 C.ar    1  UNL1        0.0505
     13 C           0.7993    1.6526   19.0568 C.ar    1  UNL1        0.0178
     14 C           1.8457    0.9139   18.2762 C.ar    1  UNL1        0.0388
     15 C           2.4671   -0.3280   18.8433 C.ar    1  UNL1        0.1454
     16 C           2.0421   -0.8312   20.1909 C.ar    1  UNL1        0.0388
     17 C           0.9957   -0.0925   20.9715 C.ar    1  UNL1        0.0178
     18 O           3.5136   -1.0667   18.0627 O.3     1  UNL1       -0.4535
     19 C           4.4929   -1.9532   18.7732 C.ar    1  UNL1        0.1454
     20 C           5.7454   -1.3702   19.3576 C.ar    1  UNL1        0.0398
     21 C           6.7247   -2.2569   20.0682 C.ar    1  UNL1        0.0328
     22 C           6.4516   -3.7263   20.1944 C.ar    1  UNL1        0.1403
     23 F           7.4310   -4.6129   20.9049 F       1  UNL1       -0.2042
     24 C           5.1992   -4.3093   19.6100 C.ar    1  UNL1        0.0328
     25 C           4.2199   -3.4228   18.8994 C.ar    1  UNL1        0.0398
     26 C          -4.1556    6.2319   23.4958 C.3     1  UNL1        0.0281
     27 C          -5.5880    5.8908   23.7823 C.ar    1  UNL1       -0.0220
     28 C          -6.2553    4.7715   23.0395 C.ar    1  UNL1       -0.0020
     29 C          -7.6877    4.4304   23.3260 C.ar    1  UNL1        0.0293
     30 C          -8.4526    5.2086   24.3551 C.ar    1  UNL1        0.1401
     31 F          -9.8849    4.8675   24.6416 F       1  UNL1       -0.2042
     32 C          -7.7851    6.3280   25.0979 C.ar    1  UNL1        0.0293
     33 C          -6.3529    6.6691   24.8115 C.ar    1  UNL1       -0.0020
     34 C          -1.4116    2.3625   26.8007 C.3     1  UNL1        0.2138
     35 N          -0.6333    1.5212   27.7685 N.ar    1  UNL1       -0.2206
     36 C          -1.1238    0.2773   28.4482 C.ar    1  UNL1        0.1977
     37 N          -0.0214   -0.2365   29.3263 N.ar    1  UNL1       -0.2007
     38 C           1.1502    0.6900   29.1892 C.ar    1  UNL1        0.2210
     39 N           0.7721    1.7763   28.2264 N.ar    1  UNL1       -0.1447
@<TRIPOS>BOND
     1     8     9    2
     2     9    10   am
     3    10    12    1
     4    12    13   ar
     5    13    14   ar
     6    14    15   ar
     7    15    18    1
     8    18    19    1
     9    19    20   ar
    10    20    21   ar
    11    21    22   ar
    12    22    23    1
    13    22    24   ar
    14    24    25   ar
    15    15    16   ar
    16    16    17   ar
    17     1     9    1
    18     1     2    1
    19     2     3    1
    20     3    26    1
    21    26    27    1
    22    27    28   ar
    23    28    29   ar
    24    29    30   ar
    25    30    31    1
    26    30    32   ar
    27    32    33   ar
    28     3     4    1
    29     4     5    1
    30     5     6   am
    31     6     7    2
    32     6    34    1
    33    34    35    1
    34    35    36   ar
    35    36    37   ar
    36    37    38   ar
    37    38    39   ar
    38    17    12   ar
    39     5     1    1
    40    39    35   ar
    41    25    19   ar
    42    33    27   ar
    43    10    11    1
@<TRIPOS>MOLECULE
*****
 39 43 0 0 0
SMALL
GASTEIGER

@<TRIPOS>ATOM
      1 C           5.7431   -1.5804   29.7424 C.3     1  UNL1        0.1522
      2 C           6.8354   -1.5122   30.7682 C.3     1  UNL1        0.0313
      3 C           6.3275   -0.7165   31.9340 C.3     1  UNL1        0.0264
      4 C           4.9212   -0.2929   31.6286 C.3     1  UNL1        0.0942
      5 N           4.5601   -0.8269   30.2741 N.am    1  UNL1       -0.2713
      6 C           3.2466   -0.6401   29.5743 C.2     1  UNL1        0.2509
      7 O           3.0298   -1.2358   28.2148 O.2     1  UNL1       -0.2727
      8 O           5.8992   -3.7763   28.3627 O.2     1  UNL1       -0.2730
      9 C           5.8203   -2.2794   28.4174 C.2     1  UNL1        0.2442
     10 N           5.8186   -1.4815   27.1473 N.am    1  UNL1       -0.2826
     11 H           5.7668   -0.4990   27.1832 H       1  UNL1        0.1549
     12 C           5.8958   -2.1806   25.8223 C.ar    1  UNL1        0.0505
     13 C           4.7453   -2.0994   24.8633 C.ar    1  UNL1        0.0178
     14 C           4.8226   -2.7984   23.5384 C.ar    1  UNL1        0.0388
     15 C           6.0503   -3.5786   23.1726 C.ar    1  UNL1        0.1454
     16 C           7.2008   -3.6598   24.1315 C.ar    1  UNL1        0.0388
     17 C           7.1236   -2.9608   25.4564 C.ar    1  UNL1        0.0178
     18 O           6.1275   -4.2776   21.8476 O.3     1  UNL1       -0.4535
     19 C           5.6273   -3.5950   20.6092 C.ar    1  UNL1        0.1454
     20 C           6.5324   -2.6786   19.8403 C.ar    1  UNL1        0.0398
     21 C           6.0322   -1.9960   18.6018 C.ar    1  UNL1        0.0328
     22 C           4.6269   -2.2296   18.1323 C.ar    1  UNL1        0.1403
     23 F           4.1267   -1.5469   16.8939 F       1  UNL1       -0.2042
     24 C           3.7218   -3.1459   18.9011 C.ar    1  UNL1        0.0328
     25 C           4.2220   -3.8286   20.1396 C.ar    1  UNL1        0.0398
     26 C           7.0916   -0.3999   33.1853 C.3     1  UNL1        0.0281
     27 C           6.3801    0.1786   34.3724 C.ar    1  UNL1       -0.0220
     28 C           5.4552   -0.6794   35.1838 C.ar    1  UNL1       -0.0020
     29 C           4.7438   -0.1009   36.3709 C.ar    1  UNL1        0.0293
     30 C           4.9572    1.3355   36.7465 C.ar    1  UNL1        0.1401
     31 F           4.2457    1.9140   37.9336 F       1  UNL1       -0.2042
     32 C           5.8821    2.1935   35.9350 C.ar    1  UNL1        0.0293
     33 C           6.5935    1.6150   34.7480 C.ar    1  UNL1       -0.0020
     34 C           2.1499    0.1424   30.2338 C.3     1  UNL1        0.2138
     35 N           0.8973    0.4649   29.4743 N.ar    1  UNL1       -0.2206
     36 C           0.7192    1.5983   28.5082 C.ar    1  UNL1        0.1977
     37 N          -0.6854    1.5445   27.9843 N.ar    1  UNL1       -0.2007
     38 C          -1.3752    0.3777   28.6268 C.ar    1  UNL1        0.2210
     39 N          -0.3971   -0.2895   29.5476 N.ar    1  UNL1       -0.1447
@<TRIPOS>BOND
     1     8     9    2
     2     9    10   am
     3    10    12    1
     4    12    13   ar
     5    13    14   ar
     6    14    15   ar
     7    15    18    1
     8    18    19    1
     9    19    20   ar
    10    20    21   ar
    11    21    22   ar
    12    22    23    1
    13    22    24   ar
    14    24    25   ar
    15    15    16   ar
    16    16    17   ar
    17     1     9    1
    18     1     2    1
    19     2     3    1
    20     3    26    1
    21    26    27    1
    22    27    28   ar
    23    28    29   ar
    24    29    30   ar
    25    30    31    1
    26    30    32   ar
    27    32    33   ar
    28     3     4    1
    29     4     5    1
    30     5     6   am
    31     6     7    2
    32     6    34    1
    33    34    35    1
    34    35    36   ar
    35    36    37   ar
    36    37    38   ar
    37    38    39   ar
    38    17    12   ar
    39     5     1    1
    40    39    35   ar
    41    25    19   ar
    42    33    27   ar
    43    10    11    1
@<TRIPOS>MOLECULE
*****
 39 43 0 0 0
SMALL
GASTEIGER

@<TRIPOS>ATOM
      1 C           4.8360   -2.2638   24.1867 C.3     1  UNL1        0.1522
      2 C           4.0613   -2.0926   22.9137 C.3     1  UNL1        0.0313
      3 C           4.5441   -3.1220   21.9353 C.3     1  UNL1        0.0264
      4 C           5.6172   -3.9294   22.6037 C.3     1  UNL1        0.0942
      5 N           5.7976   -3.3990   23.9951 N.am    1  UNL1       -0.2713
      6 C           6.7689   -3.9134   25.0158 C.2     1  UNL1        0.2509
      7 O           6.8365   -3.2791   26.3734 O.2     1  UNL1       -0.2727
      8 O           5.1230   -0.0116   25.4498 O.2     1  UNL1       -0.2730
      9 C           4.6770   -1.4437   25.4326 C.2     1  UNL1        0.2442
     10 N           4.0721   -2.0556   26.6612 N.am    1  UNL1       -0.2826
     11 H           3.7794   -2.9955   26.6499 H       1  UNL1        0.1549
     12 C           3.9131   -1.2355   27.9071 C.ar    1  UNL1        0.0505
     13 C           5.1038   -0.9480   28.7728 C.ar    1  UNL1        0.0178
     14 C           4.9448   -0.1279   30.0186 C.ar    1  UNL1        0.0388
     15 C           3.5950    0.4046   30.3987 C.ar    1  UNL1        0.1454
     16 C           2.4042    0.1171   29.5331 C.ar    1  UNL1        0.0388
     17 C           2.5633   -0.7030   28.2873 C.ar    1  UNL1        0.0178
     18 O           3.4360    1.2247   31.6447 O.3     1  UNL1       -0.4535
     19 C           4.0612    0.7668   32.9289 C.ar    1  UNL1        0.1454
     20 C           4.7799    1.7493   33.8054 C.ar    1  UNL1        0.0398
     21 C           5.4052    1.2913   35.0896 C.ar    1  UNL1        0.0328
     22 C           5.3117   -0.1492   35.4974 C.ar    1  UNL1        0.1403
     23 F           5.9370   -0.6071   36.7816 F       1  UNL1       -0.2042
     24 C           4.5931   -1.1317   34.6209 C.ar    1  UNL1        0.0328
     25 C           3.9678   -0.6737   33.3367 C.ar    1  UNL1        0.0398
     26 C           4.0420   -3.3109   20.5345 C.3     1  UNL1        0.0281
     27 C           4.4527   -2.3537   19.4551 C.ar    1  UNL1       -0.0220
     28 C           3.4630   -1.3656   18.9127 C.ar    1  UNL1       -0.0020
     29 C           3.8737   -0.4083   17.8333 C.ar    1  UNL1        0.0293
     30 C           5.2740   -0.4393   17.2963 C.ar    1  UNL1        0.1401
     31 F           5.6846    0.5179   16.2169 F       1  UNL1       -0.2042
     32 C           6.2636   -1.4275   17.8388 C.ar    1  UNL1        0.0293
     33 C           5.8530   -2.3847   18.9181 C.ar    1  UNL1       -0.0020
     34 C           7.6728   -5.0621   24.6789 C.3     1  UNL1        0.2138
     35 N           7.9362   -6.1326   25.6960 N.ar    1  UNL1       -0.2206
     36 C           8.8182   -6.0046   26.9026 C.ar    1  UNL1        0.1977
     37 N           8.7909   -7.3120   27.6374 N.ar    1  UNL1       -0.2007
     38 C           7.8922   -8.2480   26.8850 C.ar    1  UNL1        0.2210
     39 N           7.3639   -7.5191   25.6852 N.ar    1  UNL1       -0.1447
@<TRIPOS>BOND
     1     8     9    2
     2     9    10   am
     3    10    12    1
     4    12    13   ar
     5    13    14   ar
     6    14    15   ar
     7    15    18    1
     8    18    19    1
     9    19    20   ar
    10    20    21   ar
    11    21    22   ar
    12    22    23    1
    13    22    24   ar
    14    24    25   ar
    15    15    16   ar
    16    16    17   ar
    17     1     9    1
    18     1     2    1
    19     2     3    1
    20     3    26    1
    21    26    27    1
    22    27    28   ar
    23    28    29   ar
    24    29    30   ar
    25    30    31    1
    26    30    32   ar
    27    32    33   ar
    28     3     4    1
    29     4     5    1
    30     5     6   am
    31     6     7    2
    32     6    34    1
    33    34    35    1
    34    35    36   ar
    35    36    37   ar
    36    37    38   ar
    37    38    39   ar
    38    17    12   ar
    39     5     1    1
    40    39    35   ar
    41    25    19   ar
    42    33    27   ar
    43    10    11    1
@<TRIPOS>MOLECULE
*****
 39 43 0 0 0
SMALL
GASTEIGER

@<TRIPOS>ATOM
      1 C           4.4421   -0.7314   23.8381 C.3     1  UNL1        0.1522
      2 C           5.5648   -1.1360   24.7469 C.3     1  UNL1        0.0313
      3 C           6.3453   -2.2205   24.0649 C.3     1  UNL1        0.0264
      4 C           5.7048   -2.4860   22.7347 C.3     1  UNL1        0.0942
      5 N           4.5286   -1.5657   22.5946 N.am    1  UNL1       -0.2713
      6 C           3.6016   -1.4926   21.4176 C.2     1  UNL1        0.2509
      7 O           2.4623   -0.5169   21.4197 O.2     1  UNL1       -0.2727
      8 O           3.8270    1.7586   24.2524 O.2     1  UNL1       -0.2730
      9 C           3.4134    0.3225   24.1230 C.2     1  UNL1        0.2442
     10 N           1.9713   -0.0596   24.2785 N.am    1  UNL1       -0.2826
     11 H           1.6999   -1.0021   24.1936 H       1  UNL1        0.1549
     12 C           0.9426    0.9944   24.5634 C.ar    1  UNL1        0.0505
     13 C           0.5845    1.9977   23.5075 C.ar    1  UNL1        0.0178
     14 C          -0.4442    3.0515   23.7924 C.ar    1  UNL1        0.0388
     15 C          -1.1146    3.1021   25.1333 C.ar    1  UNL1        0.1454
     16 C          -0.7564    2.0988   26.1892 C.ar    1  UNL1        0.0388
     17 C           0.2722    1.0450   25.9043 C.ar    1  UNL1        0.0178
     18 O          -2.1433    4.1561   25.4182 O.3     1  UNL1       -0.4535
     19 C          -3.4948    4.0790   24.7722 C.ar    1  UNL1        0.1454
     20 C          -4.7176    4.4840   25.5409 C.ar    1  UNL1        0.0398
     21 C          -6.0693    4.4069   24.8949 C.ar    1  UNL1        0.0328
     22 C          -6.1980    3.9247   23.4803 C.ar    1  UNL1        0.1403
     23 F          -7.5496    3.8476   22.8344 F       1  UNL1       -0.2042
     24 C          -4.9753    3.5197   22.7117 C.ar    1  UNL1        0.0328
     25 C          -3.6237    3.5968   23.3576 C.ar    1  UNL1        0.0398
     26 C           7.5539   -2.9170   24.6163 C.3     1  UNL1        0.0281
     27 C           7.4470   -4.3313   25.1043 C.ar    1  UNL1       -0.0220
     28 C           6.7928   -4.6224   26.4224 C.ar    1  UNL1       -0.0020
     29 C           6.6859   -6.0367   26.9105 C.ar    1  UNL1        0.0293
     30 C           7.2331   -7.1599   26.0805 C.ar    1  UNL1        0.1401
     31 F           7.1261   -8.5743   26.5686 F       1  UNL1       -0.2042
     32 C           7.8873   -6.8688   24.7623 C.ar    1  UNL1        0.0293
     33 C           7.9942   -5.4546   24.2743 C.ar    1  UNL1       -0.0020
     34 C           3.8139   -2.3952   20.2385 C.3     1  UNL1        0.2138
     35 N           4.8315   -2.0397   19.1954 N.ar    1  UNL1       -0.2206
     36 C           5.6504   -3.0093   18.3959 C.ar    1  UNL1        0.1977
     37 N           6.5339   -2.2210   17.4750 N.ar    1  UNL1       -0.2007
     38 C           6.2611   -0.7641   17.7055 C.ar    1  UNL1        0.2210
     39 N           5.2090   -0.6521   18.7687 N.ar    1  UNL1       -0.1447
@<TRIPOS>BOND
     1     8     9    2
     2     9    10   am
     3    10    12    1
     4    12    13   ar
     5    13    14   ar
     6    14    15   ar
     7    15    18    1
     8    18    19    1
     9    19    20   ar
    10    20    21   ar
    11    21    22   ar
    12    22    23    1
    13    22    24   ar
    14    24    25   ar
    15    15    16   ar
    16    16    17   ar
    17     1     9    1
    18     1     2    1
    19     2     3    1
    20     3    26    1
    21    26    27    1
    22    27    28   ar
    23    28    29   ar
    24    29    30   ar
    25    30    31    1
    26    30    32   ar
    27    32    33   ar
    28     3     4    1
    29     4     5    1
    30     5     6   am
    31     6     7    2
    32     6    34    1
    33    34    35    1
    34    35    36   ar
    35    36    37   ar
    36    37    38   ar
    37    38    39   ar
    38    17    12   ar
    39     5     1    1
    40    39    35   ar
    41    25    19   ar
    42    33    27   ar
    43    10    11    1
@<TRIPOS>MOLECULE
*****
 39 43 0 0 0
SMALL
GASTEIGER

@<TRIPOS>ATOM
      1 C           1.2881    1.1025   23.5306 C.3     1  UNL1        0.1522
      2 C           1.7124    0.1389   22.4622 C.3     1  UNL1        0.0313
      3 C           1.0156    0.5213   21.1899 C.3     1  UNL1        0.0264
      4 C           0.1607    1.7211   21.4722 C.3     1  UNL1        0.0942
      5 N           0.3291    2.0803   22.9188 N.am    1  UNL1       -0.2713
      6 C          -0.3433    3.2175   23.6290 C.2     1  UNL1        0.2509
      7 O          -0.0762    3.4551   25.0858 O.2     1  UNL1       -0.2727
      8 O           3.1399    1.5130   25.3061 O.2     1  UNL1       -0.2730
      9 C           1.7429    1.0902   24.9600 C.2     1  UNL1        0.2442
     10 N           0.8009    0.6553   26.0431 N.am    1  UNL1       -0.2826
     11 H          -0.1160    0.3778   25.8159 H       1  UNL1        0.1549
     12 C           1.2558    0.6431   27.4725 C.ar    1  UNL1        0.0505
     13 C           2.1258   -0.4715   27.9732 C.ar    1  UNL1        0.0178
     14 C           2.5806   -0.4837   29.4025 C.ar    1  UNL1        0.0388
     15 C           2.1654    0.6187   30.3311 C.ar    1  UNL1        0.1454
     16 C           1.2954    1.7333   29.8304 C.ar    1  UNL1        0.0388
     17 C           0.8406    1.7455   28.4011 C.ar    1  UNL1        0.0178
     18 O           2.6203    0.6065   31.7605 O.3     1  UNL1       -0.4535
     19 C           3.9166   -0.0518   32.1294 C.ar    1  UNL1        0.1454
     20 C           3.9136   -1.4099   32.7660 C.ar    1  UNL1        0.0398
     21 C           5.2100   -2.0682   33.1350 C.ar    1  UNL1        0.0328
     22 C           6.5094   -1.3683   32.8672 C.ar    1  UNL1        0.1403
     23 F           7.8057   -2.0266   33.2361 F       1  UNL1       -0.2042
     24 C           6.5124   -0.0101   32.2306 C.ar    1  UNL1        0.0328
     25 C           5.2161    0.6482   31.8616 C.ar    1  UNL1        0.0398
     26 C           1.1501   -0.1741   19.8677 C.3     1  UNL1        0.0281
     27 C           2.5067   -0.5638   19.3598 C.ar    1  UNL1       -0.0220
     28 C           3.2569    0.3562   18.4428 C.ar    1  UNL1       -0.0020
     29 C           4.6134   -0.0336   17.9349 C.ar    1  UNL1        0.0293
     30 C           5.2197   -1.3432   18.3440 C.ar    1  UNL1        0.1401
     31 F           6.5762   -1.7329   17.8361 F       1  UNL1       -0.2042
     32 C           4.4693   -2.2631   19.2610 C.ar    1  UNL1        0.0293
     33 C           3.1129   -1.8734   19.7689 C.ar    1  UNL1       -0.0020
     34 C          -1.2830    4.1174   22.8824 C.3     1  UNL1        0.2138
     35 N          -2.6973    3.6842   22.6334 N.ar    1  UNL1       -0.2206
     36 C          -3.7847    3.5898   23.6624 C.ar    1  UNL1        0.1977
     37 N          -5.0320    3.1166   22.9766 N.ar    1  UNL1       -0.2007
     38 C          -4.7155    2.9186   21.5238 C.ar    1  UNL1        0.2210
     39 N          -3.2726    3.2694   21.3117 N.ar    1  UNL1       -0.1447
@<TRIPOS>BOND
     1     8     9    2
     2     9    10   am
     3    10    12    1
     4    12    13   ar
     5    13    14   ar
     6    14    15   ar
     7    15    18    1
     8    18    19    1
     9    19    20   ar
    10    20    21   ar
    11    21    22   ar
    12    22    23    1
    13    22    24   ar
    14    24    25   ar
    15    15    16   ar
    16    16    17   ar
    17     1     9    1
    18     1     2    1
    19     2     3    1
    20     3    26    1
    21    26    27    1
    22    27    28   ar
    23    28    29   ar
    24    29    30   ar
    25    30    31    1
    26    30    32   ar
    27    32    33   ar
    28     3     4    1
    29     4     5    1
    30     5     6   am
    31     6     7    2
    32     6    34    1
    33    34    35    1
    34    35    36   ar
    35    36    37   ar
    36    37    38   ar
    37    38    39   ar
    38    17    12   ar
    39     5     1    1
    40    39    35   ar
    41    25    19   ar
    42    33    27   ar
    43    10    11    1
@<TRIPOS>MOLECULE
*****
 39 43 0 0 0
SMALL
GASTEIGER

@<TRIPOS>ATOM
      1 C           0.3666    1.8458   23.0654 C.3     1  UNL1        0.1522
      2 C           0.9443    0.8742   22.0794 C.3     1  UNL1        0.0313
      3 C           0.4283    1.2338   20.7175 C.3     1  UNL1        0.0264
      4 C          -0.4683    2.4277   20.8620 C.3     1  UNL1        0.0942
      5 N          -0.5064    2.8059   22.3131 N.am    1  UNL1       -0.2713
      6 C          -1.2814    3.9443   22.9075 C.2     1  UNL1        0.2509
      7 O          -1.2221    4.2020   24.3839 O.2     1  UNL1       -0.2727
      8 O           2.0079    2.0652   25.0674 O.2     1  UNL1       -0.2730
      9 C           0.6179    1.8555   24.5442 C.2     1  UNL1        0.2442
     10 N          -0.5209    1.6555   25.4998 N.am    1  UNL1       -0.2826
     11 H          -1.4333    1.5179   25.1564 H       1  UNL1        0.1549
     12 C          -0.2697    1.6652   26.9786 C.ar    1  UNL1        0.0505
     13 C          -0.5255    0.4305   27.7909 C.ar    1  UNL1        0.0178
     14 C          -0.2743    0.4402   29.2697 C.ar    1  UNL1        0.0388
     15 C           0.2328    1.6847   29.9361 C.ar    1  UNL1        0.1454
     16 C           0.4886    2.9195   29.1238 C.ar    1  UNL1        0.0388
     17 C           0.2374    2.9097   27.6450 C.ar    1  UNL1        0.0178
     18 O           0.4840    1.6944   31.4149 O.3     1  UNL1       -0.4535
     19 C           1.8756    1.5013   31.9405 C.ar    1  UNL1        0.1454
     20 C           2.2502    2.0432   33.2881 C.ar    1  UNL1        0.0398
     21 C           3.6418    1.8500   33.8137 C.ar    1  UNL1        0.0328
     22 C           4.6587    1.1150   32.9917 C.ar    1  UNL1        0.1403
     23 F           6.0502    0.9219   33.5174 F       1  UNL1       -0.2042
     24 C           4.2840    0.5731   31.6442 C.ar    1  UNL1        0.0328
     25 C           2.8925    0.7662   31.1185 C.ar    1  UNL1        0.0398
     26 C           0.7521    0.5242   19.4363 C.3     1  UNL1        0.0281
     27 C           2.0640   -0.1868   19.2835 C.ar    1  UNL1       -0.0220
     28 C           2.3421   -1.4269   20.0803 C.ar    1  UNL1       -0.0020
     29 C           3.6540   -2.1380   19.9275 C.ar    1  UNL1        0.0293
     30 C           4.6877   -1.6089   18.9781 C.ar    1  UNL1        0.1401
     31 F           5.9996   -2.3200   18.8253 F       1  UNL1       -0.2042
     32 C           4.4096   -0.3687   18.1814 C.ar    1  UNL1        0.0293
     33 C           3.0977    0.3423   18.3341 C.ar    1  UNL1       -0.0020
     34 C          -2.1158    4.8250   22.0253 C.3     1  UNL1        0.2138
     35 N          -3.5161    4.4208   21.6708 N.ar    1  UNL1       -0.2206
     36 C          -3.9509    3.7829   20.3847 C.ar    1  UNL1        0.1977
     37 N          -5.4310    3.5514   20.4593 N.ar    1  UNL1       -0.2007
     38 C          -5.9110    4.0462   21.7914 C.ar    1  UNL1        0.2210
     39 N          -4.7276    4.5835   22.5402 N.ar    1  UNL1       -0.1447
@<TRIPOS>BOND
     1     8     9    2
     2     9    10   am
     3    10    12    1
     4    12    13   ar
     5    13    14   ar
     6    14    15   ar
     7    15    18    1
     8    18    19    1
     9    19    20   ar
    10    20    21   ar
    11    21    22   ar
    12    22    23    1
    13    22    24   ar
    14    24    25   ar
    15    15    16   ar
    16    16    17   ar
    17     1     9    1
    18     1     2    1
    19     2     3    1
    20     3    26    1
    21    26    27    1
    22    27    28   ar
    23    28    29   ar
    24    29    30   ar
    25    30    31    1
    26    30    32   ar
    27    32    33   ar
    28     3     4    1
    29     4     5    1
    30     5     6   am
    31     6     7    2
    32     6    34    1
    33    34    35    1
    34    35    36   ar
    35    36    37   ar
    36    37    38   ar
    37    38    39   ar
    38    17    12   ar
    39     5     1    1
    40    39    35   ar
    41    25    19   ar
    42    33    27   ar
    43    10    11    1
@<TRIPOS>MOLECULE
*****
 39 43 0 0 0
SMALL
GASTEIGER

@<TRIPOS>ATOM
      1 C          -1.2888    2.9204   26.1457 C.3     1  UNL1        0.1522
      2 C          -2.6176    3.3758   26.6720 C.3     1  UNL1        0.0313
      3 C          -3.4556    3.8063   25.5046 C.3     1  UNL1        0.0264
      4 C          -2.6446    3.6168   24.2570 C.3     1  UNL1        0.0942
      5 N          -1.3055    3.0694   24.6533 N.am    1  UNL1       -0.2713
      6 C          -0.1805    2.7304   23.7208 C.2     1  UNL1        0.2509
      7 O           1.1076    2.1881   24.2655 O.2     1  UNL1       -0.2727
      8 O           0.6238    3.3429   27.8527 O.2     1  UNL1       -0.2730
      9 C          -0.1442    2.4063   26.9678 C.2     1  UNL1        0.2442
     10 N           0.2323    0.9558   26.9050 N.am    1  UNL1       -0.2826
     11 H          -0.2718    0.3411   26.3242 H       1  UNL1        0.1549
     12 C           1.3768    0.4416   27.7271 C.ar    1  UNL1        0.0505
     13 C           1.1421   -0.0162   29.1361 C.ar    1  UNL1        0.0178
     14 C           2.2866   -0.5303   29.9581 C.ar    1  UNL1        0.0388
     15 C           3.6659   -0.5865   29.3711 C.ar    1  UNL1        0.1454
     16 C           3.9006   -0.1286   27.9621 C.ar    1  UNL1        0.0388
     17 C           2.7561    0.3854   27.1401 C.ar    1  UNL1        0.0178
     18 O           4.8104   -1.1006   30.1932 O.3     1  UNL1       -0.4535
     19 C           4.7706   -0.9868   31.6883 C.ar    1  UNL1        0.1454
     20 C           5.1273    0.3105   32.3515 C.ar    1  UNL1        0.0398
     21 C           5.0874    0.4242   33.8467 C.ar    1  UNL1        0.0328
     22 C           4.6909   -0.7593   34.6786 C.ar    1  UNL1        0.1403
     23 F           4.6511   -0.6455   36.1737 F       1  UNL1       -0.2042
     24 C           4.3342   -2.0566   34.0154 C.ar    1  UNL1        0.0328
     25 C           4.3741   -2.1703   32.5203 C.ar    1  UNL1        0.0398
     26 C          -4.8582    4.3335   25.5728 C.3     1  UNL1        0.0281
     27 C          -5.5951    4.6704   24.3105 C.ar    1  UNL1       -0.0220
     28 C          -6.1896    6.0358   24.1308 C.ar    1  UNL1       -0.0020
     29 C          -6.9265    6.3727   22.8684 C.ar    1  UNL1        0.0293
     30 C          -7.0688    5.3442   21.7859 C.ar    1  UNL1        0.1401
     31 F          -7.8057    5.6811   20.5235 F       1  UNL1       -0.2042
     32 C          -6.4743    3.9788   21.9656 C.ar    1  UNL1        0.0293
     33 C          -5.7374    3.6419   23.2279 C.ar    1  UNL1       -0.0020
     34 C          -0.3436    2.9336   22.2436 C.3     1  UNL1        0.2138
     35 N           0.3369    2.0077   21.2794 N.ar    1  UNL1       -0.2206
     36 C           1.7146    2.1824   20.7124 C.ar    1  UNL1        0.1977
     37 N           1.9884    1.0273   19.7955 N.ar    1  UNL1       -0.2007
     38 C           0.7799    0.1387   19.7960 C.ar    1  UNL1        0.2210
     39 N          -0.2407    0.7446   20.7131 N.ar    1  UNL1       -0.1447
@<TRIPOS>BOND
     1     8     9    2
     2     9    10   am
     3    10    12    1
     4    12    13   ar
     5    13    14   ar
     6    14    15   ar
     7    15    18    1
     8    18    19    1
     9    19    20   ar
    10    20    21   ar
    11    21    22   ar
    12    22    23    1
    13    22    24   ar
    14    24    25   ar
    15    15    16   ar
    16    16    17   ar
    17     1     9    1
    18     1     2    1
    19     2     3    1
    20     3    26    1
    21    26    27    1
    22    27    28   ar
    23    28    29   ar
    24    29    30   ar
    25    30    31    1
    26    30    32   ar
    27    32    33   ar
    28     3     4    1
    29     4     5    1
    30     5     6   am
    31     6     7    2
    32     6    34    1
    33    34    35    1
    34    35    36   ar
    35    36    37   ar
    36    37    38   ar
    37    38    39   ar
    38    17    12   ar
    39     5     1    1
    40    39    35   ar
    41    25    19   ar
    42    33    27   ar
    43    10    11    1
