@<TRIPOS>MOLECULE
*****
 42 47 0 0 0
SMALL
GASTEIGER

@<TRIPOS>ATOM
      1 N          -9.8958  -17.8273   21.0981 N.3     1  UNL1       -0.2679
      2 C         -10.1492  -18.6422   22.3317 C.3     1  UNL1        0.0978
      3 C          -9.1335  -19.6471   22.7885 C.3     1  UNL1        0.0224
      4 C          -9.3869  -20.4619   24.0221 C.3     1  UNL1        0.0065
      5 C         -10.6558  -20.2719   24.7990 C.3     1  UNL1        0.0277
      6 C         -11.6715  -19.2670   24.3422 C.ar    1  UNL1       -0.0073
      7 C         -12.9405  -19.0769   25.1191 C.ar    1  UNL1       -0.0015
      8 C         -13.9561  -18.0720   24.6624 C.ar    1  UNL1        0.0203
      9 C         -13.7028  -17.2572   23.4288 C.ar    1  UNL1        0.0985
     10 N         -12.4338  -17.4472   22.6519 N.ar    1  UNL1       -0.2471
     11 C         -11.4181  -18.4521   23.1086 C.ar    1  UNL1        0.0695
     12 C         -10.1621  -18.4143   19.7437 C.3     1  UNL1        0.0725
     13 C          -9.2831  -19.5086   19.2145 C.3     1  UNL1        0.0188
     14 C          -7.7964  -19.4314   19.3985 C.3     1  UNL1        0.0188
     15 C          -7.0370  -20.6321   19.8796 C.3     1  UNL1        0.0728
     16 N          -5.7241  -20.4566   20.5836 N.3     1  UNL1       -0.2626
     17 C          -5.6954  -20.0354   22.0230 C.3     1  UNL1        0.1189
     18 C          -2.7708  -16.9014   23.3922 C.ar    1  UNL1        0.0207
     19 C          -2.3430  -18.3360   23.2973 C.ar    1  UNL1        0.0028
     20 C          -3.3178  -19.3807   22.8409 C.ar    1  UNL1        0.0161
     21 C          -4.7205  -18.9907   22.4794 C.ar    1  UNL1        0.0752
     22 N          -5.1482  -17.5561   22.5743 N.ar    1  UNL1       -0.2468
     23 C          -4.1733  -16.5115   23.0307 C.ar    1  UNL1        0.0985
     24 C          -4.4400  -20.7023   19.8483 C.3     1  UNL1        0.1189
     25 C          -3.4673  -19.5794   19.6418 C.ar    1  UNL1        0.0752
     26 C          -2.0256  -19.7576   20.0158 C.ar    1  UNL1        0.0161
     27 C          -1.0528  -18.6346   19.8093 C.ar    1  UNL1        0.0028
     28 C          -1.5217  -17.3334   19.2288 C.ar    1  UNL1        0.0207
     29 C          -2.9633  -17.1552   18.8547 C.ar    1  UNL1        0.0985
     30 N          -3.9361  -18.2782   19.0612 N.ar    1  UNL1       -0.2468
     31 C          -9.3762  -16.4254   21.2189 C.3     1  UNL1        0.0886
     32 C          -8.6070  -16.0131   22.4390 C.3     1  UNL1        0.0748
     33 C          -9.0519  -16.4709   23.7963 C.3     1  UNL1        0.0432
     34 C          -8.2827  -16.0587   25.0164 C.ar    1  UNL1       -0.0234
     35 C          -8.7277  -16.5165   26.3737 C.ar    1  UNL1       -0.0045
     36 C          -7.9585  -16.1042   27.5936 C.ar    1  UNL1       -0.0003
     37 C          -6.7444  -15.2341   27.4563 C.ar    1  UNL1       -0.0003
     38 C          -6.2994  -14.7763   26.0989 C.ar    1  UNL1       -0.0032
     39 C          -7.0686  -15.1886   24.8790 C.ar    1  UNL1       -0.0103
     40 C          -6.6237  -14.7308   23.5216 C.3     1  UNL1        0.0953
     41 N          -7.3928  -15.1431   22.3016 N.3     1  UNL1       -0.2934
     42 H          -6.7403  -15.6416   21.6966 H       1  UNL1        0.1236
@<TRIPOS>BOND
     1    18    19   ar
     2    19    20   ar
     3    20    21   ar
     4    21    17    1
     5    17    16    1
     6    16    15    1
     7    15    14    1
     8    14    13    1
     9    13    12    1
    10    12     1    1
    11     1    31    1
    12    32    31    1
    13    32    33    1
    14    33    34    1
    15    34    35   ar
    16    35    36   ar
    17    36    37   ar
    18    37    38   ar
    19    38    39   ar
    20    39    40    1
    21    40    41    1
    22     2     1    1
    23     2     3    1
    24     3     4    1
    25     4     5    1
    26     5     6    1
    27     6     7   ar
    28     7     8   ar
    29     8     9   ar
    30     9    10   ar
    31    10    11   ar
    32    16    24    1
    33    24    25    1
    34    25    26   ar
    35    26    27   ar
    36    27    28   ar
    37    28    29   ar
    38    29    30   ar
    39    21    22   ar
    40    22    23   ar
    41    23    18   ar
    42    41    32    1
    43    11     2    1
    44    30    25   ar
    45    39    34   ar
    46    11     6   ar
    47    41    42    1
@<TRIPOS>MOLECULE
*****
 42 47 0 0 0
SMALL
GASTEIGER

@<TRIPOS>ATOM
      1 N          -9.8905  -17.7767   21.0979 N.3     1  UNL1       -0.2679
      2 C         -10.1402  -18.6067   22.3222 C.3     1  UNL1        0.0978
      3 C          -9.1212  -19.6138   22.7662 C.3     1  UNL1        0.0224
      4 C          -9.3709  -20.4437   23.9905 C.3     1  UNL1        0.0065
      5 C         -10.6397  -20.2665   24.7707 C.3     1  UNL1        0.0277
      6 C         -11.6587  -19.2594   24.3267 C.ar    1  UNL1       -0.0073
      7 C         -12.9276  -19.0821   25.1069 C.ar    1  UNL1       -0.0015
      8 C         -13.9466  -18.0750   24.6629 C.ar    1  UNL1        0.0203
      9 C         -13.6968  -17.2450   23.4386 C.ar    1  UNL1        0.0985
     10 N         -12.4281  -17.4222   22.6584 N.ar    1  UNL1       -0.2471
     11 C         -11.4090  -18.4294   23.1024 C.ar    1  UNL1        0.0695
     12 C         -10.1584  -18.3479   19.7371 C.3     1  UNL1        0.0725
     13 C          -9.2719  -19.4265   19.1885 C.3     1  UNL1        0.0188
     14 C          -7.7922  -19.3756   19.4290 C.3     1  UNL1        0.0188
     15 C          -7.0773  -20.5813   19.9630 C.3     1  UNL1        0.0728
     16 N          -5.7382  -20.4288   20.6216 N.3     1  UNL1       -0.2626
     17 C          -4.4841  -20.6808   19.8383 C.3     1  UNL1        0.1189
     18 C          -1.5249  -17.3520   19.1963 C.ar    1  UNL1        0.0207
     19 C          -1.0698  -18.6587   19.7758 C.ar    1  UNL1        0.0028
     20 C          -2.0563  -19.7683   19.9898 C.ar    1  UNL1        0.0161
     21 C          -3.4977  -19.5712   19.6243 C.ar    1  UNL1        0.0752
     22 N          -3.9527  -18.2646   19.0449 N.ar    1  UNL1       -0.2468
     23 C          -2.9663  -17.1550   18.8309 C.ar    1  UNL1        0.0985
     24 C          -5.6534  -20.0242   22.0635 C.3     1  UNL1        0.1189
     25 C          -4.6633  -18.9825   22.4932 C.ar    1  UNL1        0.0752
     26 C          -3.2599  -19.3804   22.8425 C.ar    1  UNL1        0.0161
     27 C          -2.2698  -18.3387   23.2722 C.ar    1  UNL1        0.0028
     28 C          -2.6832  -16.8990   23.3525 C.ar    1  UNL1        0.0207
     29 C          -4.0866  -16.5010   23.0031 C.ar    1  UNL1        0.0985
     30 N          -5.0767  -17.5428   22.5735 N.ar    1  UNL1       -0.2468
     31 C          -9.3727  -16.3756   21.2345 C.3     1  UNL1        0.0886
     32 C          -8.5902  -15.9804   22.4517 C.3     1  UNL1        0.0748
     33 C          -9.0453  -16.4207   23.8114 C.3     1  UNL1        0.0432
     34 C          -8.2628  -16.0255   25.0287 C.ar    1  UNL1       -0.0234
     35 C          -8.7178  -16.4659   26.3884 C.ar    1  UNL1       -0.0045
     36 C          -7.9353  -16.0707   27.6056 C.ar    1  UNL1       -0.0003
     37 C          -6.6977  -15.2352   27.4629 C.ar    1  UNL1       -0.0003
     38 C          -6.2427  -14.7949   26.1032 C.ar    1  UNL1       -0.0032
     39 C          -7.0252  -15.1900   24.8860 C.ar    1  UNL1       -0.0103
     40 C          -6.5701  -14.7497   23.5262 C.3     1  UNL1        0.0953
     41 N          -7.3526  -15.1449   22.3091 N.3     1  UNL1       -0.2934
     42 H          -6.7153  -15.6635   21.7048 H       1  UNL1        0.1236
@<TRIPOS>BOND
     1    18    19   ar
     2    19    20   ar
     3    20    21   ar
     4    21    17    1
     5    17    16    1
     6    16    15    1
     7    15    14    1
     8    14    13    1
     9    13    12    1
    10    12     1    1
    11     1    31    1
    12    32    31    1
    13    32    33    1
    14    33    34    1
    15    34    35   ar
    16    35    36   ar
    17    36    37   ar
    18    37    38   ar
    19    38    39   ar
    20    39    40    1
    21    40    41    1
    22     2     1    1
    23     2     3    1
    24     3     4    1
    25     4     5    1
    26     5     6    1
    27     6     7   ar
    28     7     8   ar
    29     8     9   ar
    30     9    10   ar
    31    10    11   ar
    32    16    24    1
    33    24    25    1
    34    25    26   ar
    35    26    27   ar
    36    27    28   ar
    37    28    29   ar
    38    29    30   ar
    39    21    22   ar
    40    22    23   ar
    41    23    18   ar
    42    41    32    1
    43    11     2    1
    44    30    25   ar
    45    39    34   ar
    46    11     6   ar
    47    41    42    1
@<TRIPOS>MOLECULE
*****
 42 47 0 0 0
SMALL
GASTEIGER

@<TRIPOS>ATOM
      1 N           7.1802   -4.0939   23.6178 N.3     1  UNL1       -0.2679
      2 C           7.6196   -5.2957   24.4004 C.3     1  UNL1        0.0978
      3 C           8.2935   -6.4398   23.7027 C.3     1  UNL1        0.0224
      4 C           8.7329   -7.6416   24.4853 C.3     1  UNL1        0.0065
      5 C           8.4983   -7.6994   25.9657 C.3     1  UNL1        0.0277
      6 C           7.8243   -6.5554   26.6635 C.ar    1  UNL1       -0.0073
      7 C           7.5897   -6.6131   28.1439 C.ar    1  UNL1       -0.0015
      8 C           6.9157   -5.4691   28.8417 C.ar    1  UNL1        0.0203
      9 C           6.4764   -4.2672   28.0590 C.ar    1  UNL1        0.0985
     10 N           6.7110   -4.2094   26.5787 N.ar    1  UNL1       -0.2471
     11 C           7.3850   -5.3535   25.8808 C.ar    1  UNL1        0.0695
     12 C           8.1452   -2.9758   23.3556 C.3     1  UNL1        0.0725
     13 C           9.0029   -2.9985   22.1252 C.3     1  UNL1        0.0188
     14 C           8.3696   -3.1289   20.7717 C.3     1  UNL1        0.0188
     15 C           8.8463   -2.2741   19.6351 C.3     1  UNL1        0.0728
     16 N           7.8902   -1.3526   18.9374 N.3     1  UNL1       -0.2626
     17 C           6.9249   -1.8982   17.9272 C.3     1  UNL1        0.1189
     18 C           3.1860   -3.9972   19.2927 C.ar    1  UNL1        0.0207
     19 C           3.1934   -2.5055   19.1344 C.ar    1  UNL1        0.0028
     20 C           4.4397   -1.8058   18.6792 C.ar    1  UNL1        0.0161
     21 C           5.6786   -2.5978   18.3824 C.ar    1  UNL1        0.0752
     22 N           5.6711   -4.0894   18.5407 N.ar    1  UNL1       -0.2468
     23 C           4.4248   -4.7891   18.9959 C.ar    1  UNL1        0.0985
     24 C           7.8995    0.1145   19.2498 C.3     1  UNL1        0.1189
     25 C           7.0876    0.6425   20.3952 C.ar    1  UNL1        0.0752
     26 C           5.9194    1.5461   20.1328 C.ar    1  UNL1        0.0161
     27 C           5.1075    2.0742   21.2781 C.ar    1  UNL1        0.0028
     28 C           5.4637    1.6986   22.6860 C.ar    1  UNL1        0.0207
     29 C           6.6318    0.7950   22.9485 C.ar    1  UNL1        0.0985
     30 N           7.4438    0.2669   21.8031 N.ar    1  UNL1       -0.2468
     31 C           5.7759   -4.0100   23.0974 C.3     1  UNL1        0.0886
     32 C           4.8926   -2.8675   23.5031 C.3     1  UNL1        0.0748
     33 C           4.0769   -2.1470   22.4709 C.3     1  UNL1        0.0432
     34 C           3.1936   -1.0045   22.8765 C.ar    1  UNL1       -0.0234
     35 C           2.3778   -0.2840   21.8444 C.ar    1  UNL1       -0.0045
     36 C           1.4946    0.8585   22.2501 C.ar    1  UNL1       -0.0003
     37 C           1.4272    1.2805   23.6879 C.ar    1  UNL1       -0.0003
     38 C           2.2430    0.5601   24.7200 C.ar    1  UNL1       -0.0032
     39 C           3.1262   -0.5824   24.3144 C.ar    1  UNL1       -0.0103
     40 C           3.9421   -1.3029   25.3465 C.3     1  UNL1        0.0953
     41 N           4.8252   -2.4454   24.9409 N.3     1  UNL1       -0.2934
     42 H           4.5166   -3.2594   25.4725 H       1  UNL1        0.1236
@<TRIPOS>BOND
     1    18    19   ar
     2    19    20   ar
     3    20    21   ar
     4    21    17    1
     5    17    16    1
     6    16    15    1
     7    15    14    1
     8    14    13    1
     9    13    12    1
    10    12     1    1
    11     1    31    1
    12    32    31    1
    13    32    33    1
    14    33    34    1
    15    34    35   ar
    16    35    36   ar
    17    36    37   ar
    18    37    38   ar
    19    38    39   ar
    20    39    40    1
    21    40    41    1
    22     2     1    1
    23     2     3    1
    24     3     4    1
    25     4     5    1
    26     5     6    1
    27     6     7   ar
    28     7     8   ar
    29     8     9   ar
    30     9    10   ar
    31    10    11   ar
    32    16    24    1
    33    24    25    1
    34    25    26   ar
    35    26    27   ar
    36    27    28   ar
    37    28    29   ar
    38    29    30   ar
    39    21    22   ar
    40    22    23   ar
    41    23    18   ar
    42    41    32    1
    43    11     2    1
    44    30    25   ar
    45    39    34   ar
    46    11     6   ar
    47    41    42    1
@<TRIPOS>MOLECULE
*****
 42 47 0 0 0
SMALL
GASTEIGER

@<TRIPOS>ATOM
      1 N           0.0089    2.6788   19.9990 N.3     1  UNL1       -0.2679
      2 C          -1.0021    3.2411   19.0442 C.3     1  UNL1        0.0978
      3 C          -0.5820    3.6551   17.6650 C.3     1  UNL1        0.0224
      4 C          -1.5930    4.2174   16.7102 C.3     1  UNL1        0.0065
      5 C          -3.0240    4.3658   17.1345 C.3     1  UNL1        0.0277
      6 C          -3.4441    3.9519   18.5136 C.ar    1  UNL1       -0.0073
      7 C          -4.8752    4.1003   18.9380 C.ar    1  UNL1       -0.0015
      8 C          -5.2953    3.6864   20.3172 C.ar    1  UNL1        0.0203
      9 C          -4.2843    3.1240   21.2720 C.ar    1  UNL1        0.0985
     10 N          -2.8533    2.9756   20.8477 N.ar    1  UNL1       -0.2471
     11 C          -2.4331    3.3895   19.4685 C.ar    1  UNL1        0.0695
     12 C           0.8435    3.6014   20.8369 C.3     1  UNL1        0.0725
     13 C           0.2113    4.3792   21.9530 C.3     1  UNL1        0.0188
     14 C          -0.0626    3.7142   23.2693 C.3     1  UNL1        0.0188
     15 C           1.0379    3.5653   24.2776 C.3     1  UNL1        0.0728
     16 N           1.5902    2.2060   24.5898 N.3     1  UNL1       -0.2626
     17 C           2.1876    1.9307   25.9378 C.3     1  UNL1        0.1189
     18 C          -0.2499   -0.1503   29.0967 C.ar    1  UNL1        0.0207
     19 C          -0.9341    0.6403   28.0211 C.ar    1  UNL1        0.0028
     20 C          -0.1216    1.3340   26.9682 C.ar    1  UNL1        0.0161
     21 C           1.3751    1.2370   26.9908 C.ar    1  UNL1        0.0752
     22 N           2.0593    0.4464   28.0663 N.ar    1  UNL1       -0.2468
     23 C           1.2468   -0.2473   29.1192 C.ar    1  UNL1        0.0985
     24 C           1.5451    1.1221   23.5539 C.3     1  UNL1        0.1189
     25 C           2.8208    0.5397   23.0217 C.ar    1  UNL1        0.0752
     26 C           3.2065   -0.8670   23.3717 C.ar    1  UNL1        0.0161
     27 C           4.4822   -1.4494   22.8396 C.ar    1  UNL1        0.0028
     28 C           5.3723   -0.6252   21.9573 C.ar    1  UNL1        0.0207
     29 C           4.9867    0.7815   21.6072 C.ar    1  UNL1        0.0985
     30 N           3.7109    1.3639   22.1394 N.ar    1  UNL1       -0.2468
     31 C           0.1851    1.1938   20.1161 C.3     1  UNL1        0.0886
     32 C           1.4099    0.5371   19.5513 C.3     1  UNL1        0.0748
     33 C           1.7382   -0.8796   19.9187 C.3     1  UNL1        0.0432
     34 C           2.9629   -1.5363   19.3540 C.ar    1  UNL1       -0.0234
     35 C           3.2913   -2.9530   19.7214 C.ar    1  UNL1       -0.0045
     36 C           4.5159   -3.6097   19.1566 C.ar    1  UNL1       -0.0003
     37 C           5.4122   -2.8496   18.2245 C.ar    1  UNL1       -0.0003
     38 C           5.0839   -1.4329   17.8571 C.ar    1  UNL1       -0.0032
     39 C           3.8592   -0.7762   18.4218 C.ar    1  UNL1       -0.0103
     40 C           3.5308    0.6406   18.0544 C.3     1  UNL1        0.0953
     41 N           2.3062    1.2972   18.6191 N.3     1  UNL1       -0.2934
     42 H           1.7321    1.5818   17.8255 H       1  UNL1        0.1236
@<TRIPOS>BOND
     1    18    19   ar
     2    19    20   ar
     3    20    21   ar
     4    21    17    1
     5    17    16    1
     6    16    15    1
     7    15    14    1
     8    14    13    1
     9    13    12    1
    10    12     1    1
    11     1    31    1
    12    32    31    1
    13    32    33    1
    14    33    34    1
    15    34    35   ar
    16    35    36   ar
    17    36    37   ar
    18    37    38   ar
    19    38    39   ar
    20    39    40    1
    21    40    41    1
    22     2     1    1
    23     2     3    1
    24     3     4    1
    25     4     5    1
    26     5     6    1
    27     6     7   ar
    28     7     8   ar
    29     8     9   ar
    30     9    10   ar
    31    10    11   ar
    32    16    24    1
    33    24    25    1
    34    25    26   ar
    35    26    27   ar
    36    27    28   ar
    37    28    29   ar
    38    29    30   ar
    39    21    22   ar
    40    22    23   ar
    41    23    18   ar
    42    41    32    1
    43    11     2    1
    44    30    25   ar
    45    39    34   ar
    46    11     6   ar
    47    41    42    1
@<TRIPOS>MOLECULE
*****
 42 47 0 0 0
SMALL
GASTEIGER

@<TRIPOS>ATOM
      1 N           4.9956   -2.2264   22.7832 N.3     1  UNL1       -0.2679
      2 C           4.5827   -2.7153   21.4266 C.3     1  UNL1        0.0978
      3 C           4.2869   -4.1700   21.2116 C.3     1  UNL1        0.0224
      4 C           3.8740   -4.6588   19.8549 C.3     1  UNL1        0.0065
      5 C           3.7570   -3.6930   18.7133 C.3     1  UNL1        0.0277
      6 C           4.0528   -2.2383   18.9283 C.ar    1  UNL1       -0.0073
      7 C           3.9358   -1.2724   17.7866 C.ar    1  UNL1       -0.0015
      8 C           4.2317    0.1823   18.0016 C.ar    1  UNL1        0.0203
      9 C           4.6446    0.6712   19.3582 C.ar    1  UNL1        0.0985
     10 N           4.7616   -0.2947   20.4999 N.ar    1  UNL1       -0.2471
     11 C           4.4657   -1.7495   20.2849 C.ar    1  UNL1        0.0695
     12 C           3.9704   -1.6604   23.7206 C.3     1  UNL1        0.0725
     13 C           4.4059   -0.8988   24.9372 C.3     1  UNL1        0.0188
     14 C           4.5056   -1.5950   26.2621 C.3     1  UNL1        0.0188
     15 C           3.5068   -1.2997   27.3415 C.3     1  UNL1        0.0728
     16 N           3.9617   -0.7090   28.6431 N.3     1  UNL1       -0.2626
     17 C           2.9764   -0.0172   29.5378 C.3     1  UNL1        0.1189
     18 C          -1.0188    1.2697   27.9152 C.ar    1  UNL1        0.0207
     19 C           0.2217    2.0250   27.5399 C.ar    1  UNL1        0.0028
     20 C           1.5534    1.5961   28.0808 C.ar    1  UNL1        0.0161
     21 C           1.6446    0.4118   28.9969 C.ar    1  UNL1        0.0752
     22 N           0.4042   -0.3434   29.3722 N.ar    1  UNL1       -0.2468
     23 C          -0.9275    0.0856   28.8313 C.ar    1  UNL1        0.0985
     24 C           5.4019   -0.8101   29.0500 C.3     1  UNL1        0.1189
     25 C           5.8670   -1.9694   29.8804 C.ar    1  UNL1        0.0752
     26 C           6.5695   -3.1241   29.2298 C.ar    1  UNL1        0.0161
     27 C           7.0346   -4.2833   30.0603 C.ar    1  UNL1        0.0028
     28 C           6.7973   -4.2880   31.5414 C.ar    1  UNL1        0.0207
     29 C           6.0948   -3.1334   32.1920 C.ar    1  UNL1        0.0985
     30 N           5.6297   -1.9740   31.3615 N.ar    1  UNL1       -0.2468
     31 C           6.4337   -2.3035   23.2026 C.3     1  UNL1        0.0886
     32 C           7.0328   -3.6235   23.5883 C.3     1  UNL1        0.0748
     33 C           6.7749   -4.1946   24.9511 C.3     1  UNL1        0.0432
     34 C           7.3739   -5.5147   25.3369 C.ar    1  UNL1       -0.0234
     35 C           7.1160   -6.0857   26.6997 C.ar    1  UNL1       -0.0045
     36 C           7.7151   -7.4057   27.0854 C.ar    1  UNL1       -0.0003
     37 C           8.5720   -8.1546   26.1082 C.ar    1  UNL1       -0.0003
     38 C           8.8300   -7.5835   24.7454 C.ar    1  UNL1       -0.0032
     39 C           8.2309   -6.2635   24.3597 C.ar    1  UNL1       -0.0103
     40 C           8.4888   -5.6924   22.9969 C.3     1  UNL1        0.0953
     41 N           7.8898   -4.3724   22.6112 N.3     1  UNL1       -0.2934
     42 H           7.3163   -4.5396   21.7844 H       1  UNL1        0.1236
@<TRIPOS>BOND
     1    18    19   ar
     2    19    20   ar
     3    20    21   ar
     4    21    17    1
     5    17    16    1
     6    16    15    1
     7    15    14    1
     8    14    13    1
     9    13    12    1
    10    12     1    1
    11     1    31    1
    12    32    31    1
    13    32    33    1
    14    33    34    1
    15    34    35   ar
    16    35    36   ar
    17    36    37   ar
    18    37    38   ar
    19    38    39   ar
    20    39    40    1
    21    40    41    1
    22     2     1    1
    23     2     3    1
    24     3     4    1
    25     4     5    1
    26     5     6    1
    27     6     7   ar
    28     7     8   ar
    29     8     9   ar
    30     9    10   ar
    31    10    11   ar
    32    16    24    1
    33    24    25    1
    34    25    26   ar
    35    26    27   ar
    36    27    28   ar
    37    28    29   ar
    38    29    30   ar
    39    21    22   ar
    40    22    23   ar
    41    23    18   ar
    42    41    32    1
    43    11     2    1
    44    30    25   ar
    45    39    34   ar
    46    11     6   ar
    47    41    42    1
@<TRIPOS>MOLECULE
*****
 42 47 0 0 0
SMALL
GASTEIGER

@<TRIPOS>ATOM
      1 N           5.1777   -2.2394   22.7280 N.3     1  UNL1       -0.2679
      2 C           4.6928   -2.7355   21.3980 C.3     1  UNL1        0.0978
      3 C           4.3429   -4.1831   21.2197 C.3     1  UNL1        0.0224
      4 C           3.8580   -4.6792   19.8898 C.3     1  UNL1        0.0065
      5 C           3.7231   -3.7277   18.7381 C.3     1  UNL1        0.0277
      6 C           4.0731   -2.2801   18.9164 C.ar    1  UNL1       -0.0073
      7 C           3.9382   -1.3285   17.7647 C.ar    1  UNL1       -0.0015
      8 C           4.2881    0.1191   17.9430 C.ar    1  UNL1        0.0203
      9 C           4.7730    0.6153   19.2729 C.ar    1  UNL1        0.0985
     10 N           4.9079   -0.3362   20.4246 N.ar    1  UNL1       -0.2471
     11 C           4.5579   -1.7840   20.2463 C.ar    1  UNL1        0.0695
     12 C           4.2028   -1.6769   23.7194 C.3     1  UNL1        0.0725
     13 C           4.6342   -1.4209   25.1331 C.3     1  UNL1        0.0188
     14 C           3.6952   -0.7553   26.0950 C.3     1  UNL1        0.0188
     15 C           3.4647   -1.3514   27.4520 C.3     1  UNL1        0.0728
     16 N           3.8584   -0.5895   28.6826 N.3     1  UNL1       -0.2626
     17 C           5.0216   -1.0503   29.5100 C.3     1  UNL1        0.1189
     18 C           8.6790   -2.7407   27.5060 C.ar    1  UNL1        0.0207
     19 C           7.9207   -3.5664   28.5028 C.ar    1  UNL1        0.0028
     20 C           6.7016   -3.0029   29.1708 C.ar    1  UNL1        0.0161
     21 C           6.2407   -1.6138   28.8420 C.ar    1  UNL1        0.0752
     22 N           6.9989   -0.7882   27.8453 N.ar    1  UNL1       -0.2468
     23 C           8.2181   -1.3517   27.1773 C.ar    1  UNL1        0.0985
     24 C           3.0889    0.6334   29.0859 C.3     1  UNL1        0.1189
     25 C           1.6207    0.7260   28.7930 C.ar    1  UNL1        0.0752
     26 C           1.0978    1.8296   27.9220 C.ar    1  UNL1        0.0161
     27 C          -0.3704    1.9222   27.6292 C.ar    1  UNL1        0.0028
     28 C          -1.3157    0.9113   28.2073 C.ar    1  UNL1        0.0207
     29 C          -0.7929   -0.1924   29.0783 C.ar    1  UNL1        0.0985
     30 N           0.6754   -0.2850   29.3711 N.ar    1  UNL1       -0.2468
     31 C           6.6375   -2.3057   23.0664 C.3     1  UNL1        0.0886
     32 C           7.2550   -3.6116   23.4708 C.3     1  UNL1        0.0748
     33 C           6.8067   -4.2958   24.7280 C.3     1  UNL1        0.0432
     34 C           7.4243   -5.6017   25.1324 C.ar    1  UNL1       -0.0234
     35 C           6.9759   -6.2859   26.3896 C.ar    1  UNL1       -0.0045
     36 C           7.5935   -7.5917   26.7939 C.ar    1  UNL1       -0.0003
     37 C           8.6594   -8.2132   25.9410 C.ar    1  UNL1       -0.0003
     38 C           9.1077   -7.5290   24.6838 C.ar    1  UNL1       -0.0032
     39 C           8.4902   -6.2232   24.2795 C.ar    1  UNL1       -0.0103
     40 C           8.9385   -5.5389   23.0221 C.3     1  UNL1        0.0953
     41 N           8.3210   -4.2331   22.6178 N.3     1  UNL1       -0.2934
     42 H           7.9136   -4.3738   21.6934 H       1  UNL1        0.1236
@<TRIPOS>BOND
     1    18    19   ar
     2    19    20   ar
     3    20    21   ar
     4    21    17    1
     5    17    16    1
     6    16    15    1
     7    15    14    1
     8    14    13    1
     9    13    12    1
    10    12     1    1
    11     1    31    1
    12    32    31    1
    13    32    33    1
    14    33    34    1
    15    34    35   ar
    16    35    36   ar
    17    36    37   ar
    18    37    38   ar
    19    38    39   ar
    20    39    40    1
    21    40    41    1
    22     2     1    1
    23     2     3    1
    24     3     4    1
    25     4     5    1
    26     5     6    1
    27     6     7   ar
    28     7     8   ar
    29     8     9   ar
    30     9    10   ar
    31    10    11   ar
    32    16    24    1
    33    24    25    1
    34    25    26   ar
    35    26    27   ar
    36    27    28   ar
    37    28    29   ar
    38    29    30   ar
    39    21    22   ar
    40    22    23   ar
    41    23    18   ar
    42    41    32    1
    43    11     2    1
    44    30    25   ar
    45    39    34   ar
    46    11     6   ar
    47    41    42    1
@<TRIPOS>MOLECULE
*****
 42 47 0 0 0
SMALL
GASTEIGER

@<TRIPOS>ATOM
      1 N           5.9218   -1.7720   26.2082 N.3     1  UNL1       -0.2679
      2 C           6.3343   -3.1837   26.5026 C.3     1  UNL1        0.0978
      3 C           6.5671   -4.1473   25.3769 C.3     1  UNL1        0.0224
      4 C           6.9797   -5.5591   25.6713 C.3     1  UNL1        0.0065
      5 C           7.1594   -6.0073   27.0914 C.3     1  UNL1        0.0277
      6 C           6.9266   -5.0437   28.2171 C.ar    1  UNL1       -0.0073
      7 C           7.1063   -5.4919   29.6373 C.ar    1  UNL1       -0.0015
      8 C           6.8734   -4.5283   30.7630 C.ar    1  UNL1        0.0203
      9 C           6.4609   -3.1165   30.4686 C.ar    1  UNL1        0.0985
     10 N           6.2812   -2.6683   29.0485 N.ar    1  UNL1       -0.2471
     11 C           6.5140   -3.6319   27.9227 C.ar    1  UNL1        0.0695
     12 C           6.9261   -0.7922   25.6777 C.3     1  UNL1        0.0725
     13 C           8.3169   -1.2478   25.3488 C.3     1  UNL1        0.0188
     14 C           8.7812   -1.2703   23.9227 C.3     1  UNL1        0.0188
     15 C           8.0888   -2.1477   22.9224 C.3     1  UNL1        0.0728
     16 N           8.0828   -1.7701   21.4706 N.3     1  UNL1       -0.2626
     17 C           7.9354   -2.8308   20.4204 C.3     1  UNL1        0.1189
     18 C           3.8414   -4.0075   18.9697 C.ar    1  UNL1        0.0207
     19 C           4.6715   -3.0450   18.1730 C.ar    1  UNL1        0.0028
     20 C           6.0362   -2.6528   18.6565 C.ar    1  UNL1        0.0161
     21 C           6.5708   -3.2231   19.9368 C.ar    1  UNL1        0.0752
     22 N           5.7407   -4.1855   20.7335 N.ar    1  UNL1       -0.2468
     23 C           4.3761   -4.5778   20.2499 C.ar    1  UNL1        0.0985
     24 C           8.2241   -0.3317   21.0693 C.3     1  UNL1        0.1189
     25 C           7.0044    0.5283   20.9188 C.ar    1  UNL1        0.0752
     26 C           6.3664    1.1433   22.1290 C.ar    1  UNL1        0.0161
     27 C           5.1467    2.0033   21.9785 C.ar    1  UNL1        0.0028
     28 C           4.5650    2.2483   20.6178 C.ar    1  UNL1        0.0207
     29 C           5.2029    1.6333   19.4075 C.ar    1  UNL1        0.0985
     30 N           6.4227    0.7732   19.5580 N.ar    1  UNL1       -0.2468
     31 C           4.5049   -1.3399   26.4443 C.3     1  UNL1        0.0886
     32 C           3.6785   -0.8230   25.3040 C.3     1  UNL1        0.0748
     33 C           3.9186   -1.3307   23.9132 C.3     1  UNL1        0.0432
     34 C           3.0922   -0.8139   22.7730 C.ar    1  UNL1       -0.0234
     35 C           3.3323   -1.3216   21.3821 C.ar    1  UNL1       -0.0045
     36 C           2.5060   -0.8047   20.2420 C.ar    1  UNL1       -0.0003
     37 C           1.4395    0.2198   20.4928 C.ar    1  UNL1       -0.0003
     38 C           1.1993    0.7275   21.8836 C.ar    1  UNL1       -0.0032
     39 C           2.0257    0.2107   23.0237 C.ar    1  UNL1       -0.0103
     40 C           1.7856    0.7184   24.4147 C.3     1  UNL1        0.0953
     41 N           2.6120    0.2015   25.5548 N.3     1  UNL1       -0.2934
     42 H           1.9631   -0.2074   26.2271 H       1  UNL1        0.1236
@<TRIPOS>BOND
     1    18    19   ar
     2    19    20   ar
     3    20    21   ar
     4    21    17    1
     5    17    16    1
     6    16    15    1
     7    15    14    1
     8    14    13    1
     9    13    12    1
    10    12     1    1
    11     1    31    1
    12    32    31    1
    13    32    33    1
    14    33    34    1
    15    34    35   ar
    16    35    36   ar
    17    36    37   ar
    18    37    38   ar
    19    38    39   ar
    20    39    40    1
    21    40    41    1
    22     2     1    1
    23     2     3    1
    24     3     4    1
    25     4     5    1
    26     5     6    1
    27     6     7   ar
    28     7     8   ar
    29     8     9   ar
    30     9    10   ar
    31    10    11   ar
    32    16    24    1
    33    24    25    1
    34    25    26   ar
    35    26    27   ar
    36    27    28   ar
    37    28    29   ar
    38    29    30   ar
    39    21    22   ar
    40    22    23   ar
    41    23    18   ar
    42    41    32    1
    43    11     2    1
    44    30    25   ar
    45    39    34   ar
    46    11     6   ar
    47    41    42    1
@<TRIPOS>MOLECULE
*****
 42 47 0 0 0
SMALL
GASTEIGER

@<TRIPOS>ATOM
      1 N           7.0861   -2.1421   21.6501 N.3     1  UNL1       -0.2679
      2 C           5.9243   -2.5011   20.7719 C.3     1  UNL1        0.0978
      3 C           5.0293   -3.6463   21.1430 C.3     1  UNL1        0.0224
      4 C           3.8675   -4.0053   20.2648 C.3     1  UNL1        0.0065
      5 C           3.6005   -3.2191   19.0155 C.3     1  UNL1        0.0277
      6 C           4.4955   -2.0740   18.6445 C.ar    1  UNL1       -0.0073
      7 C           4.2286   -1.2878   17.3952 C.ar    1  UNL1       -0.0015
      8 C           5.1235   -0.1427   17.0241 C.ar    1  UNL1        0.0203
      9 C           6.2853    0.2163   17.9023 C.ar    1  UNL1        0.0985
     10 N           6.5523   -0.5698   19.1515 N.ar    1  UNL1       -0.2471
     11 C           5.6573   -1.7150   19.5227 C.ar    1  UNL1        0.0695
     12 C           7.0297   -0.9085   22.5015 C.3     1  UNL1        0.0725
     13 C           6.2626   -0.9213   23.7905 C.3     1  UNL1        0.0188
     14 C           5.7222    0.3593   24.3544 C.3     1  UNL1        0.0188
     15 C           4.5186    1.0036   23.7329 C.3     1  UNL1        0.0728
     16 N           3.2692    0.2032   23.5126 N.3     1  UNL1       -0.2626
     17 C           2.1889    0.1977   24.5532 C.3     1  UNL1        0.1189
     18 C          -1.1077    3.2565   24.3904 C.ar    1  UNL1        0.0207
     19 C          -0.9896    2.3434   25.5747 C.ar    1  UNL1        0.0028
     20 C           0.1093    1.3238   25.6290 C.ar    1  UNL1        0.0161
     21 C           1.0900    1.2173   24.4989 C.ar    1  UNL1        0.0752
     22 N           0.9719    2.1303   23.3147 N.ar    1  UNL1       -0.2468
     23 C          -0.1270    3.1499   23.2605 C.ar    1  UNL1        0.0985
     24 C           3.1001   -0.5915   22.2518 C.3     1  UNL1        0.1189
     25 C           2.6736    0.0914   20.9862 C.ar    1  UNL1        0.0752
     26 C           3.4992    1.2098   20.4226 C.ar    1  UNL1        0.0161
     27 C           3.0727    1.8928   19.1570 C.ar    1  UNL1        0.0028
     28 C           1.8206    1.4573   18.4551 C.ar    1  UNL1        0.0207
     29 C           0.9950    0.3390   19.0187 C.ar    1  UNL1        0.0985
     30 N           1.4215   -0.3440   20.2843 N.ar    1  UNL1       -0.2468
     31 C           8.3044   -3.0167   21.6769 C.3     1  UNL1        0.0886
     32 C           8.3264   -4.2462   22.5360 C.3     1  UNL1        0.0748
     33 C           7.6073   -4.2542   23.8524 C.3     1  UNL1        0.0432
     34 C           7.6293   -5.4836   24.7116 C.ar    1  UNL1       -0.0234
     35 C           6.9103   -5.4916   26.0279 C.ar    1  UNL1       -0.0045
     36 C           6.9323   -6.7210   26.8870 C.ar    1  UNL1       -0.0003
     37 C           7.6733   -7.9424   26.4297 C.ar    1  UNL1       -0.0003
     38 C           8.3923   -7.9344   25.1133 C.ar    1  UNL1       -0.0032
     39 C           8.3703   -6.7050   24.2542 C.ar    1  UNL1       -0.0103
     40 C           9.0893   -6.6970   22.9378 C.3     1  UNL1        0.0953
     41 N           9.0673   -5.4676   22.0787 N.3     1  UNL1       -0.2934
     42 H           8.6608   -5.7408   21.1840 H       1  UNL1        0.1236
@<TRIPOS>BOND
     1    18    19   ar
     2    19    20   ar
     3    20    21   ar
     4    21    17    1
     5    17    16    1
     6    16    15    1
     7    15    14    1
     8    14    13    1
     9    13    12    1
    10    12     1    1
    11     1    31    1
    12    32    31    1
    13    32    33    1
    14    33    34    1
    15    34    35   ar
    16    35    36   ar
    17    36    37   ar
    18    37    38   ar
    19    38    39   ar
    20    39    40    1
    21    40    41    1
    22     2     1    1
    23     2     3    1
    24     3     4    1
    25     4     5    1
    26     5     6    1
    27     6     7   ar
    28     7     8   ar
    29     8     9   ar
    30     9    10   ar
    31    10    11   ar
    32    16    24    1
    33    24    25    1
    34    25    26   ar
    35    26    27   ar
    36    27    28   ar
    37    28    29   ar
    38    29    30   ar
    39    21    22   ar
    40    22    23   ar
    41    23    18   ar
    42    41    32    1
    43    11     2    1
    44    30    25   ar
    45    39    34   ar
    46    11     6   ar
    47    41    42    1
@<TRIPOS>MOLECULE
*****
 42 47 0 0 0
SMALL
GASTEIGER

@<TRIPOS>ATOM
      1 N           5.0242   -1.1824   23.2658 N.3     1  UNL1       -0.2679
      2 C           4.7144   -0.9255   21.8208 C.3     1  UNL1        0.0978
      3 C           4.6528    0.4819   21.3056 C.3     1  UNL1        0.0224
      4 C           4.3429    0.7387   19.8606 C.3     1  UNL1        0.0065
      5 C           4.0948   -0.4118   18.9307 C.3     1  UNL1        0.0277
      6 C           4.1564   -1.8192   19.4459 C.ar    1  UNL1       -0.0073
      7 C           3.9082   -2.9698   18.5160 C.ar    1  UNL1       -0.0015
      8 C           3.9698   -4.3772   19.0312 C.ar    1  UNL1        0.0203
      9 C           4.2796   -4.6340   20.4762 C.ar    1  UNL1        0.0985
     10 N           4.5278   -3.4835   21.4061 N.ar    1  UNL1       -0.2471
     11 C           4.4662   -2.0760   20.8909 C.ar    1  UNL1        0.0695
     12 C           3.9248   -1.1504   24.2857 C.3     1  UNL1        0.0725
     13 C           4.0932   -0.3534   25.5453 C.3     1  UNL1        0.0188
     14 C           4.4770   -1.0407   26.8221 C.3     1  UNL1        0.0188
     15 C           3.4442   -1.2854   27.8819 C.3     1  UNL1        0.0728
     16 N           3.5911   -0.6509   29.2331 N.3     1  UNL1       -0.2626
     17 C           2.3840   -0.1191   29.9472 C.3     1  UNL1        0.1189
     18 C          -0.9615    1.7746   27.6081 C.ar    1  UNL1        0.0207
     19 C          -1.1925    0.4836   28.3362 C.ar    1  UNL1        0.0028
     20 C          -0.0774   -0.1476   29.1159 C.ar    1  UNL1        0.0161
     21 C           1.2688    0.5122   29.1675 C.ar    1  UNL1        0.0752
     22 N           1.4998    1.8031   28.4394 N.ar    1  UNL1       -0.2468
     23 C           0.3846    2.4343   27.6597 C.ar    1  UNL1        0.0985
     24 C           4.9452   -0.5481   29.8702 C.3     1  UNL1        0.1189
     25 C           5.5980   -1.7699   30.4455 C.ar    1  UNL1        0.0752
     26 C           6.4423   -2.6506   29.5728 C.ar    1  UNL1        0.0161
     27 C           7.0951   -3.8723   30.1481 C.ar    1  UNL1        0.0028
     28 C           6.9037   -4.2135   31.5962 C.ar    1  UNL1        0.0207
     29 C           6.0595   -3.3329   32.4690 C.ar    1  UNL1        0.0985
     30 N           5.4066   -2.1110   31.8936 N.ar    1  UNL1       -0.2468
     31 C           6.4334   -1.4712   23.6908 C.3     1  UNL1        0.0886
     32 C           6.8919   -2.8902   23.8533 C.3     1  UNL1        0.0748
     33 C           6.6733   -3.6047   25.1539 C.3     1  UNL1        0.0432
     34 C           7.1318   -5.0237   25.3164 C.ar    1  UNL1       -0.0234
     35 C           6.9132   -5.7383   26.6169 C.ar    1  UNL1       -0.0045
     36 C           7.3717   -7.1572   26.7794 C.ar    1  UNL1       -0.0003
     37 C           8.0488   -7.8615   25.6412 C.ar    1  UNL1       -0.0003
     38 C           8.2674   -7.1470   24.3406 C.ar    1  UNL1       -0.0032
     39 C           7.8089   -5.7281   24.1782 C.ar    1  UNL1       -0.0103
     40 C           8.0275   -5.0134   22.8775 C.3     1  UNL1        0.0953
     41 N           7.5690   -3.5945   22.7151 N.3     1  UNL1       -0.2934
     42 H           6.9156   -3.5840   21.9319 H       1  UNL1        0.1236
@<TRIPOS>BOND
     1    18    19   ar
     2    19    20   ar
     3    20    21   ar
     4    21    17    1
     5    17    16    1
     6    16    15    1
     7    15    14    1
     8    14    13    1
     9    13    12    1
    10    12     1    1
    11     1    31    1
    12    32    31    1
    13    32    33    1
    14    33    34    1
    15    34    35   ar
    16    35    36   ar
    17    36    37   ar
    18    37    38   ar
    19    38    39   ar
    20    39    40    1
    21    40    41    1
    22     2     1    1
    23     2     3    1
    24     3     4    1
    25     4     5    1
    26     5     6    1
    27     6     7   ar
    28     7     8   ar
    29     8     9   ar
    30     9    10   ar
    31    10    11   ar
    32    16    24    1
    33    24    25    1
    34    25    26   ar
    35    26    27   ar
    36    27    28   ar
    37    28    29   ar
    38    29    30   ar
    39    21    22   ar
    40    22    23   ar
    41    23    18   ar
    42    41    32    1
    43    11     2    1
    44    30    25   ar
    45    39    34   ar
    46    11     6   ar
    47    41    42    1
