@<TRIPOS>MOLECULE
*****
 31 32 0 0 0
SMALL
GASTEIGER

@<TRIPOS>ATOM
      1 C          -9.6471  -19.6356   19.8648 C.3     1  UNL1        0.0077
      2 C         -10.8320  -19.6549   20.7845 C.3     1  UNL1        0.0475
      3 C         -11.6477  -18.4119   20.9829 C.3     1  UNL1        0.2054
      4 O         -11.6355  -17.7105   22.3088 O.3     1  UNL1       -0.4755
      5 C          -7.8427  -15.8164   23.8176 C.ar    1  UNL1        0.0815
      6 C          -8.2711  -15.6074   22.3954 C.ar    1  UNL1        0.0105
      7 C          -9.5354  -16.2388   21.8924 C.ar    1  UNL1        0.0371
      8 C         -10.3712  -17.0792   22.8117 C.ar    1  UNL1        0.1386
      9 C          -9.9428  -17.2881   24.2339 C.ar    1  UNL1        0.0371
     10 C          -8.6785  -16.6568   24.7369 C.ar    1  UNL1        0.0105
     11 N          -5.4688  -14.8631   23.3640 N.2     1  UNL1       -0.0994
     12 C          -6.5784  -15.1851   24.3205 C.2     1  UNL1        0.3093
     13 N          -6.4237  -14.8756   25.7801 N.pl3   1  UNL1       -0.2466
     14 H          -4.6390  -14.4487   23.6941 H       1  UNL1        0.3633
     15 H          -5.5939  -14.4613   26.1102 H       1  UNL1        0.2884
     16 H          -7.1519  -15.0870   26.4080 H       1  UNL1        0.2884
     17 C          -8.2965  -19.2480   20.3897 C.3     1  UNL1        0.0475
     18 C          -7.9191  -19.5757   21.8040 C.3     1  UNL1        0.2054
     19 O          -6.6517  -20.3262   22.0874 O.3     1  UNL1       -0.4755
     20 C          -5.3444  -19.8184   21.5551 C.ar    1  UNL1        0.1386
     21 C          -4.8340  -20.3047   20.2311 C.ar    1  UNL1        0.0371
     22 C          -3.5268  -19.7970   19.6989 C.ar    1  UNL1        0.0105
     23 C          -2.7300  -18.8029   20.4906 C.ar    1  UNL1        0.0815
     24 C          -3.2403  -18.3166   21.8146 C.ar    1  UNL1        0.0105
     25 C          -4.5476  -18.8243   22.3468 C.ar    1  UNL1        0.0371
     26 C          -1.4227  -18.2951   19.9583 C.2     1  UNL1        0.3093
     27 N          -0.2464  -18.1450   20.8769 N.2     1  UNL1       -0.0994
     28 N          -1.2917  -17.9375   18.5075 N.pl3   1  UNL1       -0.2466
     29 H          -0.3323  -18.3797   21.8292 H       1  UNL1        0.3633
     30 H          -2.0638  -18.0360   17.9046 H       1  UNL1        0.2884
     31 H          -0.4337  -17.6043   18.1582 H       1  UNL1        0.2884
@<TRIPOS>BOND
     1    11    12    2
     2    12    13    1
     3    12     5    1
     4     5     6   ar
     5     6     7   ar
     6     7     8   ar
     7     8     4    1
     8     4     3    1
     9     3     2    1
    10     2     1    1
    11     1    17    1
    12    17    18    1
    13    18    19    1
    14    19    20    1
    15    20    21   ar
    16    21    22   ar
    17    22    23   ar
    18    23    26    1
    19    26    27    2
    20    26    28    1
    21    23    24   ar
    22    24    25   ar
    23     8     9   ar
    24     9    10   ar
    25    10     5   ar
    26    25    20   ar
    27    11    14    1
    28    13    15    1
    29    13    16    1
    30    27    29    1
    31    28    30    1
    32    28    31    1
@<TRIPOS>MOLECULE
*****
 31 32 0 0 0
SMALL
GASTEIGER

@<TRIPOS>ATOM
      1 C          -9.6324  -19.6045   20.1399 C.3     1  UNL1        0.0077
      2 C          -8.2998  -19.1222   20.6316 C.3     1  UNL1        0.0475
      3 C          -7.8148  -19.5189   21.9944 C.3     1  UNL1        0.2054
      4 O          -6.5552  -20.3205   22.1382 O.3     1  UNL1       -0.4755
      5 C          -2.6938  -18.7707   20.4242 C.ar    1  UNL1        0.0815
      6 C          -3.1608  -18.2977   21.7689 C.ar    1  UNL1        0.0105
      7 C          -4.4479  -18.8144   22.3402 C.ar    1  UNL1        0.0371
      8 C          -5.2680  -19.8039   21.5669 C.ar    1  UNL1        0.1386
      9 C          -4.8011  -20.2769   20.2222 C.ar    1  UNL1        0.0371
     10 C          -3.5140  -19.7602   19.6509 C.ar    1  UNL1        0.0105
     11 N          -0.2046  -18.0949   20.7358 N.2     1  UNL1       -0.0994
     12 C          -1.4067  -18.2541   19.8528 C.2     1  UNL1        0.3093
     13 N          -1.3217  -17.8966   18.3986 N.pl3   1  UNL1       -0.2466
     14 H           0.6401  -17.7558   20.3608 H       1  UNL1        0.3633
     15 H          -0.4769  -17.5575   18.0236 H       1  UNL1        0.2884
     16 H          -2.1106  -18.0011   17.8190 H       1  UNL1        0.2884
     17 C         -10.8216  -19.5830   21.0539 C.3     1  UNL1        0.0475
     18 C         -11.7129  -18.3773   21.0967 C.3     1  UNL1        0.2054
     19 O         -11.6994  -17.4769   22.2963 O.3     1  UNL1       -0.4755
     20 C         -10.4030  -16.9085   22.7929 C.ar    1  UNL1        0.1386
     21 C          -9.9657  -17.1606   24.2054 C.ar    1  UNL1        0.0371
     22 C          -8.6694  -16.5923   24.7019 C.ar    1  UNL1        0.0105
     23 C          -7.8104  -15.7719   23.7859 C.ar    1  UNL1        0.0815
     24 C          -8.2477  -15.5198   22.3734 C.ar    1  UNL1        0.0105
     25 C          -9.5440  -16.0881   21.8769 C.ar    1  UNL1        0.0371
     26 C          -6.5140  -15.2035   24.2825 C.2     1  UNL1        0.3093
     27 N          -5.4239  -14.8615   23.3106 N.2     1  UNL1       -0.0994
     28 N          -6.3079  -14.9773   25.7509 N.pl3   1  UNL1       -0.2466
     29 H          -5.5592  -15.0100   22.3468 H       1  UNL1        0.3633
     30 H          -7.0234  -15.2018   26.3888 H       1  UNL1        0.2884
     31 H          -5.4571  -14.6043   26.0768 H       1  UNL1        0.2884
@<TRIPOS>BOND
     1    11    12    2
     2    12    13    1
     3    12     5    1
     4     5     6   ar
     5     6     7   ar
     6     7     8   ar
     7     8     4    1
     8     4     3    1
     9     3     2    1
    10     2     1    1
    11     1    17    1
    12    17    18    1
    13    18    19    1
    14    19    20    1
    15    20    21   ar
    16    21    22   ar
    17    22    23   ar
    18    23    26    1
    19    26    27    2
    20    26    28    1
    21    23    24   ar
    22    24    25   ar
    23     8     9   ar
    24     9    10   ar
    25    10     5   ar
    26    25    20   ar
    27    11    14    1
    28    13    15    1
    29    13    16    1
    30    27    29    1
    31    28    30    1
    32    28    31    1
@<TRIPOS>MOLECULE
*****
 31 32 0 0 0
SMALL
GASTEIGER

@<TRIPOS>ATOM
      1 C         -10.2785  -20.1006   22.8559 C.3     1  UNL1        0.0077
      2 C         -10.6441  -19.5667   21.5025 C.3     1  UNL1        0.0475
      3 C         -11.6679  -18.4776   21.3775 C.3     1  UNL1        0.2054
      4 O         -11.6449  -17.3144   22.3242 O.3     1  UNL1       -0.4755
      5 C          -7.7166  -15.7093   23.8217 C.ar    1  UNL1        0.0815
      6 C          -8.0275  -15.6823   22.3546 C.ar    1  UNL1        0.0105
      7 C          -9.3370  -16.2173   21.8554 C.ar    1  UNL1        0.0371
      8 C         -10.3355  -16.7793   22.8234 C.ar    1  UNL1        0.1386
      9 C         -10.0246  -16.8064   24.2905 C.ar    1  UNL1        0.0371
     10 C          -8.7151  -16.2713   24.7897 C.ar    1  UNL1        0.0105
     11 N          -5.3072  -14.8589   23.3511 N.2     1  UNL1       -0.0994
     12 C          -6.4072  -15.1743   24.3209 C.2     1  UNL1        0.3093
     13 N          -6.1978  -14.9546   25.7898 N.pl3   1  UNL1       -0.2466
     14 H          -4.4478  -14.5077   23.6787 H       1  UNL1        0.3633
     15 H          -5.3384  -14.6035   26.1174 H       1  UNL1        0.2884
     16 H          -6.9197  -15.1616   26.4263 H       1  UNL1        0.2884
     17 C          -8.8551  -20.0429   23.3254 C.3     1  UNL1        0.0475
     18 C          -7.7714  -19.6104   22.3828 C.3     1  UNL1        0.2054
     19 O          -6.5969  -20.5080   22.1278 O.3     1  UNL1       -0.4755
     20 C          -5.3184  -19.9359   21.5908 C.ar    1  UNL1        0.1386
     21 C          -4.3854  -19.1975   22.5041 C.ar    1  UNL1        0.0371
     22 C          -3.1069  -18.6254   21.9671 C.ar    1  UNL1        0.0105
     23 C          -2.7616  -18.7919   20.5169 C.ar    1  UNL1        0.0815
     24 C          -3.6946  -19.5304   19.6037 C.ar    1  UNL1        0.0105
     25 C          -4.9730  -20.1024   20.1407 C.ar    1  UNL1        0.0371
     26 C          -1.4830  -18.2198   19.9800 C.2     1  UNL1        0.3093
     27 N          -0.3499  -17.9103   20.9128 N.2     1  UNL1       -0.0994
     28 N          -1.3377  -17.9574   18.5104 N.pl3   1  UNL1       -0.2466
     29 H          -0.4453  -18.0826   21.8774 H       1  UNL1        0.3633
     30 H          -2.0815  -18.1605   17.8981 H       1  UNL1        0.2884
     31 H          -0.4986  -17.5819   18.1580 H       1  UNL1        0.2884
@<TRIPOS>BOND
     1    11    12    2
     2    12    13    1
     3    12     5    1
     4     5     6   ar
     5     6     7   ar
     6     7     8   ar
     7     8     4    1
     8     4     3    1
     9     3     2    1
    10     2     1    1
    11     1    17    1
    12    17    18    1
    13    18    19    1
    14    19    20    1
    15    20    21   ar
    16    21    22   ar
    17    22    23   ar
    18    23    26    1
    19    26    27    2
    20    26    28    1
    21    23    24   ar
    22    24    25   ar
    23     8     9   ar
    24     9    10   ar
    25    10     5   ar
    26    25    20   ar
    27    11    14    1
    28    13    15    1
    29    13    16    1
    30    27    29    1
    31    28    30    1
    32    28    31    1
@<TRIPOS>MOLECULE
*****
 31 32 0 0 0
SMALL
GASTEIGER

@<TRIPOS>ATOM
      1 C          -5.6744  -15.3125   26.2952 C.3     1  UNL1        0.0077
      2 C          -5.9579  -15.0749   24.8415 C.3     1  UNL1        0.0475
      3 C          -5.7629  -16.1822   23.8486 C.3     1  UNL1        0.2054
      4 O          -4.6290  -17.1496   24.0171 O.3     1  UNL1       -0.4755
      5 C          -1.8026  -17.9207   20.6015 C.ar    1  UNL1        0.0815
      6 C          -2.7062  -19.0143   21.0888 C.ar    1  UNL1        0.0105
      7 C          -3.6483  -18.7573   22.2273 C.ar    1  UNL1        0.0371
      8 C          -3.6869  -17.4066   22.8786 C.ar    1  UNL1        0.1386
      9 C          -2.7833  -16.3130   22.3913 C.ar    1  UNL1        0.0371
     10 C          -1.8412  -16.5700   21.2527 C.ar    1  UNL1        0.0105
     11 N           0.4756  -18.8079   19.7227 N.2     1  UNL1       -0.0994
     12 C          -0.8605  -18.1777   19.4629 C.2     1  UNL1        0.3093
     13 N          -1.2545  -17.8044   18.0646 N.pl3   1  UNL1       -0.2466
     14 H           1.0940  -18.9766   18.9754 H       1  UNL1        0.3633
     15 H          -0.6361  -17.9731   17.3173 H       1  UNL1        0.2884
     16 H          -2.1314  -17.3908   17.8940 H       1  UNL1        0.2884
     17 C          -6.8057  -15.3882   27.2773 C.3     1  UNL1        0.0475
     18 C          -8.2042  -15.6324   26.7931 C.3     1  UNL1        0.2054
     19 O          -8.6840  -17.0348   26.5630 O.3     1  UNL1       -0.4755
     20 C          -9.3626  -17.3934   25.2741 C.ar    1  UNL1        0.1386
     21 C          -9.9217  -18.7715   25.0789 C.ar    1  UNL1        0.0371
     22 C         -10.6002  -19.1300   23.7901 C.ar    1  UNL1        0.0105
     23 C         -10.7196  -18.1103   22.6965 C.ar    1  UNL1        0.0815
     24 C         -10.1605  -16.7322   22.8916 C.ar    1  UNL1        0.0105
     25 C          -9.4820  -16.3737   24.1805 C.ar    1  UNL1        0.0371
     26 C         -11.3982  -18.4688   21.4076 C.2     1  UNL1        0.3093
     27 N         -12.4741  -17.5820   20.8545 N.2     1  UNL1       -0.0994
     28 N         -11.0008  -19.7142   20.6719 N.pl3   1  UNL1       -0.2466
     29 H         -12.7348  -16.7646   21.3373 H       1  UNL1        0.3633
     30 H         -10.2947  -20.2962   21.0350 H       1  UNL1        0.2884
     31 H         -11.4462  -19.9495   19.8260 H       1  UNL1        0.2884
@<TRIPOS>BOND
     1    11    12    2
     2    12    13    1
     3    12     5    1
     4     5     6   ar
     5     6     7   ar
     6     7     8   ar
     7     8     4    1
     8     4     3    1
     9     3     2    1
    10     2     1    1
    11     1    17    1
    12    17    18    1
    13    18    19    1
    14    19    20    1
    15    20    21   ar
    16    21    22   ar
    17    22    23   ar
    18    23    26    1
    19    26    27    2
    20    26    28    1
    21    23    24   ar
    22    24    25   ar
    23     8     9   ar
    24     9    10   ar
    25    10     5   ar
    26    25    20   ar
    27    11    14    1
    28    13    15    1
    29    13    16    1
    30    27    29    1
    31    28    30    1
    32    28    31    1
@<TRIPOS>MOLECULE
*****
 31 32 0 0 0
SMALL
GASTEIGER

@<TRIPOS>ATOM
      1 C         -10.3526  -19.7197   20.3961 C.3     1  UNL1        0.0077
      2 C          -8.9401  -19.4129   19.9950 C.3     1  UNL1        0.0475
      3 C          -7.9312  -19.0291   21.0366 C.3     1  UNL1        0.2054
      4 O          -6.7698  -19.9334   21.3249 O.3     1  UNL1       -0.4755
      5 C          -2.5633  -18.4622   20.6999 C.ar    1  UNL1        0.0815
      6 C          -3.4876  -18.6112   19.5280 C.ar    1  UNL1        0.0105
      7 C          -4.8897  -19.1017   19.7363 C.ar    1  UNL1        0.0371
      8 C          -5.3676  -19.4430   21.1166 C.ar    1  UNL1        0.1386
      9 C          -4.4433  -19.2940   22.2885 C.ar    1  UNL1        0.0371
     10 C          -3.0411  -18.8036   22.0801 C.ar    1  UNL1        0.0105
     11 N          -0.1296  -18.8814   19.8926 N.2     1  UNL1       -0.0994
     12 C          -1.1611  -17.9718   20.4916 C.2     1  UNL1        0.3093
     13 N          -0.7903  -16.5719   20.8823 N.pl3   1  UNL1       -0.2466
     14 H           0.7907  -18.5595   19.7559 H       1  UNL1        0.3633
     15 H           0.1300  -16.2500   20.7455 H       1  UNL1        0.2884
     16 H          -1.4673  -15.9749   21.2754 H       1  UNL1        0.2884
     17 C         -11.3670  -18.6173   20.4717 C.3     1  UNL1        0.0475
     18 C         -11.9827  -18.2538   21.7903 C.3     1  UNL1        0.2054
     19 O         -11.3932  -18.7822   23.0644 O.3     1  UNL1       -0.4755
     20 C         -10.4557  -17.9298   23.8673 C.ar    1  UNL1        0.1386
     21 C          -9.9551  -16.6319   23.3060 C.ar    1  UNL1        0.0371
     22 C          -9.0177  -15.7796   24.1089 C.ar    1  UNL1        0.0105
     23 C          -8.5809  -16.2250   25.4730 C.ar    1  UNL1        0.0815
     24 C          -9.0815  -17.5228   26.0342 C.ar    1  UNL1        0.0105
     25 C         -10.0189  -18.3752   25.2314 C.ar    1  UNL1        0.0371
     26 C          -7.6434  -15.3725   26.2759 C.2     1  UNL1        0.3093
     27 N          -8.0254  -14.9354   27.6590 N.2     1  UNL1       -0.0994
     28 N          -6.3240  -14.9573   25.6956 N.pl3   1  UNL1       -0.2466
     29 H          -8.8914  -15.2079   28.0398 H       1  UNL1        0.3633
     30 H          -6.0733  -15.2442   24.7879 H       1  UNL1        0.2884
     31 H          -5.7088  -14.3978   26.2226 H       1  UNL1        0.2884
@<TRIPOS>BOND
     1    11    12    2
     2    12    13    1
     3    12     5    1
     4     5     6   ar
     5     6     7   ar
     6     7     8   ar
     7     8     4    1
     8     4     3    1
     9     3     2    1
    10     2     1    1
    11     1    17    1
    12    17    18    1
    13    18    19    1
    14    19    20    1
    15    20    21   ar
    16    21    22   ar
    17    22    23   ar
    18    23    26    1
    19    26    27    2
    20    26    28    1
    21    23    24   ar
    22    24    25   ar
    23     8     9   ar
    24     9    10   ar
    25    10     5   ar
    26    25    20   ar
    27    11    14    1
    28    13    15    1
    29    13    16    1
    30    27    29    1
    31    28    30    1
    32    28    31    1
@<TRIPOS>MOLECULE
*****
 31 32 0 0 0
SMALL
GASTEIGER

@<TRIPOS>ATOM
      1 C          -3.9626  -19.0431   19.3815 C.3     1  UNL1        0.0077
      2 C          -4.3659  -20.2958   20.1015 C.3     1  UNL1        0.0475
      3 C          -5.7074  -20.3792   20.7674 C.3     1  UNL1        0.2054
      4 O          -6.9584  -20.3510   19.9402 O.3     1  UNL1       -0.4755
      5 C         -10.3136  -17.5572   21.0298 C.ar    1  UNL1        0.0815
      6 C          -9.0301  -17.5262   21.8054 C.ar    1  UNL1        0.0105
      7 C          -7.9117  -18.4575   21.4422 C.ar    1  UNL1        0.0371
      8 C          -8.0768  -19.4197   20.3034 C.ar    1  UNL1        0.1386
      9 C          -9.3603  -19.4506   19.5278 C.ar    1  UNL1        0.0371
     10 C         -10.4787  -18.5193   19.8910 C.ar    1  UNL1        0.0105
     11 N         -11.3474  -15.8046   22.6453 N.2     1  UNL1       -0.0994
     12 C         -11.4320  -16.6259   21.3930 C.2     1  UNL1        0.3093
     13 N         -12.6350  -16.5159   20.5039 N.pl3   1  UNL1       -0.2466
     14 H         -12.0814  -15.1934   22.8837 H       1  UNL1        0.3633
     15 H         -13.3691  -15.9047   20.7423 H       1  UNL1        0.2884
     16 H         -12.6906  -17.0549   19.6819 H       1  UNL1        0.2884
     17 C          -2.5246  -18.6168   19.3661 C.3     1  UNL1        0.0475
     18 C          -1.5503  -19.2297   20.3279 C.3     1  UNL1        0.2054
     19 O          -1.3949  -18.6566   21.7054 O.3     1  UNL1       -0.4755
     20 C          -2.4787  -17.7981   22.2872 C.ar    1  UNL1        0.1386
     21 C          -3.5807  -18.4230   23.0902 C.ar    1  UNL1        0.0371
     22 C          -4.6644  -17.5644   23.6720 C.ar    1  UNL1        0.0105
     23 C          -4.6460  -16.0810   23.4507 C.ar    1  UNL1        0.0815
     24 C          -3.5440  -15.4561   22.6476 C.ar    1  UNL1        0.0105
     25 C          -2.4603  -16.3146   22.0659 C.ar    1  UNL1        0.0371
     26 C          -5.7298  -15.2224   24.0324 C.2     1  UNL1        0.3093
     27 N          -5.6222  -14.7346   25.4468 N.2     1  UNL1       -0.0994
     28 N          -6.9211  -14.8517   23.1999 N.pl3   1  UNL1       -0.2466
     29 H          -4.8402  -14.9780   25.9933 H       1  UNL1        0.3633
     30 H          -6.9918  -15.1718   22.2716 H       1  UNL1        0.2884
     31 H          -7.6324  -14.2882   23.5817 H       1  UNL1        0.2884
@<TRIPOS>BOND
     1    11    12    2
     2    12    13    1
     3    12     5    1
     4     5     6   ar
     5     6     7   ar
     6     7     8   ar
     7     8     4    1
     8     4     3    1
     9     3     2    1
    10     2     1    1
    11     1    17    1
    12    17    18    1
    13    18    19    1
    14    19    20    1
    15    20    21   ar
    16    21    22   ar
    17    22    23   ar
    18    23    26    1
    19    26    27    2
    20    26    28    1
    21    23    24   ar
    22    24    25   ar
    23     8     9   ar
    24     9    10   ar
    25    10     5   ar
    26    25    20   ar
    27    11    14    1
    28    13    15    1
    29    13    16    1
    30    27    29    1
    31    28    30    1
    32    28    31    1
@<TRIPOS>MOLECULE
*****
 31 32 0 0 0
SMALL
GASTEIGER

@<TRIPOS>ATOM
      1 C          -3.8399  -20.5149   20.0207 C.3     1  UNL1        0.0077
      2 C          -3.1166  -19.2779   19.5769 C.3     1  UNL1        0.0475
      3 C          -1.7520  -18.9718   20.1192 C.3     1  UNL1        0.2054
      4 O          -1.5882  -18.5713   21.5554 O.3     1  UNL1       -0.4755
      5 C          -4.7352  -16.0587   23.5637 C.ar    1  UNL1        0.0815
      6 C          -4.7828  -17.5535   23.6788 C.ar    1  UNL1        0.0105
      7 C          -3.7338  -18.3910   23.0093 C.ar    1  UNL1        0.0371
      8 C          -2.6372  -17.7338   22.2248 C.ar    1  UNL1        0.1386
      9 C          -2.5896  -16.2390   22.1097 C.ar    1  UNL1        0.0371
     10 C          -3.6386  -15.4015   22.7792 C.ar    1  UNL1        0.0105
     11 N          -5.5128  -14.6120   25.5767 N.2     1  UNL1       -0.0994
     12 C          -5.7842  -15.2212   24.2331 C.2     1  UNL1        0.3093
     13 N          -7.1045  -14.9928   23.5590 N.pl3   1  UNL1       -0.2466
     14 H          -6.2013  -14.0623   26.0161 H       1  UNL1        0.3633
     15 H          -7.7930  -14.4431   23.9984 H       1  UNL1        0.2884
     16 H          -7.2826  -15.3926   22.6771 H       1  UNL1        0.2884
     17 C          -5.3368  -20.5143   20.1177 C.3     1  UNL1        0.0475
     18 C          -6.0810  -19.2164   20.2238 C.3     1  UNL1        0.2054
     19 O          -7.4986  -19.1231   19.7425 O.3     1  UNL1       -0.4755
     20 C          -8.6171  -18.9663   20.7298 C.ar    1  UNL1        0.1386
     21 C         -10.0265  -19.2782   20.3222 C.ar    1  UNL1        0.0371
     22 C         -11.1448  -19.1214   21.3095 C.ar    1  UNL1        0.0105
     23 C         -10.8537  -18.6528   22.7043 C.ar    1  UNL1        0.0815
     24 C          -9.4443  -18.3409   23.1119 C.ar    1  UNL1        0.0105
     25 C          -8.3259  -18.4977   22.1247 C.ar    1  UNL1        0.0371
     26 C         -11.9721  -18.4960   23.6916 C.2     1  UNL1        0.3093
     27 N         -13.2812  -17.9083   23.2548 N.2     1  UNL1       -0.0994
     28 N         -11.7814  -18.9269   25.1156 N.pl3   1  UNL1       -0.2466
     29 H         -13.4064  -17.6255   22.3201 H       1  UNL1        0.3633
     30 H         -10.9222  -19.3126   25.4023 H       1  UNL1        0.2884
     31 H         -12.5154  -18.8240   25.7636 H       1  UNL1        0.2884
@<TRIPOS>BOND
     1    11    12    2
     2    12    13    1
     3    12     5    1
     4     5     6   ar
     5     6     7   ar
     6     7     8   ar
     7     8     4    1
     8     4     3    1
     9     3     2    1
    10     2     1    1
    11     1    17    1
    12    17    18    1
    13    18    19    1
    14    19    20    1
    15    20    21   ar
    16    21    22   ar
    17    22    23   ar
    18    23    26    1
    19    26    27    2
    20    26    28    1
    21    23    24   ar
    22    24    25   ar
    23     8     9   ar
    24     9    10   ar
    25    10     5   ar
    26    25    20   ar
    27    11    14    1
    28    13    15    1
    29    13    16    1
    30    27    29    1
    31    28    30    1
    32    28    31    1
@<TRIPOS>MOLECULE
*****
 31 32 0 0 0
SMALL
GASTEIGER

@<TRIPOS>ATOM
      1 C          -5.9501  -15.8319   26.8545 C.3     1  UNL1        0.0077
      2 C          -5.2429  -15.1262   25.7356 C.3     1  UNL1        0.0475
      3 C          -5.1881  -15.7489   24.3720 C.3     1  UNL1        0.2054
      4 O          -4.5383  -17.0877   24.1846 O.3     1  UNL1       -0.4755
      5 C          -1.9083  -17.8314   20.6096 C.ar    1  UNL1        0.0815
      6 C          -1.9166  -16.4833   21.2671 C.ar    1  UNL1        0.0105
      7 C          -2.7933  -16.2354   22.4587 C.ar    1  UNL1        0.0371
      8 C          -3.6616  -17.3356   22.9929 C.ar    1  UNL1        0.1386
      9 C          -3.6533  -18.6838   22.3354 C.ar    1  UNL1        0.0371
     10 C          -2.7766  -18.9317   21.1438 C.ar    1  UNL1        0.0105
     11 N          -1.5412  -17.7859   18.0380 N.2     1  UNL1       -0.0994
     12 C          -1.0317  -18.0793   19.4179 C.2     1  UNL1        0.3093
     13 N           0.3545  -18.6206   19.6062 N.pl3   1  UNL1       -0.2466
     14 H          -0.9658  -17.9486   17.2559 H       1  UNL1        0.3633
     15 H           0.9299  -18.7833   18.8241 H       1  UNL1        0.2884
     16 H           0.6889  -18.8132   20.5119 H       1  UNL1        0.2884
     17 C          -7.2936  -15.3494   27.3152 C.3     1  UNL1        0.0475
     18 C          -8.5217  -15.6771   26.5189 C.3     1  UNL1        0.2054
     19 O          -8.4909  -16.7942   25.5183 O.3     1  UNL1       -0.4755
     20 C          -9.1192  -16.6099   24.1687 C.ar    1  UNL1        0.1386
     21 C          -8.3533  -15.9330   23.0710 C.ar    1  UNL1        0.0371
     22 C          -8.9817  -15.7487   21.7215 C.ar    1  UNL1        0.0105
     23 C         -10.3760  -16.2413   21.4698 C.ar    1  UNL1        0.0815
     24 C         -11.1419  -16.9181   22.5676 C.ar    1  UNL1        0.0105
     25 C         -10.5135  -17.1024   23.9171 C.ar    1  UNL1        0.0371
     26 C         -11.0044  -16.0569   20.1202 C.2     1  UNL1        0.3093
     27 N         -10.5260  -14.9619   19.2135 N.2     1  UNL1       -0.0994
     28 N         -12.1111  -16.9675   19.6775 N.pl3   1  UNL1       -0.2466
     29 H          -9.7997  -14.3643   19.5041 H       1  UNL1        0.3633
     30 H         -12.4250  -17.6862   20.2727 H       1  UNL1        0.2884
     31 H         -12.5235  -16.8465   18.7918 H       1  UNL1        0.2884
@<TRIPOS>BOND
     1    11    12    2
     2    12    13    1
     3    12     5    1
     4     5     6   ar
     5     6     7   ar
     6     7     8   ar
     7     8     4    1
     8     4     3    1
     9     3     2    1
    10     2     1    1
    11     1    17    1
    12    17    18    1
    13    18    19    1
    14    19    20    1
    15    20    21   ar
    16    21    22   ar
    17    22    23   ar
    18    23    26    1
    19    26    27    2
    20    26    28    1
    21    23    24   ar
    22    24    25   ar
    23     8     9   ar
    24     9    10   ar
    25    10     5   ar
    26    25    20   ar
    27    11    14    1
    28    13    15    1
    29    13    16    1
    30    27    29    1
    31    28    30    1
    32    28    31    1
@<TRIPOS>MOLECULE
*****
 31 32 0 0 0
SMALL
GASTEIGER

@<TRIPOS>ATOM
      1 C         -13.1706  -18.0081   21.7877 C.3     1  UNL1        0.0077
      2 C         -11.8589  -18.0542   21.0614 C.3     1  UNL1        0.0475
      3 C         -11.1029  -19.3458   20.9597 C.3     1  UNL1        0.2054
      4 O          -9.9842  -19.4841   19.9701 O.3     1  UNL1       -0.4755
      5 C          -5.7112  -19.4074   21.3794 C.ar    1  UNL1        0.0815
      6 C          -6.8294  -19.4612   22.3777 C.ar    1  UNL1        0.0105
      7 C          -8.2537  -19.4868   21.9080 C.ar    1  UNL1        0.0371
      8 C          -8.5599  -19.4585   20.4399 C.ar    1  UNL1        0.1386
      9 C          -7.4417  -19.4047   19.4415 C.ar    1  UNL1        0.0371
     10 C          -6.0174  -19.3792   19.9112 C.ar    1  UNL1        0.0105
     11 N          -3.9471  -18.7816   23.1811 N.2     1  UNL1       -0.0994
     12 C          -4.2869  -19.3819   21.8491 C.2     1  UNL1        0.3093
     13 N          -3.2024  -19.9566   20.9869 N.pl3   1  UNL1       -0.2466
     14 H          -3.0123  -18.7648   23.4894 H       1  UNL1        0.3633
     15 H          -2.2676  -19.9399   21.2953 H       1  UNL1        0.2884
     16 H          -3.4254  -20.3506   20.1127 H       1  UNL1        0.2884
     17 C         -13.2209  -17.5560   23.2170 C.3     1  UNL1        0.0475
     18 C         -12.7692  -18.4770   24.3113 C.3     1  UNL1        0.2054
     19 O         -11.3485  -18.9569   24.3490 O.3     1  UNL1       -0.4755
     20 C         -10.2470  -18.0106   24.7253 C.ar    1  UNL1        0.1386
     21 C          -9.7222  -17.0318   23.7171 C.ar    1  UNL1        0.0371
     22 C          -8.6208  -16.0856   24.0934 C.ar    1  UNL1        0.0105
     23 C          -8.0442  -16.1183   25.4778 C.ar    1  UNL1        0.0815
     24 C          -8.5691  -17.0971   26.4859 C.ar    1  UNL1        0.0105
     25 C          -9.6705  -18.0433   26.1096 C.ar    1  UNL1        0.0371
     26 C          -6.9427  -15.1721   25.8540 C.2     1  UNL1        0.3093
     27 N          -6.0753  -14.5695   24.7889 N.2     1  UNL1       -0.0994
     28 N          -6.7088  -14.8285   27.2952 N.pl3   1  UNL1       -0.2466
     29 H          -6.2288  -14.7950   23.8430 H       1  UNL1        0.3633
     30 H          -7.2782  -15.2240   27.9942 H       1  UNL1        0.2884
     31 H          -5.9859  -14.2074   27.5421 H       1  UNL1        0.2884
@<TRIPOS>BOND
     1    11    12    2
     2    12    13    1
     3    12     5    1
     4     5     6   ar
     5     6     7   ar
     6     7     8   ar
     7     8     4    1
     8     4     3    1
     9     3     2    1
    10     2     1    1
    11     1    17    1
    12    17    18    1
    13    18    19    1
    14    19    20    1
    15    20    21   ar
    16    21    22   ar
    17    22    23   ar
    18    23    26    1
    19    26    27    2
    20    26    28    1
    21    23    24   ar
    22    24    25   ar
    23     8     9   ar
    24     9    10   ar
    25    10     5   ar
    26    25    20   ar
    27    11    14    1
    28    13    15    1
    29    13    16    1
    30    27    29    1
    31    28    30    1
    32    28    31    1
