@<TRIPOS>MOLECULE
*****
 34 38 0 0 0
SMALL
GASTEIGER

@<TRIPOS>ATOM
      1 C           0.2899    4.0784   18.8337 C.2     1  UNL1        0.2252
      2 O           0.9267    5.4329   18.7356 O.2     1  UNL1       -0.2749
      3 N           1.1437    2.8452   18.8161 N.am    1  UNL1       -0.2794
      4 C           2.6343    2.9666   18.7004 C.3     1  UNL1        0.0951
      5 C           3.4881    1.7334   18.6828 C.3     1  UNL1        0.0418
      6 C           2.8513    0.3788   18.7810 C.3     1  UNL1        0.0848
      7 C           1.3607    0.2575   18.8967 C.3     1  UNL1        0.0418
      8 C           0.5069    1.4906   18.9143 C.3     1  UNL1        0.0951
      9 N           3.7051   -0.8544   18.7634 N.am    1  UNL1       -0.2422
     10 C           4.3389   -1.4707   17.5516 C.2     1  UNL1        0.3310
     11 O           4.2302   -0.9621   16.1446 O.2     1  UNL1       -0.2501
     12 N           5.1005   -2.6849   17.9938 N.am    1  UNL1       -0.1647
     13 C           4.9374   -2.8191   19.4789 C.2     1  UNL1        0.0706
     14 C           5.4627   -3.8252   20.4595 C.3     1  UNL1        0.0705
     15 C           5.1256   -3.7000   21.9157 C.2     1  UNL1       -0.0199
     16 C           4.2632   -2.5686   22.3913 C.2     1  UNL1       -0.0029
     17 C           3.7378   -1.5625   21.4107 C.2     1  UNL1        0.0156
     18 C           4.0749   -1.6877   19.9545 C.2     1  UNL1        0.0668
     19 N          -4.1819    3.7142   19.1809 N.3     1  UNL1       -0.2689
     20 C          -3.5556    4.0281   17.8545 C.3     1  UNL1        0.0729
     21 C          -2.0651    4.1495   17.7387 C.3     1  UNL1        0.0264
     22 C          -1.2007    3.9570   18.9495 C.3     1  UNL1        0.0795
     23 C          -1.8268    3.6431   20.2759 C.3     1  UNL1        0.0264
     24 C          -3.3174    3.5217   20.3916 C.3     1  UNL1        0.0729
     25 C          -5.6724    3.5928   19.2967 C.3     1  UNL1        0.0993
     26 N          -7.4929    4.3702   24.1010 N.pl3   1  UNL1       -0.3426
     27 C          -7.3302    4.8315   22.6830 C.ar    1  UNL1        0.1251
     28 C          -6.5826    3.9815   21.6988 C.ar    1  UNL1        0.0310
     29 C          -6.4200    4.4428   20.2808 C.ar    1  UNL1       -0.0018
     30 C          -7.0050    5.7541   19.8469 C.ar    1  UNL1        0.0179
     31 C          -7.7526    6.6041   20.8311 C.ar    1  UNL1        0.1000
     32 N          -7.9152    6.1428   22.2491 N.ar    1  UNL1       -0.2296
     33 H          -7.1089    3.5095   24.3858 H       1  UNL1        0.1437
     34 H          -7.9836    4.9281   24.7469 H       1  UNL1        0.1437
@<TRIPOS>BOND
     1    26    27    1
     2    27    28   ar
     3    28    29   ar
     4    29    25    1
     5    25    19    1
     6    19    20    1
     7    20    21    1
     8    21    22    1
     9    22     1    1
    10     1     2    2
    11     1     3   am
    12     3     4    1
    13     4     5    1
    14     5     6    1
    15     6     9    1
    16     9    10   am
    17    10    11    2
    18    10    12    1
    19    12    13    2
    20    13    14    1
    21    14    15    1
    22    15    16    2
    23    16    17    1
    24    17    18    2
    25     6     7    1
    26     7     8    1
    27    22    23    1
    28    23    24    1
    29    29    30   ar
    30    30    31   ar
    31    31    32   ar
    32    32    27   ar
    33    24    19    1
    34     8     3    1
    35    18     9    1
    36    18    13    1
    37    26    33    1
    38    26    34    1
@<TRIPOS>MOLECULE
*****
 34 38 0 0 0
SMALL
GASTEIGER

@<TRIPOS>ATOM
      1 C          -0.0759    3.7091   19.5955 C.2     1  UNL1        0.2252
      2 O           0.2731    5.0274   18.9710 O.2     1  UNL1       -0.2749
      3 N           0.8407    2.5336   19.4274 N.am    1  UNL1       -0.2794
      4 C           2.1061    2.6766   18.6348 C.3     1  UNL1        0.0951
      5 C           3.0227    1.5011   18.4668 C.3     1  UNL1        0.0418
      6 C           2.6737    0.1826   19.0913 C.3     1  UNL1        0.0848
      7 C           1.4083    0.0397   19.8838 C.3     1  UNL1        0.0418
      8 C           0.4918    1.2152   20.0519 C.3     1  UNL1        0.0951
      9 N           3.5903   -0.9928   18.9232 N.am    1  UNL1       -0.2422
     10 C           4.1405   -1.5032   17.6245 C.2     1  UNL1        0.3310
     11 O           3.8707   -0.9278   16.2657 O.2     1  UNL1       -0.2501
     12 N           5.0078   -2.6901   17.9230 N.am    1  UNL1       -0.1647
     13 C           4.9936   -2.9132   19.4063 C.2     1  UNL1        0.0706
     14 C           5.6653   -3.9360   20.2738 C.3     1  UNL1        0.0705
     15 C           5.4608   -3.9099   21.7596 C.2     1  UNL1       -0.0199
     16 C           4.5847   -2.8609   22.3777 C.2     1  UNL1       -0.0029
     17 C           3.9131   -1.8381   21.5102 C.2     1  UNL1        0.0156
     18 C           4.1175   -1.8642   20.0244 C.2     1  UNL1        0.0668
     19 N          -3.8722    3.2802   21.9732 N.3     1  UNL1       -0.2689
     20 C          -3.9141    3.2151   20.4752 C.3     1  UNL1        0.0729
     21 C          -2.6487    3.3581   19.6826 C.3     1  UNL1        0.0264
     22 C          -1.3413    3.5661   20.3881 C.3     1  UNL1        0.0795
     23 C          -1.2994    3.6311   21.8861 C.3     1  UNL1        0.0264
     24 C          -2.5649    3.4882   22.6787 C.3     1  UNL1        0.0729
     25 C          -5.1377    3.1372   22.7658 C.3     1  UNL1        0.0993
     26 N          -4.9897    5.0143   27.6088 N.pl3   1  UNL1       -0.3426
     27 C          -5.4469    5.1284   26.1847 C.ar    1  UNL1        0.1251
     28 C          -5.0637    4.0757   25.1872 C.ar    1  UNL1        0.0310
     29 C          -5.5210    4.1899   23.7632 C.ar    1  UNL1       -0.0018
     30 C          -6.3615    5.3567   23.3367 C.ar    1  UNL1        0.0179
     31 C          -6.7448    6.4094   24.3341 C.ar    1  UNL1        0.1000
     32 N          -6.2875    6.2952   25.7582 N.ar    1  UNL1       -0.2296
     33 H          -4.4380    4.2485   27.8888 H       1  UNL1        0.1437
     34 H          -5.2413    5.7053   28.2634 H       1  UNL1        0.1437
@<TRIPOS>BOND
     1    26    27    1
     2    27    28   ar
     3    28    29   ar
     4    29    25    1
     5    25    19    1
     6    19    20    1
     7    20    21    1
     8    21    22    1
     9    22     1    1
    10     1     2    2
    11     1     3   am
    12     3     4    1
    13     4     5    1
    14     5     6    1
    15     6     9    1
    16     9    10   am
    17    10    11    2
    18    10    12    1
    19    12    13    2
    20    13    14    1
    21    14    15    1
    22    15    16    2
    23    16    17    1
    24    17    18    2
    25     6     7    1
    26     7     8    1
    27    22    23    1
    28    23    24    1
    29    29    30   ar
    30    30    31   ar
    31    31    32   ar
    32    32    27   ar
    33    24    19    1
    34     8     3    1
    35    18     9    1
    36    18    13    1
    37    26    33    1
    38    26    34    1
@<TRIPOS>MOLECULE
*****
 34 38 0 0 0
SMALL
GASTEIGER

@<TRIPOS>ATOM
      1 C           7.8735   -2.9747   20.1934 C.2     1  UNL1        0.2252
      2 O           9.1538   -3.0941   19.4211 O.2     1  UNL1       -0.2749
      3 N           7.7589   -3.5927   21.5554 N.am    1  UNL1       -0.2794
      4 C           8.9245   -4.3299   22.1450 C.3     1  UNL1        0.0951
      5 C           8.8099   -4.9479   23.5070 C.3     1  UNL1        0.0418
      6 C           7.5295   -4.8285   24.2794 C.3     1  UNL1        0.0848
      7 C           6.3640   -4.0913   23.6898 C.3     1  UNL1        0.0418
      8 C           6.4786   -3.4734   22.3278 C.3     1  UNL1        0.0951
      9 N           7.4149   -5.4465   25.6414 N.am    1  UNL1       -0.2422
     10 C           7.5570   -6.9047   25.9628 C.2     1  UNL1        0.3310
     11 O           7.8387   -8.0011   24.9786 O.2     1  UNL1       -0.2501
     12 N           7.3680   -7.0741   27.4411 N.am    1  UNL1       -0.1647
     13 C           7.1091   -5.7206   28.0335 C.2     1  UNL1        0.0706
     14 C           6.8506   -5.2741   29.4419 C.3     1  UNL1        0.0705
     15 C           6.6212   -3.8216   29.7381 C.2     1  UNL1       -0.0199
     16 C           6.6502   -2.8157   28.6257 C.2     1  UNL1       -0.0029
     17 C           6.9086   -3.2622   27.2173 C.2     1  UNL1        0.0156
     18 C           7.1381   -4.7146   26.9211 C.2     1  UNL1        0.0668
     19 N           4.3765   -0.7629   18.4246 N.3     1  UNL1       -0.2689
     20 C           5.3812   -0.0298   19.2632 C.3     1  UNL1        0.0729
     21 C           6.5468   -0.7670   19.8528 C.3     1  UNL1        0.0264
     22 C           6.7078   -2.2375   19.6038 C.3     1  UNL1        0.0795
     23 C           5.7032   -2.9706   18.7652 C.3     1  UNL1        0.0264
     24 C           4.5376   -2.2333   18.1756 C.3     1  UNL1        0.0729
     25 C           3.2108   -0.0257   17.8350 C.3     1  UNL1        0.0993
     26 N          -0.4519    3.4275   19.1233 N.pl3   1  UNL1       -0.3426
     27 C           0.2324    2.1127   19.3535 C.ar    1  UNL1        0.1251
     28 C           1.3795    1.7009   18.4791 C.ar    1  UNL1        0.0310
     29 C           2.0638    0.3861   18.7094 C.ar    1  UNL1       -0.0018
     30 C           1.6010   -0.5170   19.8141 C.ar    1  UNL1        0.0179
     31 C           0.4539   -0.1051   20.6885 C.ar    1  UNL1        0.1000
     32 N          -0.2304    1.2097   20.4582 N.ar    1  UNL1       -0.2296
     33 H          -0.1482    4.0203   18.3982 H       1  UNL1        0.1437
     34 H          -1.2047    3.6978   19.6972 H       1  UNL1        0.1437
@<TRIPOS>BOND
     1    26    27    1
     2    27    28   ar
     3    28    29   ar
     4    29    25    1
     5    25    19    1
     6    19    20    1
     7    20    21    1
     8    21    22    1
     9    22     1    1
    10     1     2    2
    11     1     3   am
    12     3     4    1
    13     4     5    1
    14     5     6    1
    15     6     9    1
    16     9    10   am
    17    10    11    2
    18    10    12    1
    19    12    13    2
    20    13    14    1
    21    14    15    1
    22    15    16    2
    23    16    17    1
    24    17    18    2
    25     6     7    1
    26     7     8    1
    27    22    23    1
    28    23    24    1
    29    29    30   ar
    30    30    31   ar
    31    31    32   ar
    32    32    27   ar
    33    24    19    1
    34     8     3    1
    35    18     9    1
    36    18    13    1
    37    26    33    1
    38    26    34    1
@<TRIPOS>MOLECULE
*****
 34 38 0 0 0
SMALL
GASTEIGER

@<TRIPOS>ATOM
      1 C           7.5904   -4.7005   23.4761 C.2     1  UNL1        0.2252
      2 O           8.0277   -6.0991   23.1558 O.2     1  UNL1       -0.2749
      3 N           6.8846   -3.8792   22.4382 N.am    1  UNL1       -0.2794
      4 C           6.6161   -4.4566   21.0800 C.3     1  UNL1        0.0951
      5 C           5.9103   -3.6353   20.0421 C.3     1  UNL1        0.0418
      6 C           5.4729   -2.2365   20.3624 C.3     1  UNL1        0.0848
      7 C           5.7414   -1.6593   21.7205 C.3     1  UNL1        0.0418
      8 C           6.4473   -2.4806   22.7584 C.3     1  UNL1        0.0951
      9 N           4.7671   -1.4152   19.3245 N.am    1  UNL1       -0.2422
     10 C           5.3034   -1.0548   17.9708 C.2     1  UNL1        0.3310
     11 O           6.6397   -1.4523   17.4174 O.2     1  UNL1       -0.2501
     12 N           4.2688   -0.2270   17.2678 N.am    1  UNL1       -0.1647
     13 C           3.0930   -0.0758   18.1869 C.2     1  UNL1        0.0706
     14 C           1.7818    0.6356   18.0306 C.3     1  UNL1        0.0705
     15 C           0.7786    0.6126   19.1454 C.2     1  UNL1       -0.0199
     16 C           1.0865   -0.1218   20.4166 C.2     1  UNL1       -0.0029
     17 C           2.3978   -0.8332   20.5729 C.2     1  UNL1        0.0156
     18 C           3.4010   -0.8103   19.4580 C.2     1  UNL1        0.0668
     19 N           8.3959   -2.9686   27.5506 N.3     1  UNL1       -0.2689
     20 C           9.5327   -3.4733   26.7120 C.3     1  UNL1        0.0729
     21 C           9.2642   -4.0506   25.3539 C.3     1  UNL1        0.0264
     22 C           7.8589   -4.1232   24.8343 C.3     1  UNL1        0.0795
     23 C           6.7222   -3.6186   25.6728 C.3     1  UNL1        0.0264
     24 C           6.9907   -3.0412   27.0309 C.3     1  UNL1        0.0729
     25 C           8.6644   -2.3913   28.9088 C.3     1  UNL1        0.0993
     26 N           6.7281   -5.9444   32.1686 N.pl3   1  UNL1       -0.3426
     27 C           6.8081   -4.5237   31.6938 C.ar    1  UNL1        0.1251
     28 C           7.6963   -4.1678   30.5386 C.ar    1  UNL1        0.0310
     29 C           7.7762   -2.7471   30.0640 C.ar    1  UNL1       -0.0018
     30 C           6.9681   -1.6823   30.7445 C.ar    1  UNL1        0.0179
     31 C           6.0799   -2.0383   31.8997 C.ar    1  UNL1        0.1000
     32 N           6.0000   -3.4589   32.3744 N.ar    1  UNL1       -0.2296
     33 H           7.2585   -6.6432   31.7220 H       1  UNL1        0.1437
     34 H           6.1452   -6.1779   32.9268 H       1  UNL1        0.1437
@<TRIPOS>BOND
     1    26    27    1
     2    27    28   ar
     3    28    29   ar
     4    29    25    1
     5    25    19    1
     6    19    20    1
     7    20    21    1
     8    21    22    1
     9    22     1    1
    10     1     2    2
    11     1     3   am
    12     3     4    1
    13     4     5    1
    14     5     6    1
    15     6     9    1
    16     9    10   am
    17    10    11    2
    18    10    12    1
    19    12    13    2
    20    13    14    1
    21    14    15    1
    22    15    16    2
    23    16    17    1
    24    17    18    2
    25     6     7    1
    26     7     8    1
    27    22    23    1
    28    23    24    1
    29    29    30   ar
    30    30    31   ar
    31    31    32   ar
    32    32    27   ar
    33    24    19    1
    34     8     3    1
    35    18     9    1
    36    18    13    1
    37    26    33    1
    38    26    34    1
@<TRIPOS>MOLECULE
*****
 34 38 0 0 0
SMALL
GASTEIGER

@<TRIPOS>ATOM
      1 C          -0.1714    2.3487   22.1335 C.2     1  UNL1        0.2252
      2 O          -1.1772    3.2613   21.4969 O.2     1  UNL1       -0.2749
      3 N          -0.1105    2.2251   23.6272 N.am    1  UNL1       -0.2794
      4 C          -1.0554    3.0142   24.4842 C.3     1  UNL1        0.0951
      5 C          -0.9946    2.8907   25.9778 C.3     1  UNL1        0.0418
      6 C           0.0113    1.9779   26.6145 C.3     1  UNL1        0.0848
      7 C           0.9562    1.1889   25.7575 C.3     1  UNL1        0.0418
      8 C           0.8953    1.3125   24.2639 C.3     1  UNL1        0.0951
      9 N           0.0722    1.8544   28.1082 N.am    1  UNL1       -0.2422
     10 C          -0.4565    0.7095   28.9205 C.2     1  UNL1        0.3310
     11 O          -1.1389   -0.5128   28.3817 O.2     1  UNL1       -0.2501
     12 N          -0.1830    1.0016   30.3661 N.am    1  UNL1       -0.1647
     13 C           0.5148    2.3270   30.4473 C.2     1  UNL1        0.0706
     14 C           1.0269    3.1220   31.6116 C.3     1  UNL1        0.0705
     15 C           1.6967    4.4440   31.3804 C.2     1  UNL1       -0.0199
     16 C           1.8544    4.9711   29.9849 C.2     1  UNL1       -0.0029
     17 C           1.3423    4.1761   28.8206 C.2     1  UNL1        0.0156
     18 C           0.6725    2.8540   29.0518 C.2     1  UNL1        0.0668
     19 N           2.6634   -0.0186   19.5626 N.3     1  UNL1       -0.2689
     20 C           3.0671    1.3312   20.0777 C.3     1  UNL1        0.0729
     21 C           2.1222    2.1203   20.9347 C.3     1  UNL1        0.0264
     22 C           0.7735    1.5596   21.2765 C.3     1  UNL1        0.0795
     23 C           0.3698    0.2099   20.7615 C.3     1  UNL1        0.0264
     24 C           1.3147   -0.5792   19.9045 C.3     1  UNL1        0.0729
     25 C           3.6083   -0.8077   18.7056 C.3     1  UNL1        0.0993
     26 N           7.4580   -3.3108   21.1376 N.pl3   1  UNL1       -0.3426
     27 C           6.1300   -3.3337   20.4405 C.ar    1  UNL1        0.1251
     28 C           5.5331   -2.0592   19.9216 C.ar    1  UNL1        0.0310
     29 C           4.2051   -2.0823   19.2244 C.ar    1  UNL1       -0.0018
     30 C           3.4741   -3.3799   19.0462 C.ar    1  UNL1        0.0179
     31 C           4.0710   -4.6544   19.5651 C.ar    1  UNL1        0.1000
     32 N           5.3989   -4.6313   20.2622 N.ar    1  UNL1       -0.2296
     33 H           7.9378   -2.4591   21.2547 H       1  UNL1        0.1437
     34 H           7.8497   -4.1473   21.4782 H       1  UNL1        0.1437
@<TRIPOS>BOND
     1    26    27    1
     2    27    28   ar
     3    28    29   ar
     4    29    25    1
     5    25    19    1
     6    19    20    1
     7    20    21    1
     8    21    22    1
     9    22     1    1
    10     1     2    2
    11     1     3   am
    12     3     4    1
    13     4     5    1
    14     5     6    1
    15     6     9    1
    16     9    10   am
    17    10    11    2
    18    10    12    1
    19    12    13    2
    20    13    14    1
    21    14    15    1
    22    15    16    2
    23    16    17    1
    24    17    18    2
    25     6     7    1
    26     7     8    1
    27    22    23    1
    28    23    24    1
    29    29    30   ar
    30    30    31   ar
    31    31    32   ar
    32    32    27   ar
    33    24    19    1
    34     8     3    1
    35    18     9    1
    36    18    13    1
    37    26    33    1
    38    26    34    1
@<TRIPOS>MOLECULE
*****
 34 38 0 0 0
SMALL
GASTEIGER

@<TRIPOS>ATOM
      1 C           1.9758    1.1847   26.7375 C.2     1  UNL1        0.2252
      2 O           0.9075    2.2369   26.6983 O.2     1  UNL1       -0.2749
      3 N           2.4050    0.5043   25.4715 N.am    1  UNL1       -0.2794
      4 C           1.7659    0.8760   24.1664 C.3     1  UNL1        0.0951
      5 C           2.1951    0.1956   22.9004 C.3     1  UNL1        0.0418
      6 C           3.2635   -0.8567   22.9395 C.3     1  UNL1        0.0848
      7 C           3.9025   -1.2284   24.2446 C.3     1  UNL1        0.0418
      8 C           3.4733   -0.5479   25.5106 C.3     1  UNL1        0.0951
      9 N           3.6927   -1.5371   21.6735 N.am    1  UNL1       -0.2422
     10 C           4.2240   -2.9353   21.5605 C.2     1  UNL1        0.3310
     11 O           4.4193   -3.8986   22.6936 O.2     1  UNL1       -0.2501
     12 N           4.5256   -3.2011   20.1153 N.am    1  UNL1       -0.1647
     13 C           4.1807   -1.9672   19.3352 C.2     1  UNL1        0.0706
     14 C           4.2689   -1.6473   17.8725 C.3     1  UNL1        0.0705
     15 C           3.8424   -0.2989   17.3727 C.2     1  UNL1       -0.0199
     16 C           3.3276    0.7296   18.3357 C.2     1  UNL1       -0.0029
     17 C           3.2394    0.4096   19.7985 C.2     1  UNL1        0.0156
     18 C           3.6660   -0.9388   20.2982 C.2     1  UNL1        0.0668
     19 N           3.8932    0.0695   30.6528 N.3     1  UNL1       -0.2689
     20 C           2.6336   -0.6159   30.2124 C.3     1  UNL1        0.0729
     21 C           1.9945   -0.2442   28.9073 C.3     1  UNL1        0.0264
     22 C           2.6149    0.8130   28.0426 C.3     1  UNL1        0.0795
     23 C           3.8744    1.4983   28.4831 C.3     1  UNL1        0.0264
     24 C           4.5135    1.1266   29.7882 C.3     1  UNL1        0.0729
     25 C           4.5323   -0.3023   31.9579 C.3     1  UNL1        0.0993
     26 N           6.3697   -5.1317   32.5066 N.pl3   1  UNL1       -0.3426
     27 C           6.6074   -3.6720   32.2560 C.ar    1  UNL1        0.1251
     28 C           5.4509   -2.7169   32.2322 C.ar    1  UNL1        0.0310
     29 C           5.6887   -1.2572   31.9817 C.ar    1  UNL1       -0.0018
     30 C           7.0829   -0.7526   31.7548 C.ar    1  UNL1        0.0179
     31 C           8.2394   -1.7076   31.7785 C.ar    1  UNL1        0.1000
     32 N           8.0016   -3.1673   32.0291 N.ar    1  UNL1       -0.2296
     33 H           5.4546   -5.4630   32.6555 H       1  UNL1        0.1437
     34 H           7.1287   -5.7585   32.5221 H       1  UNL1        0.1437
@<TRIPOS>BOND
     1    26    27    1
     2    27    28   ar
     3    28    29   ar
     4    29    25    1
     5    25    19    1
     6    19    20    1
     7    20    21    1
     8    21    22    1
     9    22     1    1
    10     1     2    2
    11     1     3   am
    12     3     4    1
    13     4     5    1
    14     5     6    1
    15     6     9    1
    16     9    10   am
    17    10    11    2
    18    10    12    1
    19    12    13    2
    20    13    14    1
    21    14    15    1
    22    15    16    2
    23    16    17    1
    24    17    18    2
    25     6     7    1
    26     7     8    1
    27    22    23    1
    28    23    24    1
    29    29    30   ar
    30    30    31   ar
    31    31    32   ar
    32    32    27   ar
    33    24    19    1
    34     8     3    1
    35    18     9    1
    36    18    13    1
    37    26    33    1
    38    26    34    1
@<TRIPOS>MOLECULE
*****
 34 38 0 0 0
SMALL
GASTEIGER

@<TRIPOS>ATOM
      1 C           4.1449   -0.0288   32.3085 C.2     1  UNL1        0.2252
      2 O           3.2338    0.3279   31.1716 O.2     1  UNL1       -0.2749
      3 N           3.9620    0.6204   33.6483 N.am    1  UNL1       -0.2794
      4 C           2.8679    1.6263   33.8512 C.3     1  UNL1        0.0951
      5 C           2.6850    2.2755   35.1909 C.3     1  UNL1        0.0418
      6 C           3.5962    1.9189   36.3279 C.3     1  UNL1        0.0848
      7 C           4.6902    0.9130   36.1250 C.3     1  UNL1        0.0418
      8 C           4.8732    0.2638   34.7852 C.3     1  UNL1        0.0951
      9 N           3.4133    2.5681   37.6677 N.am    1  UNL1       -0.2422
     10 C           2.3345    2.2518   38.6608 C.2     1  UNL1        0.3310
     11 O           1.2493    1.2307   38.4885 O.2     1  UNL1       -0.2501
     12 N           2.5316    3.1358   39.8565 N.am    1  UNL1       -0.1647
     13 C           3.7321    3.9985   39.6023 C.2     1  UNL1        0.0706
     14 C           4.3994    5.0582   40.4279 C.3     1  UNL1        0.0705
     15 C           5.6117    5.7670   39.9008 C.2     1  UNL1       -0.0199
     16 C           6.1566    5.4161   38.5480 C.2     1  UNL1       -0.0029
     17 C           5.4893    4.3564   37.7224 C.2     1  UNL1        0.0156
     18 C           4.2770    3.6476   38.2496 C.2     1  UNL1        0.0668
     19 N           7.4272   -3.0464   31.6998 N.3     1  UNL1       -0.2689
     20 C           6.1426   -3.4576   32.3562 C.3     1  UNL1        0.0729
     21 C           5.0485   -2.4518   32.5591 C.3     1  UNL1        0.0264
     22 C           5.2390   -1.0347   32.1056 C.3     1  UNL1        0.0795
     23 C           6.5236   -0.6235   31.4492 C.3     1  UNL1        0.0264
     24 C           7.6177   -1.6294   31.2463 C.3     1  UNL1        0.0729
     25 C           8.5213   -4.0523   31.4969 C.3     1  UNL1        0.0993
     26 N           5.9713   -6.0201   27.4195 N.pl3   1  UNL1       -0.3426
     27 C           7.1240   -6.0698   28.3782 C.ar    1  UNL1        0.1251
     28 C           7.2463   -5.0362   29.4583 C.ar    1  UNL1        0.0310
     29 C           8.3990   -5.0859   30.4169 C.ar    1  UNL1       -0.0018
     30 C           9.4293   -6.1693   30.2953 C.ar    1  UNL1        0.0179
     31 C           9.3070   -7.2029   29.2152 C.ar    1  UNL1        0.1000
     32 N           8.1543   -7.1531   28.2566 N.ar    1  UNL1       -0.2296
     33 H           5.2951   -5.3091   27.4992 H       1  UNL1        0.1437
     34 H           5.8911   -6.6985   26.7106 H       1  UNL1        0.1437
@<TRIPOS>BOND
     1    26    27    1
     2    27    28   ar
     3    28    29   ar
     4    29    25    1
     5    25    19    1
     6    19    20    1
     7    20    21    1
     8    21    22    1
     9    22     1    1
    10     1     2    2
    11     1     3   am
    12     3     4    1
    13     4     5    1
    14     5     6    1
    15     6     9    1
    16     9    10   am
    17    10    11    2
    18    10    12    1
    19    12    13    2
    20    13    14    1
    21    14    15    1
    22    15    16    2
    23    16    17    1
    24    17    18    2
    25     6     7    1
    26     7     8    1
    27    22    23    1
    28    23    24    1
    29    29    30   ar
    30    30    31   ar
    31    31    32   ar
    32    32    27   ar
    33    24    19    1
    34     8     3    1
    35    18     9    1
    36    18    13    1
    37    26    33    1
    38    26    34    1
@<TRIPOS>MOLECULE
*****
 34 38 0 0 0
SMALL
GASTEIGER

@<TRIPOS>ATOM
      1 C           3.6986   -2.3737   20.3928 C.2     1  UNL1        0.2252
      2 O           3.3867   -2.9475   19.0425 O.2     1  UNL1       -0.2749
      3 N           2.8439   -1.2780   20.9576 N.am    1  UNL1       -0.2794
      4 C           1.6775   -0.7562   20.1721 C.3     1  UNL1        0.0951
      5 C           0.8228    0.3395   20.7368 C.3     1  UNL1        0.0418
      6 C           1.1346    0.9134   22.0873 C.3     1  UNL1        0.0848
      7 C           2.3010    0.3916   22.8727 C.3     1  UNL1        0.0418
      8 C           3.1557   -0.7041   22.3080 C.3     1  UNL1        0.0951
      9 N           0.2799    2.0091   22.6521 N.am    1  UNL1       -0.2422
     10 C          -0.2644    3.1828   21.8930 C.2     1  UNL1        0.3310
     11 O          -0.0497    3.4668   20.4359 O.2     1  UNL1       -0.2501
     12 N          -1.0612    4.0225   22.8469 N.am    1  UNL1       -0.1647
     13 C          -1.0093    3.3679   24.1955 C.2     1  UNL1        0.0706
     14 C          -1.6097    3.7441   25.5176 C.3     1  UNL1        0.0705
     15 C          -1.3812    2.8759   26.7193 C.2     1  UNL1       -0.0199
     16 C          -0.5523    1.6315   26.5988 C.2     1  UNL1       -0.0029
     17 C           0.0481    1.2553   25.2768 C.2     1  UNL1        0.0156
     18 C          -0.1804    2.1235   24.0751 C.2     1  UNL1        0.0668
     19 N           7.1979   -3.9392   22.7495 N.3     1  UNL1       -0.2689
     20 C           5.8079   -4.0613   23.3001 C.3     1  UNL1        0.0729
     21 C           4.6415   -3.5395   22.5146 C.3     1  UNL1        0.0264
     22 C           4.8650   -2.8955   21.1784 C.3     1  UNL1        0.0795
     23 C           6.2549   -2.7734   20.6277 C.3     1  UNL1        0.0264
     24 C           7.4214   -3.2952   21.4133 C.3     1  UNL1        0.0729
     25 C           8.3644   -4.4610   23.5350 C.3     1  UNL1        0.0993
     26 N           6.9552   -8.4597   26.5391 N.pl3   1  UNL1       -0.3426
     27 C           7.4435   -7.0482   26.3999 C.ar    1  UNL1        0.1251
     28 C           7.6598   -6.4603   25.0370 C.ar    1  UNL1        0.0310
     29 C           8.1480   -5.0488   24.8980 C.ar    1  UNL1       -0.0018
     30 C           8.4199   -4.2252   26.1218 C.ar    1  UNL1        0.0179
     31 C           8.2036   -4.8132   27.4847 C.ar    1  UNL1        0.1000
     32 N           7.7153   -6.2247   27.6238 N.ar    1  UNL1       -0.2296
     33 H           6.7768   -9.0003   25.7359 H       1  UNL1        0.1437
     34 H           6.8132   -8.8456   27.4336 H       1  UNL1        0.1437
@<TRIPOS>BOND
     1    26    27    1
     2    27    28   ar
     3    28    29   ar
     4    29    25    1
     5    25    19    1
     6    19    20    1
     7    20    21    1
     8    21    22    1
     9    22     1    1
    10     1     2    2
    11     1     3   am
    12     3     4    1
    13     4     5    1
    14     5     6    1
    15     6     9    1
    16     9    10   am
    17    10    11    2
    18    10    12    1
    19    12    13    2
    20    13    14    1
    21    14    15    1
    22    15    16    2
    23    16    17    1
    24    17    18    2
    25     6     7    1
    26     7     8    1
    27    22    23    1
    28    23    24    1
    29    29    30   ar
    30    30    31   ar
    31    31    32   ar
    32    32    27   ar
    33    24    19    1
    34     8     3    1
    35    18     9    1
    36    18    13    1
    37    26    33    1
    38    26    34    1
@<TRIPOS>MOLECULE
*****
 34 38 0 0 0
SMALL
GASTEIGER

@<TRIPOS>ATOM
      1 C           1.3477    1.3577   28.1191 C.2     1  UNL1        0.2252
      2 O           0.1284    2.1450   28.4976 O.2     1  UNL1       -0.2749
      3 N           1.5919    0.9973   26.6836 N.am    1  UNL1       -0.2794
      4 C           0.6168    1.4242   25.6268 C.3     1  UNL1        0.0951
      5 C           0.8611    1.0638   24.1914 C.3     1  UNL1        0.0418
      6 C           2.0805    0.2764   23.8128 C.3     1  UNL1        0.0848
      7 C           3.0555   -0.1505   24.8696 C.3     1  UNL1        0.0418
      8 C           2.8113    0.2100   26.3050 C.3     1  UNL1        0.0951
      9 N           2.3247   -0.0840   22.3773 N.am    1  UNL1       -0.2422
     10 C           3.1826   -1.2117   21.8851 C.2     1  UNL1        0.3310
     11 O           3.9470   -2.1770   22.7419 O.2     1  UNL1       -0.2501
     12 N           3.1420   -1.2046   20.3857 N.am    1  UNL1       -0.1647
     13 C           2.2590   -0.0726   19.9512 C.2     1  UNL1        0.0706
     14 C           1.8496    0.4171   18.5938 C.3     1  UNL1        0.0705
     15 C           0.9351    1.5993   18.4673 C.2     1  UNL1       -0.0199
     16 C           0.4300    2.2919   19.6982 C.2     1  UNL1       -0.0029
     17 C           0.8394    1.8022   21.0556 C.2     1  UNL1        0.0156
     18 C           1.7538    0.6200   21.1821 C.2     1  UNL1        0.0668
     19 N           4.2730    0.0770   31.2896 N.3     1  UNL1       -0.2689
     20 C           4.4836    1.3658   30.5514 C.3     1  UNL1        0.0729
     21 C           3.5085    1.7927   29.4945 C.3     1  UNL1        0.0264
     22 C           2.3228    0.9308   29.1759 C.3     1  UNL1        0.0795
     23 C           2.1123   -0.3579   29.9141 C.3     1  UNL1        0.0264
     24 C           3.0874   -0.7848   30.9709 C.3     1  UNL1        0.0729
     25 C           5.2481   -0.3499   32.3464 C.3     1  UNL1        0.0993
     26 N           6.3983   -5.4165   32.4290 N.pl3   1  UNL1       -0.3426
     27 C           6.7843   -4.0017   32.1137 C.ar    1  UNL1        0.1251
     28 C           5.8232   -2.8831   32.3877 C.ar    1  UNL1        0.0310
     29 C           6.2093   -1.4684   32.0724 C.ar    1  UNL1       -0.0018
     30 C           7.5565   -1.1721   31.4830 C.ar    1  UNL1        0.0179
     31 C           8.5176   -2.2907   31.2090 C.ar    1  UNL1        0.1000
     32 N           8.1315   -3.7054   31.5243 N.ar    1  UNL1       -0.2296
     33 H           5.5142   -5.6109   32.8158 H       1  UNL1        0.1437
     34 H           7.0292   -6.1506   32.2491 H       1  UNL1        0.1437
@<TRIPOS>BOND
     1    26    27    1
     2    27    28   ar
     3    28    29   ar
     4    29    25    1
     5    25    19    1
     6    19    20    1
     7    20    21    1
     8    21    22    1
     9    22     1    1
    10     1     2    2
    11     1     3   am
    12     3     4    1
    13     4     5    1
    14     5     6    1
    15     6     9    1
    16     9    10   am
    17    10    11    2
    18    10    12    1
    19    12    13    2
    20    13    14    1
    21    14    15    1
    22    15    16    2
    23    16    17    1
    24    17    18    2
    25     6     7    1
    26     7     8    1
    27    22    23    1
    28    23    24    1
    29    29    30   ar
    30    30    31   ar
    31    31    32   ar
    32    32    27   ar
    33    24    19    1
    34     8     3    1
    35    18     9    1
    36    18    13    1
    37    26    33    1
    38    26    34    1
