@<TRIPOS>MOLECULE
*****
 41 45 0 0 0
SMALL
GASTEIGER

@<TRIPOS>ATOM
      1 C           6.1751   -2.9253   31.7513 C.3     1  UNL1        0.1183
      2 N           5.1684   -1.8413   31.5031 N.am    1  UNL1       -0.2424
      3 C           5.2583   -1.0042   30.2617 C.3     1  UNL1        0.1200
      4 C           4.2517    0.0797   30.0134 C.3     1  UNL1        0.1344
      5 C           3.1551    0.3266   31.0066 C.3     1  UNL1        0.2057
      6 O           3.0651   -0.5105   32.2480 O.3     1  UNL1       -0.4351
      7 C           4.0718   -1.5945   32.4963 C.2     1  UNL1        0.4049
      8 O           3.9819   -2.4316   33.7377 O.2     1  UNL1       -0.2262
      9 N           4.3416    0.9168   28.7719 N.am    1  UNL1       -0.2852
     10 C           3.7997    0.3946   27.4744 C.2     1  UNL1        0.3046
     11 O           3.1678   -0.9647   27.4184 O.2     1  UNL1       -0.2525
     12 N           3.8896    1.2317   26.2330 N.am    1  UNL1       -0.2683
     13 H           4.7564    1.8090   28.8088 H       1  UNL1        0.1511
     14 H           4.3043    2.1238   26.2698 H       1  UNL1        0.1564
     15 C           3.3477    0.7095   24.9354 C.ar    1  UNL1        0.0517
     16 C           2.1082    1.3122   24.3435 C.ar    1  UNL1        0.0147
     17 C           1.5662    0.7900   23.0460 C.ar    1  UNL1        0.0014
     18 C           2.2637   -0.3349   22.3403 C.ar    1  UNL1        0.0032
     19 C           3.5033   -0.9377   22.9322 C.ar    1  UNL1        0.0386
     20 C           4.0452   -0.4155   24.2298 C.ar    1  UNL1        0.0178
     21 C           4.2008   -2.0626   22.2266 C.ar    1  UNL1        0.1839
     22 N           4.3381   -3.4689   22.7300 N.ar    1  UNL1       -0.1081
     23 N           5.1057   -4.2542   21.7082 N.ar    1  UNL1       -0.0227
     24 N           5.4428   -3.3332   20.5731 N.ar    1  UNL1       -0.0429
     25 N           4.8835   -1.9787   20.8935 N.ar    1  UNL1       -0.2113
     26 C           4.9885   -0.7552   20.0322 C.3     1  UNL1        0.1573
     27 C           2.1484    1.4106   30.7584 C.3     1  UNL1        0.1181
     28 N           1.1524    1.2687   29.6458 N.3     1  UNL1       -0.2696
     29 C           0.4472   -0.0379   29.4325 C.3     1  UNL1        0.0722
     30 C          -0.5488   -0.1798   28.3199 C.3     1  UNL1        0.0174
     31 C          -0.8395    0.9849   27.4205 C.3     1  UNL1        0.0031
     32 C          -0.1343    2.2915   27.6338 C.3     1  UNL1        0.0204
     33 C           0.8617    2.4334   28.7464 C.3     1  UNL1        0.0725
     34 C          -0.4250    3.4562   26.7344 C.3     1  UNL1        0.0277
     35 C          -1.7607    3.5689   26.0612 C.ar    1  UNL1       -0.0220
     36 C          -1.8626    3.4379   24.5703 C.ar    1  UNL1       -0.0020
     37 C          -3.1983    3.5506   23.8971 C.ar    1  UNL1        0.0293
     38 C          -4.4321    3.7942   24.7147 C.ar    1  UNL1        0.1401
     39 F          -5.7678    3.9068   24.0415 F       1  UNL1       -0.2042
     40 C          -4.3302    3.9252   26.2054 C.ar    1  UNL1        0.0293
     41 C          -2.9945    3.8125   26.8787 C.ar    1  UNL1       -0.0020
@<TRIPOS>BOND
     1     1     2    1
     2     2     3    1
     3     3     4    1
     4     4     9    1
     5     9    10   am
     6    10    11    2
     7    10    12   am
     8    12    15    1
     9    15    16   ar
    10    16    17   ar
    11    17    18   ar
    12    18    19   ar
    13    19    21    1
    14    21    22   ar
    15    22    23   ar
    16    23    24   ar
    17    24    25   ar
    18    25    26    1
    19    19    20   ar
    20     4     5    1
    21     5    27    1
    22    27    28    1
    23    28    29    1
    24    29    30    1
    25    30    31    1
    26    31    32    1
    27    32    34    1
    28    34    35    1
    29    35    36   ar
    30    36    37   ar
    31    37    38   ar
    32    38    39    1
    33    38    40   ar
    34    40    41   ar
    35    32    33    1
    36     5     6    1
    37     6     7    1
    38     7     8    2
    39     7     2   am
    40    20    15   ar
    41    33    28    1
    42    25    21   ar
    43    41    35   ar
    44     9    13    1
    45    12    14    1
@<TRIPOS>MOLECULE
*****
 41 45 0 0 0
SMALL
GASTEIGER

@<TRIPOS>ATOM
      1 C           7.4455   -5.9983   26.4053 C.3     1  UNL1        0.1183
      2 N           7.3460   -5.0954   25.2116 N.am    1  UNL1       -0.2424
      3 C           6.9289   -3.6652   25.3857 C.3     1  UNL1        0.1200
      4 C           6.8294   -2.7623   24.1920 C.3     1  UNL1        0.1344
      5 C           7.1468   -3.2897   22.8242 C.3     1  UNL1        0.2057
      6 O           7.5639   -4.7200   22.6500 O.3     1  UNL1       -0.4351
      7 C           7.6634   -5.6228   23.8437 C.2     1  UNL1        0.4049
      8 O           8.0805   -7.0532   23.6695 O.2     1  UNL1       -0.2262
      9 N           6.4123   -1.3319   24.3662 N.am    1  UNL1       -0.2852
     10 C           4.9650   -0.9916   24.5645 C.2     1  UNL1        0.3046
     11 O           3.9347   -2.0816   24.5885 O.2     1  UNL1       -0.2525
     12 N           4.5479    0.4387   24.7387 N.am    1  UNL1       -0.2683
     13 H           7.0885   -0.6166   24.3504 H       1  UNL1        0.1511
     14 H           5.2241    1.1540   24.7229 H       1  UNL1        0.1564
     15 C           3.1005    0.7790   24.9369 C.ar    1  UNL1        0.0517
     16 C           2.2708    1.2337   23.7730 C.ar    1  UNL1        0.0147
     17 C           0.8234    1.5741   23.9713 C.ar    1  UNL1        0.0014
     18 C           0.2058    1.4598   25.3334 C.ar    1  UNL1        0.0032
     19 C           1.0356    1.0050   26.4974 C.ar    1  UNL1        0.0386
     20 C           2.4829    0.6646   26.2991 C.ar    1  UNL1        0.0178
     21 C           0.4180    0.8907   27.8595 C.ar    1  UNL1        0.1839
     22 N          -0.6489   -0.0827   28.2650 N.ar    1  UNL1       -0.1081
     23 N          -0.9674    0.1546   29.7114 N.ar    1  UNL1       -0.0227
     24 N          -0.0974    1.2747   30.2000 N.ar    1  UNL1       -0.0429
     25 N           0.7588    1.7296   29.0554 N.ar    1  UNL1       -0.2113
     26 C           1.7771    2.8301   29.0991 C.3     1  UNL1        0.1573
     27 C           7.0473   -2.3868   21.6305 C.3     1  UNL1        0.1181
     28 N           5.9794   -2.6174   20.6027 N.3     1  UNL1       -0.2696
     29 C           5.5750   -4.0162   20.2421 C.3     1  UNL1        0.0722
     30 C           4.5071   -4.2468   19.2143 C.3     1  UNL1        0.0174
     31 C           3.8435   -3.0786   18.5471 C.3     1  UNL1        0.0031
     32 C           4.2478   -1.6799   18.9077 C.3     1  UNL1        0.0204
     33 C           5.3158   -1.4493   19.9355 C.3     1  UNL1        0.0725
     34 C           3.5843   -0.5118   18.2405 C.3     1  UNL1        0.0277
     35 C           2.4287    0.1750   18.9060 C.ar    1  UNL1       -0.0220
     36 C           1.5893   -0.5663   19.9040 C.ar    1  UNL1       -0.0020
     37 C           0.4337    0.1204   20.5695 C.ar    1  UNL1        0.0293
     38 C           0.1175    1.5485   20.2371 C.ar    1  UNL1        0.1401
     39 F          -1.0380    2.2353   20.9026 F       1  UNL1       -0.2042
     40 C           0.9568    2.2899   19.2392 C.ar    1  UNL1        0.0293
     41 C           2.1125    1.6031   18.5736 C.ar    1  UNL1       -0.0020
@<TRIPOS>BOND
     1     1     2    1
     2     2     3    1
     3     3     4    1
     4     4     9    1
     5     9    10   am
     6    10    11    2
     7    10    12   am
     8    12    15    1
     9    15    16   ar
    10    16    17   ar
    11    17    18   ar
    12    18    19   ar
    13    19    21    1
    14    21    22   ar
    15    22    23   ar
    16    23    24   ar
    17    24    25   ar
    18    25    26    1
    19    19    20   ar
    20     4     5    1
    21     5    27    1
    22    27    28    1
    23    28    29    1
    24    29    30    1
    25    30    31    1
    26    31    32    1
    27    32    34    1
    28    34    35    1
    29    35    36   ar
    30    36    37   ar
    31    37    38   ar
    32    38    39    1
    33    38    40   ar
    34    40    41   ar
    35    32    33    1
    36     5     6    1
    37     6     7    1
    38     7     8    2
    39     7     2   am
    40    20    15   ar
    41    33    28    1
    42    25    21   ar
    43    41    35   ar
    44     9    13    1
    45    12    14    1
@<TRIPOS>MOLECULE
*****
 41 45 0 0 0
SMALL
GASTEIGER

@<TRIPOS>ATOM
      1 C          -3.2666    5.5574   17.5054 C.3     1  UNL1        0.1183
      2 N          -2.5982    4.7775   18.5986 N.am    1  UNL1       -0.2424
      3 C          -1.1384    4.9788   18.8786 C.3     1  UNL1        0.1200
      4 C          -0.4700    4.1989   19.9718 C.3     1  UNL1        0.1344
      5 C          -1.2613    3.2178   20.7849 C.3     1  UNL1        0.2057
      6 O          -2.7211    3.0166   20.5049 O.3     1  UNL1       -0.4351
      7 C          -3.3895    3.7965   19.4117 C.2     1  UNL1        0.4049
      8 O          -4.8494    3.5952   19.1317 O.2     1  UNL1       -0.2262
      9 N           0.9899    4.4002   20.2518 N.am    1  UNL1       -0.2852
     10 C           2.0180    3.8221   19.3250 C.2     1  UNL1        0.3046
     11 O           1.5862    3.0428   18.1182 O.2     1  UNL1       -0.2525
     12 N           3.4778    4.0233   19.6050 N.am    1  UNL1       -0.2683
     13 H           1.2733    4.9116   21.0439 H       1  UNL1        0.1511
     14 H           3.7612    4.5348   20.3971 H       1  UNL1        0.1564
     15 C           4.5059    3.4453   18.6782 C.ar    1  UNL1        0.0517
     16 C           5.3024    4.3489   17.7843 C.ar    1  UNL1        0.0147
     17 C           6.3305    3.7709   16.8576 C.ar    1  UNL1        0.0014
     18 C           6.5620    2.2892   16.8246 C.ar    1  UNL1        0.0032
     19 C           5.7655    1.3856   17.7185 C.ar    1  UNL1        0.0386
     20 C           4.7374    1.9636   18.6453 C.ar    1  UNL1        0.0178
     21 C           5.9970   -0.0961   17.6856 C.ar    1  UNL1        0.1839
     22 N           7.3079   -0.7888   17.9128 N.ar    1  UNL1       -0.1081
     23 N           7.0795   -2.2660   17.7873 N.ar    1  UNL1       -0.0227
     24 N           5.6273   -2.4862   17.4826 N.ar    1  UNL1       -0.0429
     25 N           4.9584   -1.1451   17.4198 N.ar    1  UNL1       -0.2113
     26 C           3.5057   -0.8967   17.1402 C.3     1  UNL1        0.1573
     27 C          -0.5929    2.4380   21.8781 C.3     1  UNL1        0.1181
     28 N           0.3770    1.3463   21.5354 N.3     1  UNL1       -0.2696
     29 C           0.1659    0.5145   20.3051 C.3     1  UNL1        0.0722
     30 C           1.1358   -0.5772   19.9623 C.3     1  UNL1        0.0174
     31 C           2.3168   -0.8372   20.8499 C.3     1  UNL1        0.0031
     32 C           2.5279   -0.0054   22.0801 C.3     1  UNL1        0.0204
     33 C           1.5580    1.0864   22.4229 C.3     1  UNL1        0.0725
     34 C           3.7089   -0.2653   22.9676 C.3     1  UNL1        0.0277
     35 C           4.6858   -1.3485   22.6180 C.ar    1  UNL1       -0.0220
     36 C           4.6259   -2.6696   23.3260 C.ar    1  UNL1       -0.0020
     37 C           5.6028   -3.7528   22.9764 C.ar    1  UNL1        0.0293
     38 C           6.6396   -3.5150   21.9189 C.ar    1  UNL1        0.1401
     39 F           7.6165   -4.5982   21.5693 F       1  UNL1       -0.2042
     40 C           6.6996   -2.1940   21.2109 C.ar    1  UNL1        0.0293
     41 C           5.7226   -1.1107   21.5605 C.ar    1  UNL1       -0.0020
@<TRIPOS>BOND
     1     1     2    1
     2     2     3    1
     3     3     4    1
     4     4     9    1
     5     9    10   am
     6    10    11    2
     7    10    12   am
     8    12    15    1
     9    15    16   ar
    10    16    17   ar
    11    17    18   ar
    12    18    19   ar
    13    19    21    1
    14    21    22   ar
    15    22    23   ar
    16    23    24   ar
    17    24    25   ar
    18    25    26    1
    19    19    20   ar
    20     4     5    1
    21     5    27    1
    22    27    28    1
    23    28    29    1
    24    29    30    1
    25    30    31    1
    26    31    32    1
    27    32    34    1
    28    34    35    1
    29    35    36   ar
    30    36    37   ar
    31    37    38   ar
    32    38    39    1
    33    38    40   ar
    34    40    41   ar
    35    32    33    1
    36     5     6    1
    37     6     7    1
    38     7     8    2
    39     7     2   am
    40    20    15   ar
    41    33    28    1
    42    25    21   ar
    43    41    35   ar
    44     9    13    1
    45    12    14    1
@<TRIPOS>MOLECULE
*****
 41 45 0 0 0
SMALL
GASTEIGER

@<TRIPOS>ATOM
      1 C          -0.8323    0.8702   28.4892 C.3     1  UNL1        0.1183
      2 N           0.5619    0.9198   27.9381 N.am    1  UNL1       -0.2424
      3 C           0.8418    1.6753   26.6728 C.3     1  UNL1        0.1200
      4 C           2.2359    1.7249   26.1217 C.3     1  UNL1        0.1344
      5 C           3.3503    1.0190   26.8357 C.3     1  UNL1        0.2057
      6 O           3.0704    0.2635   28.1009 O.3     1  UNL1       -0.4351
      7 C           1.6762    0.2139   28.6521 C.2     1  UNL1        0.4049
      8 O           1.3964   -0.5417   29.9174 O.2     1  UNL1       -0.2262
      9 N           2.5158    2.4805   24.8564 N.am    1  UNL1       -0.2852
     10 C           2.4088    1.7880   23.5301 C.2     1  UNL1        0.3046
     11 O           2.0220    0.3399   23.4691 O.2     1  UNL1       -0.2525
     12 N           2.6886    2.5435   22.2648 N.am    1  UNL1       -0.2683
     13 H           2.7696    3.4308   24.8964 H       1  UNL1        0.1511
     14 H           2.9425    3.4938   22.3049 H       1  UNL1        0.1564
     15 C           2.5817    1.8510   20.9385 C.ar    1  UNL1        0.0517
     16 C           1.2325    1.5383   20.3623 C.ar    1  UNL1        0.0147
     17 C           1.1256    0.8459   19.0361 C.ar    1  UNL1        0.0014
     18 C           2.3677    0.4660   18.2860 C.ar    1  UNL1        0.0032
     19 C           3.7170    0.7787   18.8622 C.ar    1  UNL1        0.0386
     20 C           3.8239    1.4712   20.1884 C.ar    1  UNL1        0.0178
     21 C           4.9591    0.3988   18.1121 C.ar    1  UNL1        0.1839
     22 N           5.4775   -0.9946   17.9131 N.ar    1  UNL1       -0.1081
     23 N           6.7398   -0.9089   17.1073 N.ar    1  UNL1       -0.0227
     24 N           7.0016    0.5375   16.8082 N.ar    1  UNL1       -0.0429
     25 N           5.9010    1.3457   17.4292 N.ar    1  UNL1       -0.2113
     26 C           5.7661    2.8387   17.3766 C.3     1  UNL1        0.1573
     27 C           4.7444    1.0686   26.2845 C.3     1  UNL1        0.1181
     28 N           5.3559   -0.1602   25.6795 N.3     1  UNL1       -0.2696
     29 C           5.7238   -1.3228   26.5531 C.3     1  UNL1        0.0722
     30 C           6.3353   -2.5516   25.9481 C.3     1  UNL1        0.0174
     31 C           6.5788   -2.6180   24.4695 C.3     1  UNL1        0.0031
     32 C           6.2110   -1.4555   23.5959 C.3     1  UNL1        0.0204
     33 C           5.5995   -0.2266   24.2009 C.3     1  UNL1        0.0725
     34 C           6.4545   -1.5218   22.1173 C.3     1  UNL1        0.0277
     35 C           5.5266   -2.3074   21.2389 C.ar    1  UNL1       -0.0220
     36 C           6.0329   -3.5099   20.4988 C.ar    1  UNL1       -0.0020
     37 C           5.1049   -4.2955   19.6203 C.ar    1  UNL1        0.0293
     38 C           3.6707   -3.8786   19.4818 C.ar    1  UNL1        0.1401
     39 F           2.7428   -4.6642   18.6034 F       1  UNL1       -0.2042
     40 C           3.1644   -2.6761   20.2219 C.ar    1  UNL1        0.0293
     41 C           4.0924   -1.8905   21.1004 C.ar    1  UNL1       -0.0020
@<TRIPOS>BOND
     1     1     2    1
     2     2     3    1
     3     3     4    1
     4     4     9    1
     5     9    10   am
     6    10    11    2
     7    10    12   am
     8    12    15    1
     9    15    16   ar
    10    16    17   ar
    11    17    18   ar
    12    18    19   ar
    13    19    21    1
    14    21    22   ar
    15    22    23   ar
    16    23    24   ar
    17    24    25   ar
    18    25    26    1
    19    19    20   ar
    20     4     5    1
    21     5    27    1
    22    27    28    1
    23    28    29    1
    24    29    30    1
    25    30    31    1
    26    31    32    1
    27    32    34    1
    28    34    35    1
    29    35    36   ar
    30    36    37   ar
    31    37    38   ar
    32    38    39    1
    33    38    40   ar
    34    40    41   ar
    35    32    33    1
    36     5     6    1
    37     6     7    1
    38     7     8    2
    39     7     2   am
    40    20    15   ar
    41    33    28    1
    42    25    21   ar
    43    41    35   ar
    44     9    13    1
    45    12    14    1
@<TRIPOS>MOLECULE
*****
 41 45 0 0 0
SMALL
GASTEIGER

@<TRIPOS>ATOM
      1 C           1.8564    2.1344   28.8076 C.3     1  UNL1        0.1183
      2 N           2.9788    1.3781   28.1610 N.am    1  UNL1       -0.2424
      3 C           2.7086    0.5091   26.9686 C.3     1  UNL1        0.1200
      4 C           3.8309   -0.2473   26.3220 C.3     1  UNL1        0.1344
      5 C           5.2236   -0.1346   26.8676 C.3     1  UNL1        0.2057
      6 O           5.4939    0.7345   28.0599 O.3     1  UNL1       -0.4351
      7 C           4.3715    1.4908   28.7066 C.2     1  UNL1        0.4049
      8 O           4.6418    2.3599   29.8990 O.2     1  UNL1       -0.2262
      9 N           3.5606   -1.1164   25.1296 N.am    1  UNL1       -0.2852
     10 C           3.3832   -0.4971   23.7749 C.2     1  UNL1        0.3046
     11 O           3.4761    0.9913   23.6127 O.2     1  UNL1       -0.2525
     12 N           3.1129   -1.3661   22.5826 N.am    1  UNL1       -0.2683
     13 H           3.4997   -2.0932   25.2361 H       1  UNL1        0.1511
     14 H           3.0519   -2.3429   22.6891 H       1  UNL1        0.1564
     15 C           2.9354   -0.7468   21.2280 C.ar    1  UNL1        0.0517
     16 C           1.5572   -0.4741   20.7027 C.ar    1  UNL1        0.0147
     17 C           1.3797    0.1452   19.3481 C.ar    1  UNL1        0.0014
     18 C           2.5805    0.4917   18.5187 C.ar    1  UNL1        0.0032
     19 C           3.9589    0.2190   19.0440 C.ar    1  UNL1        0.0386
     20 C           4.1363   -0.4003   20.3986 C.ar    1  UNL1        0.0178
     21 C           5.1597    0.5655   18.2146 C.ar    1  UNL1        0.1839
     22 N           5.6199   -0.1582   16.9840 N.ar    1  UNL1       -0.1081
     23 N           6.8558    0.5256   16.4790 N.ar    1  UNL1       -0.0227
     24 N           7.1595    1.6719   17.3976 N.ar    1  UNL1       -0.0429
     25 N           6.1112    1.6966   18.4702 N.ar    1  UNL1       -0.2113
     26 C           6.0290    2.6797   19.6001 C.3     1  UNL1        0.1573
     27 C           6.3460   -0.8909   26.2209 C.3     1  UNL1        0.1181
     28 N           6.7288   -0.5961   24.8009 N.3     1  UNL1       -0.2696
     29 C           6.9191    0.8234   24.3546 C.3     1  UNL1        0.0722
     30 C           7.3019    1.1182   22.9346 C.3     1  UNL1        0.0174
     31 C           7.4945   -0.0064   21.9608 C.3     1  UNL1        0.0031
     32 C           7.3043   -1.4257   22.4070 C.3     1  UNL1        0.0204
     33 C           6.9214   -1.7206   23.8271 C.3     1  UNL1        0.0725
     34 C           7.4969   -2.5503   21.4332 C.3     1  UNL1        0.0277
     35 C           6.3185   -3.1142   20.6961 C.ar    1  UNL1       -0.0220
     36 C           5.2434   -3.8432   21.4464 C.ar    1  UNL1       -0.0020
     37 C           4.0650   -4.4072   20.7093 C.ar    1  UNL1        0.0293
     38 C           3.9617   -4.2422   19.2220 C.ar    1  UNL1        0.1401
     39 F           2.7833   -4.8061   18.4849 F       1  UNL1       -0.2042
     40 C           5.0367   -3.5133   18.4717 C.ar    1  UNL1        0.0293
     41 C           6.2152   -2.9493   19.2088 C.ar    1  UNL1       -0.0020
@<TRIPOS>BOND
     1     1     2    1
     2     2     3    1
     3     3     4    1
     4     4     9    1
     5     9    10   am
     6    10    11    2
     7    10    12   am
     8    12    15    1
     9    15    16   ar
    10    16    17   ar
    11    17    18   ar
    12    18    19   ar
    13    19    21    1
    14    21    22   ar
    15    22    23   ar
    16    23    24   ar
    17    24    25   ar
    18    25    26    1
    19    19    20   ar
    20     4     5    1
    21     5    27    1
    22    27    28    1
    23    28    29    1
    24    29    30    1
    25    30    31    1
    26    31    32    1
    27    32    34    1
    28    34    35    1
    29    35    36   ar
    30    36    37   ar
    31    37    38   ar
    32    38    39    1
    33    38    40   ar
    34    40    41   ar
    35    32    33    1
    36     5     6    1
    37     6     7    1
    38     7     8    2
    39     7     2   am
    40    20    15   ar
    41    33    28    1
    42    25    21   ar
    43    41    35   ar
    44     9    13    1
    45    12    14    1
@<TRIPOS>MOLECULE
*****
 41 45 0 0 0
SMALL
GASTEIGER

@<TRIPOS>ATOM
      1 C          -7.7414    7.0508   26.6786 C.3     1  UNL1        0.1183
      2 N          -6.5554    6.1346   26.6151 N.am    1  UNL1       -0.2424
      3 C          -6.4283    5.1491   25.4914 C.3     1  UNL1        0.1200
      4 C          -5.2423    4.2329   25.4279 C.3     1  UNL1        0.1344
      5 C          -4.1835    4.3022   26.4880 C.3     1  UNL1        0.2057
      6 O          -4.3105    5.2876   27.6116 O.3     1  UNL1       -0.4351
      7 C          -5.4965    6.2038   27.6752 C.2     1  UNL1        0.4049
      8 O          -5.6236    7.1894   28.7989 O.2     1  UNL1       -0.2262
      9 N          -5.1153    3.2474   24.3041 N.am    1  UNL1       -0.2852
     10 C          -4.7940    3.7262   22.9194 C.2     1  UNL1        0.3046
     11 O          -4.5998    5.1906   22.6584 O.2     1  UNL1       -0.2525
     12 N          -4.6670    2.7408   21.7957 N.am    1  UNL1       -0.2683
     13 H          -5.2428    2.2863   24.4755 H       1  UNL1        0.1511
     14 H          -4.7944    1.7797   21.9670 H       1  UNL1        0.1564
     15 C          -4.3457    3.2196   20.4110 C.ar    1  UNL1        0.0517
     16 C          -5.4328    3.3254   19.3829 C.ar    1  UNL1        0.0147
     17 C          -5.1116    3.8042   17.9982 C.ar    1  UNL1        0.0014
     18 C          -3.7032    4.1773   17.6415 C.ar    1  UNL1        0.0032
     19 C          -2.6160    4.0715   18.6696 C.ar    1  UNL1        0.0386
     20 C          -2.9373    3.5927   20.0543 C.ar    1  UNL1        0.0178
     21 C          -1.2076    4.4446   18.3129 C.ar    1  UNL1        0.1839
     22 N          -0.0656    3.4918   18.1183 N.ar    1  UNL1       -0.1081
     23 N           1.1539    4.2943   17.7733 N.ar    1  UNL1       -0.0227
     24 N           0.7654    5.7430   17.7546 N.ar    1  UNL1       -0.0429
     25 N          -0.6941    5.8359   18.0881 N.ar    1  UNL1       -0.2113
     26 C          -1.4987    7.0984   18.1806 C.3     1  UNL1        0.1573
     27 C          -2.9975    3.3860   26.4245 C.3     1  UNL1        0.1181
     28 N          -1.9290    3.6124   25.3963 N.3     1  UNL1       -0.2696
     29 C          -1.7866    4.9567   24.7462 C.3     1  UNL1        0.0722
     30 C          -0.7181    5.1832   23.7181 C.3     1  UNL1        0.0174
     31 C           0.2079    4.0653   23.3400 C.3     1  UNL1        0.0031
     32 C           0.0655    2.7211   23.9901 C.3     1  UNL1        0.0204
     33 C          -1.0030    2.4946   25.0183 C.3     1  UNL1        0.0725
     34 C           0.9915    1.6033   23.6120 C.3     1  UNL1        0.0277
     35 C           1.3273    1.3627   22.1700 C.ar    1  UNL1       -0.0220
     36 C           2.6642    1.7786   21.6317 C.ar    1  UNL1       -0.0020
     37 C           3.0000    1.5380   20.1898 C.ar    1  UNL1        0.0293
     38 C           1.9989    0.8815   19.2860 C.ar    1  UNL1        0.1401
     39 F           2.3346    0.6410   17.8440 F       1  UNL1       -0.2042
     40 C           0.6620    0.4656   19.8242 C.ar    1  UNL1        0.0293
     41 C           0.3262    0.7062   21.2663 C.ar    1  UNL1       -0.0020
@<TRIPOS>BOND
     1     1     2    1
     2     2     3    1
     3     3     4    1
     4     4     9    1
     5     9    10   am
     6    10    11    2
     7    10    12   am
     8    12    15    1
     9    15    16   ar
    10    16    17   ar
    11    17    18   ar
    12    18    19   ar
    13    19    21    1
    14    21    22   ar
    15    22    23   ar
    16    23    24   ar
    17    24    25   ar
    18    25    26    1
    19    19    20   ar
    20     4     5    1
    21     5    27    1
    22    27    28    1
    23    28    29    1
    24    29    30    1
    25    30    31    1
    26    31    32    1
    27    32    34    1
    28    34    35    1
    29    35    36   ar
    30    36    37   ar
    31    37    38   ar
    32    38    39    1
    33    38    40   ar
    34    40    41   ar
    35    32    33    1
    36     5     6    1
    37     6     7    1
    38     7     8    2
    39     7     2   am
    40    20    15   ar
    41    33    28    1
    42    25    21   ar
    43    41    35   ar
    44     9    13    1
    45    12    14    1
@<TRIPOS>MOLECULE
*****
 41 45 0 0 0
SMALL
GASTEIGER

@<TRIPOS>ATOM
      1 C          -7.4818    7.0466   25.4049 C.3     1  UNL1        0.1183
      2 N          -6.8354    6.0167   24.5265 N.am    1  UNL1       -0.2424
      3 C          -5.3425    5.9809   24.3863 C.3     1  UNL1        0.1200
      4 C          -4.6961    4.9511   23.5078 C.3     1  UNL1        0.1344
      5 C          -5.5428    3.9571   22.7695 C.3     1  UNL1        0.2057
      6 O          -7.0357    3.9929   22.9097 O.3     1  UNL1       -0.4351
      7 C          -7.6821    5.0227   23.7882 C.2     1  UNL1        0.4049
      8 O          -9.1751    5.0585   23.9284 O.2     1  UNL1       -0.2262
      9 N          -3.2031    4.9153   23.3676 N.am    1  UNL1       -0.2852
     10 C          -2.3952    3.9566   24.1912 C.2     1  UNL1        0.3046
     11 O          -3.0804    3.0337   25.1550 O.2     1  UNL1       -0.2525
     12 N          -0.9022    3.9208   24.0511 N.am    1  UNL1       -0.2683
     13 H          -2.7534    5.5211   22.7351 H       1  UNL1        0.1511
     14 H          -0.4525    4.5265   23.4186 H       1  UNL1        0.1564
     15 C          -0.0944    2.9621   24.8747 C.ar    1  UNL1        0.0517
     16 C           0.8491    2.0079   24.2044 C.ar    1  UNL1        0.0147
     17 C           1.6569    1.0492   25.0280 C.ar    1  UNL1        0.0014
     18 C           1.5213    1.0447   26.5218 C.ar    1  UNL1        0.0032
     19 C           0.5777    1.9990   27.1922 C.ar    1  UNL1        0.0386
     20 C          -0.2301    2.9577   26.3686 C.ar    1  UNL1        0.0178
     21 C           0.4421    1.9945   28.6860 C.ar    1  UNL1        0.1839
     22 N           1.1070    2.9475   29.6345 N.ar    1  UNL1       -0.1081
     23 N           0.6935    2.5782   31.0283 N.ar    1  UNL1       -0.0227
     24 N          -0.2269    1.3970   30.9412 N.ar    1  UNL1       -0.0429
     25 N          -0.3823    1.0362   29.4936 N.ar    1  UNL1       -0.2113
     26 C          -1.2157   -0.0858   28.9491 C.3     1  UNL1        0.1573
     27 C          -4.8964    2.9273   21.8911 C.3     1  UNL1        0.1181
     28 N          -4.1576    3.3516   20.6566 N.3     1  UNL1       -0.2696
     29 C          -4.9157    3.8598   19.4661 C.3     1  UNL1        0.0722
     30 C          -4.1769    4.2841   18.2317 C.3     1  UNL1        0.0174
     31 C          -2.6799    4.2003   18.1875 C.3     1  UNL1        0.0031
     32 C          -1.9217    3.6922   19.3779 C.3     1  UNL1        0.0204
     33 C          -2.6606    3.2678   20.6125 C.3     1  UNL1        0.0725
     34 C          -0.4247    3.6085   19.3338 C.3     1  UNL1        0.0277
     35 C           0.2560    2.2776   19.4578 C.ar    1  UNL1       -0.0220
     36 C           0.1913    1.5196   20.7506 C.ar    1  UNL1       -0.0020
     37 C           0.8720    0.1888   20.8746 C.ar    1  UNL1        0.0293
     38 C           1.6174   -0.3842   19.7058 C.ar    1  UNL1        0.1401
     39 F           2.2981   -1.7151   19.8298 F       1  UNL1       -0.2042
     40 C           1.6821    0.3737   18.4130 C.ar    1  UNL1        0.0293
     41 C           1.0014    1.7046   18.2890 C.ar    1  UNL1       -0.0020
@<TRIPOS>BOND
     1     1     2    1
     2     2     3    1
     3     3     4    1
     4     4     9    1
     5     9    10   am
     6    10    11    2
     7    10    12   am
     8    12    15    1
     9    15    16   ar
    10    16    17   ar
    11    17    18   ar
    12    18    19   ar
    13    19    21    1
    14    21    22   ar
    15    22    23   ar
    16    23    24   ar
    17    24    25   ar
    18    25    26    1
    19    19    20   ar
    20     4     5    1
    21     5    27    1
    22    27    28    1
    23    28    29    1
    24    29    30    1
    25    30    31    1
    26    31    32    1
    27    32    34    1
    28    34    35    1
    29    35    36   ar
    30    36    37   ar
    31    37    38   ar
    32    38    39    1
    33    38    40   ar
    34    40    41   ar
    35    32    33    1
    36     5     6    1
    37     6     7    1
    38     7     8    2
    39     7     2   am
    40    20    15   ar
    41    33    28    1
    42    25    21   ar
    43    41    35   ar
    44     9    13    1
    45    12    14    1
@<TRIPOS>MOLECULE
*****
 41 45 0 0 0
SMALL
GASTEIGER

@<TRIPOS>ATOM
      1 C           6.8302   -1.6615   30.8168 C.3     1  UNL1        0.1183
      2 N           5.8635   -1.0845   29.8255 N.am    1  UNL1       -0.2424
      3 C           5.5310   -1.8418   28.5742 C.3     1  UNL1        0.1200
      4 C           4.5643   -1.2649   27.5829 C.3     1  UNL1        0.1344
      5 C           3.9302    0.0693   27.8429 C.3     1  UNL1        0.2057
      6 O           4.2627    0.8266   29.0942 O.3     1  UNL1       -0.4351
      7 C           5.2294    0.2497   30.0855 C.2     1  UNL1        0.4049
      8 O           5.5619    1.0071   31.3369 O.2     1  UNL1       -0.2262
      9 N           4.2318   -2.0223   26.3315 N.am    1  UNL1       -0.2852
     10 C           5.2752   -2.2136   25.2710 C.2     1  UNL1        0.3046
     11 O           6.6512   -1.6476   25.4619 O.2     1  UNL1       -0.2525
     12 N           4.9427   -2.9709   24.0197 N.am    1  UNL1       -0.2683
     13 H           3.3287   -2.3938   26.2062 H       1  UNL1        0.1511
     14 H           4.0397   -3.3424   23.8944 H       1  UNL1        0.1564
     15 C           5.9862   -3.1623   22.9592 C.ar    1  UNL1        0.0517
     16 C           7.0227   -4.2356   23.1119 C.ar    1  UNL1        0.0147
     17 C           8.0662   -4.4270   22.0514 C.ar    1  UNL1        0.0014
     18 C           8.0731   -3.5449   20.8382 C.ar    1  UNL1        0.0032
     19 C           7.0365   -2.4715   20.6854 C.ar    1  UNL1        0.0386
     20 C           5.9930   -2.2801   21.7459 C.ar    1  UNL1        0.0178
     21 C           7.0433   -1.5894   19.4722 C.ar    1  UNL1        0.1839
     22 N           6.8945   -2.0443   18.0507 N.ar    1  UNL1       -0.1081
     23 N           6.9595   -0.8337   17.1674 N.ar    1  UNL1       -0.0227
     24 N           7.1484    0.3695   18.0431 N.ar    1  UNL1       -0.0429
     25 N           7.2002   -0.0977   19.4676 N.ar    1  UNL1       -0.2113
     26 C           7.3778    0.7740   20.6753 C.3     1  UNL1        0.1573
     27 C           2.9635    0.6463   26.8516 C.3     1  UNL1        0.1181
     28 N           3.3537    0.7707   25.4086 N.3     1  UNL1       -0.2696
     29 C           4.6737    1.3797   25.0384 C.3     1  UNL1        0.0722
     30 C           5.0639    1.5041   23.5954 C.3     1  UNL1        0.0174
     31 C           4.1342    1.0196   22.5226 C.3     1  UNL1        0.0031
     32 C           2.8143    0.4106   22.8927 C.3     1  UNL1        0.0204
     33 C           2.4241    0.2862   24.3358 C.3     1  UNL1        0.0725
     34 C           1.8847   -0.0739   21.8199 C.3     1  UNL1        0.0277
     35 C           2.3884   -0.2616   20.4196 C.ar    1  UNL1       -0.0220
     36 C           2.9728   -1.5789   20.0030 C.ar    1  UNL1       -0.0020
     37 C           3.4765   -1.7666   18.6027 C.ar    1  UNL1        0.0293
     38 C           3.3959   -0.6372   17.6189 C.ar    1  UNL1        0.1401
     39 F           3.8996   -0.8249   16.2185 F       1  UNL1       -0.2042
     40 C           2.8115    0.6800   18.0354 C.ar    1  UNL1        0.0293
     41 C           2.3078    0.8678   19.4358 C.ar    1  UNL1       -0.0020
@<TRIPOS>BOND
     1     1     2    1
     2     2     3    1
     3     3     4    1
     4     4     9    1
     5     9    10   am
     6    10    11    2
     7    10    12   am
     8    12    15    1
     9    15    16   ar
    10    16    17   ar
    11    17    18   ar
    12    18    19   ar
    13    19    21    1
    14    21    22   ar
    15    22    23   ar
    16    23    24   ar
    17    24    25   ar
    18    25    26    1
    19    19    20   ar
    20     4     5    1
    21     5    27    1
    22    27    28    1
    23    28    29    1
    24    29    30    1
    25    30    31    1
    26    31    32    1
    27    32    34    1
    28    34    35    1
    29    35    36   ar
    30    36    37   ar
    31    37    38   ar
    32    38    39    1
    33    38    40   ar
    34    40    41   ar
    35    32    33    1
    36     5     6    1
    37     6     7    1
    38     7     8    2
    39     7     2   am
    40    20    15   ar
    41    33    28    1
    42    25    21   ar
    43    41    35   ar
    44     9    13    1
    45    12    14    1
@<TRIPOS>MOLECULE
*****
 41 45 0 0 0
SMALL
GASTEIGER

@<TRIPOS>ATOM
      1 C           3.4266    2.2156   34.0220 C.3     1  UNL1        0.1183
      2 N           3.7495    1.3334   32.8526 N.am    1  UNL1       -0.2424
      3 C           2.6658    0.9248   31.8995 C.3     1  UNL1        0.1200
      4 C           2.9887    0.0426   30.7301 C.3     1  UNL1        0.1344
      5 C           4.3954   -0.4310   30.5139 C.3     1  UNL1        0.2057
      6 O           5.4791   -0.0225   31.4670 O.3     1  UNL1       -0.4351
      7 C           5.1562    0.8597   32.6364 C.2     1  UNL1        0.4049
      8 O           6.2401    1.2682   33.5895 O.2     1  UNL1       -0.2262
      9 N           1.9048   -0.3659   29.7770 N.am    1  UNL1       -0.2852
     10 C           1.3464    0.6305   28.8047 C.2     1  UNL1        0.3046
     11 O           1.8718    2.0354   28.7855 O.2     1  UNL1       -0.2525
     12 N           0.2625    0.2220   27.8516 N.am    1  UNL1       -0.2683
     13 H           1.5600   -1.2879   29.7896 H       1  UNL1        0.1511
     14 H          -0.0823   -0.7000   27.8642 H       1  UNL1        0.1564
     15 C          -0.2959    1.2184   26.8792 C.ar    1  UNL1        0.0517
     16 C           0.2170    1.2600   25.4703 C.ar    1  UNL1        0.0147
     17 C          -0.3415    2.2563   24.4980 C.ar    1  UNL1        0.0014
     18 C          -1.4128    3.2111   24.9346 C.ar    1  UNL1        0.0032
     19 C          -1.9257    3.1695   26.3436 C.ar    1  UNL1        0.0386
     20 C          -1.3673    2.1732   27.3159 C.ar    1  UNL1        0.0178
     21 C          -2.9970    4.1243   26.7802 C.ar    1  UNL1        0.1839
     22 N          -4.4756    3.9144   26.6402 N.ar    1  UNL1       -0.1081
     23 N          -5.1702    5.1169   27.2069 N.ar    1  UNL1       -0.0227
     24 N          -4.1209    6.0702   27.6973 N.ar    1  UNL1       -0.0429
     25 N          -2.7778    5.4566   27.4336 N.ar    1  UNL1       -0.2113
     26 C          -1.4488    6.0681   27.7650 C.3     1  UNL1        0.1573
     27 C           4.7183   -1.3132   29.3445 C.3     1  UNL1        0.1181
     28 N           4.9357   -0.7109   27.9881 N.3     1  UNL1       -0.2696
     29 C           6.1488    0.1320   27.7274 C.3     1  UNL1        0.0722
     30 C           6.3662    0.7343   26.3710 C.3     1  UNL1        0.0174
     31 C           5.3706    0.4938   25.2752 C.3     1  UNL1        0.0031
     32 C           4.1575   -0.3491   25.5358 C.3     1  UNL1        0.0204
     33 C           3.9400   -0.9515   26.8923 C.3     1  UNL1        0.0725
     34 C           3.1619   -0.5897   24.4400 C.3     1  UNL1        0.0277
     35 C           3.5553   -1.3849   23.2305 C.ar    1  UNL1       -0.0220
     36 C           4.4505   -2.5795   23.3770 C.ar    1  UNL1       -0.0020
     37 C           4.8439   -3.3747   22.1675 C.ar    1  UNL1        0.0293
     38 C           4.3421   -2.9754   20.8115 C.ar    1  UNL1        0.1401
     39 F           4.7354   -3.7705   19.6021 F       1  UNL1       -0.2042
     40 C           3.4468   -1.7808   20.6650 C.ar    1  UNL1        0.0293
     41 C           3.0534   -0.9855   21.8745 C.ar    1  UNL1       -0.0020
@<TRIPOS>BOND
     1     1     2    1
     2     2     3    1
     3     3     4    1
     4     4     9    1
     5     9    10   am
     6    10    11    2
     7    10    12   am
     8    12    15    1
     9    15    16   ar
    10    16    17   ar
    11    17    18   ar
    12    18    19   ar
    13    19    21    1
    14    21    22   ar
    15    22    23   ar
    16    23    24   ar
    17    24    25   ar
    18    25    26    1
    19    19    20   ar
    20     4     5    1
    21     5    27    1
    22    27    28    1
    23    28    29    1
    24    29    30    1
    25    30    31    1
    26    31    32    1
    27    32    34    1
    28    34    35    1
    29    35    36   ar
    30    36    37   ar
    31    37    38   ar
    32    38    39    1
    33    38    40   ar
    34    40    41   ar
    35    32    33    1
    36     5     6    1
    37     6     7    1
    38     7     8    2
    39     7     2   am
    40    20    15   ar
    41    33    28    1
    42    25    21   ar
    43    41    35   ar
    44     9    13    1
    45    12    14    1
