@<TRIPOS>MOLECULE
*****
 36 39 0 0 0
SMALL
GASTEIGER

@<TRIPOS>ATOM
      1 C          -2.4998    4.0785   21.6919 C.ar    1  UNL1        0.2204
      2 N          -2.3033    2.8359   20.8750 N.ar    1  UNL1       -0.2089
      3 C          -0.9636    2.5414   20.2681 C.ar    1  UNL1        0.1402
      4 C           0.1797    3.4894   20.4781 C.ar    1  UNL1        0.1773
      5 C          -0.0167    4.7320   21.2950 C.ar    1  UNL1        0.1402
      6 N          -1.3565    5.0266   21.9019 N.ar    1  UNL1       -0.2089
      7 C          -3.0108    3.4441   24.5792 C.3     1  UNL1        0.0233
      8 C          -4.0951    4.0559   23.7424 C.3     1  UNL1        0.0955
      9 C          -5.4348    4.3504   24.3492 C.3     1  UNL1        0.1149
     10 N          -6.5190    4.9622   23.5125 N.pl3   1  UNL1       -0.2586
     11 C          -6.2635    5.2794   22.0689 C.3     1  UNL1        0.1167
     12 C          -4.9238    4.9848   21.4620 C.3     1  UNL1        0.1151
     13 N          -3.8396    4.3731   22.2988 N.pl3   1  UNL1       -0.2764
     14 C          -7.8588    5.2567   24.1194 C.ar    1  UNL1        0.3185
     15 N          -9.0922    4.4137   23.9850 N.ar    1  UNL1       -0.1701
     16 C         -10.1961    5.0819   24.7498 C.ar    1  UNL1        0.2766
     17 N          -9.6449    6.3381   25.3568 N.ar    1  UNL1       -0.0499
     18 O          -8.2005    6.4461   24.9672 O.2     1  UNL1       -0.3164
     19 C         -11.6039    4.5819   24.8840 C.3     1  UNL1        0.4557
     20 F         -13.0117    4.0819   25.0182 F       1  UNL1       -0.1631
     21 F         -12.1133    5.9891   24.7828 F       1  UNL1       -0.1631
     22 F         -11.0945    3.1747   24.9851 F       1  UNL1       -0.1631
     23 O           1.5194    3.1949   19.8712 O.3     1  UNL1       -0.4674
     24 C           1.6215    2.2805   18.6865 C.3     1  UNL1        0.2344
     25 C           2.5409    1.0962   18.7301 C.ar    1  UNL1        0.0486
     26 C           3.9322    1.2062   18.1803 C.ar    1  UNL1        0.0013
     27 C           4.8517    0.0218   18.2239 C.ar    1  UNL1       -0.0026
     28 C           4.3799   -1.2725   18.8173 C.ar    1  UNL1        0.0035
     29 C           2.9887   -1.3825   19.3671 C.ar    1  UNL1        0.0269
     30 C           2.0692   -0.1982   19.3235 C.ar    1  UNL1        0.1393
     31 F           0.6779   -0.3082   19.8733 F       1  UNL1       -0.2044
     32 C           5.2994   -2.4568   18.8609 C.3     1  UNL1        0.1773
     33 S           6.7815   -2.2521   18.9680 S.O2    1  UNL1       -0.0040
     34 C           8.2636   -2.0473   19.0750 C.3     1  UNL1        0.1764
     35 O           6.9111   -2.4135   17.4823 O.2     1  UNL1       -0.1726
     36 O           6.6519   -2.0906   20.4536 O.2     1  UNL1       -0.1726
@<TRIPOS>BOND
     1     8     7    1
     2     8     9    1
     3     9    10    1
     4    10    14    1
     5    14    15   ar
     6    15    16   ar
     7    16    19    1
     8    19    20    1
     9    19    21    1
    10    19    22    1
    11    16    17   ar
    12    17    18   ar
    13    10    11    1
    14    11    12    1
    15    12    13    1
    16    13     1    1
    17     1     2   ar
    18     2     3   ar
    19     3     4   ar
    20     4    23    1
    21    23    24    1
    22    24    25    1
    23    25    26   ar
    24    26    27   ar
    25    27    28   ar
    26    28    32    1
    27    32    33    1
    28    33    34    1
    29    33    35    2
    30    33    36    2
    31    28    29   ar
    32    29    30   ar
    33    30    31    1
    34     4     5   ar
    35     5     6   ar
    36    13     8    1
    37     6     1   ar
    38    18    14   ar
    39    30    25   ar
@<TRIPOS>MOLECULE
*****
 36 39 0 0 0
SMALL
GASTEIGER

@<TRIPOS>ATOM
      1 C           3.3151    0.1460   27.5712 C.ar    1  UNL1        0.2204
      2 N           4.1344    1.3146   28.0331 N.ar    1  UNL1       -0.2089
      3 C           4.0531    1.7704   29.4598 C.ar    1  UNL1        0.1402
      4 C           3.1525    1.0577   30.4247 C.ar    1  UNL1        0.1773
      5 C           2.3332   -0.1109   29.9629 C.ar    1  UNL1        0.1402
      6 N           2.4146   -0.5667   28.5361 N.ar    1  UNL1       -0.2089
      7 C           5.2800   -1.9805   26.7855 C.3     1  UNL1        0.0233
      8 C           4.3789   -1.3730   25.7516 C.3     1  UNL1        0.0955
      9 C           4.4602   -1.8288   24.3249 C.3     1  UNL1        0.1149
     10 N           3.5590   -1.2213   23.2910 N.pl3   1  UNL1       -0.2586
     11 C           2.5766   -0.1581   23.6838 C.3     1  UNL1        0.1167
     12 C           2.4953    0.2976   25.1105 C.3     1  UNL1        0.1151
     13 N           3.3964   -0.3098   26.1444 N.pl3   1  UNL1       -0.2764
     14 C           3.6404   -1.6772   21.8641 C.ar    1  UNL1        0.3185
     15 N           4.0981   -3.0261   21.3942 N.ar    1  UNL1       -0.1701
     16 C           4.0189   -3.0467   19.8965 C.ar    1  UNL1        0.2766
     17 N           3.5122   -1.7104   19.4407 N.ar    1  UNL1       -0.0499
     18 O           3.2783   -0.8640   20.6568 O.2     1  UNL1       -0.3164
     19 C           4.3825   -4.2008   19.0101 C.3     1  UNL1        0.4557
     20 F           4.7461   -5.3550   18.1237 F       1  UNL1       -0.1631
     21 F           2.9363   -4.5892   18.9226 F       1  UNL1       -0.1631
     22 F           5.8287   -3.8124   19.0976 F       1  UNL1       -0.1631
     23 O           3.0712    1.5135   31.8515 O.3     1  UNL1       -0.4674
     24 C           4.1920    1.2097   32.8009 C.3     1  UNL1        0.2344
     25 C           3.9438    1.2143   34.2802 C.ar    1  UNL1        0.0486
     26 C           3.0846    2.2801   34.8933 C.ar    1  UNL1        0.0013
     27 C           2.8365    2.2846   36.3726 C.ar    1  UNL1       -0.0026
     28 C           3.4475    1.2234   37.2389 C.ar    1  UNL1        0.0035
     29 C           4.3067    0.1577   36.6258 C.ar    1  UNL1        0.0269
     30 C           4.5549    0.1530   35.1465 C.ar    1  UNL1        0.1393
     31 F           5.4141   -0.9127   34.5335 F       1  UNL1       -0.2044
     32 C           3.1994    1.2281   38.7182 C.3     1  UNL1        0.1773
     33 S           1.8809    1.6995   39.2560 S.O2    1  UNL1       -0.0040
     34 C           0.5624    2.1709   39.7939 C.3     1  UNL1        0.1764
     35 O           1.2179    0.4708   38.7076 O.2     1  UNL1       -0.1726
     36 O           2.5439    2.9282   39.8044 O.2     1  UNL1       -0.1726
@<TRIPOS>BOND
     1     8     7    1
     2     8     9    1
     3     9    10    1
     4    10    14    1
     5    14    15   ar
     6    15    16   ar
     7    16    19    1
     8    19    20    1
     9    19    21    1
    10    19    22    1
    11    16    17   ar
    12    17    18   ar
    13    10    11    1
    14    11    12    1
    15    12    13    1
    16    13     1    1
    17     1     2   ar
    18     2     3   ar
    19     3     4   ar
    20     4    23    1
    21    23    24    1
    22    24    25    1
    23    25    26   ar
    24    26    27   ar
    25    27    28   ar
    26    28    32    1
    27    32    33    1
    28    33    34    1
    29    33    35    2
    30    33    36    2
    31    28    29   ar
    32    29    30   ar
    33    30    31    1
    34     4     5   ar
    35     5     6   ar
    36    13     8    1
    37     6     1   ar
    38    18    14   ar
    39    30    25   ar
@<TRIPOS>MOLECULE
*****
 36 39 0 0 0
SMALL
GASTEIGER

@<TRIPOS>ATOM
      1 C           3.2160   -0.0607   27.6803 C.ar    1  UNL1        0.2204
      2 N           2.3194   -0.8780   28.5624 N.ar    1  UNL1       -0.2089
      3 C           2.0897   -0.4658   29.9862 C.ar    1  UNL1        0.1402
      4 C           2.7567    0.7638   30.5280 C.ar    1  UNL1        0.1773
      5 C           3.6533    1.5811   29.6459 C.ar    1  UNL1        0.1402
      6 N           3.8830    1.1688   28.2220 N.ar    1  UNL1       -0.2089
      7 C           1.5746    1.1553   25.4832 C.3     1  UNL1        0.0233
      8 C           2.6250    0.1350   25.1579 C.3     1  UNL1        0.0955
      9 C           2.8546   -0.2773   23.7341 C.3     1  UNL1        0.1149
     10 N           3.9050   -1.2975   23.4088 N.pl3   1  UNL1       -0.2586
     11 C           4.7257   -1.9055   24.5074 C.3     1  UNL1        0.1167
     12 C           4.4960   -1.4932   25.9311 C.3     1  UNL1        0.1151
     13 N           3.4457   -0.4730   26.2564 N.pl3   1  UNL1       -0.2764
     14 C           4.1347   -1.7098   21.9850 C.ar    1  UNL1        0.3185
     15 N           4.1877   -3.1185   21.4725 N.ar    1  UNL1       -0.1701
     16 C           4.4374   -3.0650   19.9944 C.ar    1  UNL1        0.2766
     17 N           4.5388   -1.6232   19.5933 N.ar    1  UNL1       -0.0499
     18 O           4.3517   -0.7856   20.8235 O.2     1  UNL1       -0.3164
     19 C           4.5636   -4.2460   19.0783 C.3     1  UNL1        0.4557
     20 F           4.6898   -5.4270   18.1621 F       1  UNL1       -0.1631
     21 F           5.5429   -3.4861   18.2336 F       1  UNL1       -0.1631
     22 F           3.5843   -5.0060   19.9230 F       1  UNL1       -0.1631
     23 O           2.5270    1.1760   31.9518 O.3     1  UNL1       -0.4674
     24 C           3.5375    0.8303   33.0050 C.3     1  UNL1        0.2344
     25 C           4.5166   -0.2813   32.7689 C.ar    1  UNL1        0.0486
     26 C           4.1263   -1.6995   33.0623 C.ar    1  UNL1        0.0013
     27 C           5.1055   -2.8111   32.8262 C.ar    1  UNL1       -0.0026
     28 C           6.4749   -2.5044   32.2966 C.ar    1  UNL1        0.0035
     29 C           6.8653   -1.0861   32.0032 C.ar    1  UNL1        0.0269
     30 C           5.8862    0.0255   32.2393 C.ar    1  UNL1        0.1393
     31 F           6.2765    1.4438   31.9459 F       1  UNL1       -0.2044
     32 C           7.4540   -3.6159   32.0605 C.3     1  UNL1        0.1773
     33 S           7.1669   -4.6605   31.0230 S.O2    1  UNL1       -0.0040
     34 C           6.8798   -5.7051   29.9855 C.3     1  UNL1        0.1764
     35 O           7.5436   -3.6908   29.9424 O.2     1  UNL1       -0.1726
     36 O           6.7903   -5.6302   32.1037 O.2     1  UNL1       -0.1726
@<TRIPOS>BOND
     1     8     7    1
     2     8     9    1
     3     9    10    1
     4    10    14    1
     5    14    15   ar
     6    15    16   ar
     7    16    19    1
     8    19    20    1
     9    19    21    1
    10    19    22    1
    11    16    17   ar
    12    17    18   ar
    13    10    11    1
    14    11    12    1
    15    12    13    1
    16    13     1    1
    17     1     2   ar
    18     2     3   ar
    19     3     4   ar
    20     4    23    1
    21    23    24    1
    22    24    25    1
    23    25    26   ar
    24    26    27   ar
    25    27    28   ar
    26    28    32    1
    27    32    33    1
    28    33    34    1
    29    33    35    2
    30    33    36    2
    31    28    29   ar
    32    29    30   ar
    33    30    31    1
    34     4     5   ar
    35     5     6   ar
    36    13     8    1
    37     6     1   ar
    38    18    14   ar
    39    30    25   ar
@<TRIPOS>MOLECULE
*****
 36 39 0 0 0
SMALL
GASTEIGER

@<TRIPOS>ATOM
      1 C           6.8710   -3.3909   27.0154 C.ar    1  UNL1        0.2204
      2 N           6.3255   -4.4153   27.9657 N.ar    1  UNL1       -0.2089
      3 C           7.0344   -4.6919   29.2583 C.ar    1  UNL1        0.1402
      4 C           8.2888   -3.9441   29.6007 C.ar    1  UNL1        0.1773
      5 C           8.8343   -2.9196   28.6505 C.ar    1  UNL1        0.1402
      6 N           8.1253   -2.6430   27.3578 N.ar    1  UNL1       -0.2089
      7 C           7.4529   -5.0676   24.5968 C.3     1  UNL1        0.0233
      8 C           6.4530   -3.9526   24.5135 C.3     1  UNL1        0.0955
      9 C           5.7440   -3.6760   23.2209 C.3     1  UNL1        0.1149
     10 N           4.7441   -2.5610   23.1376 N.pl3   1  UNL1       -0.2586
     11 C           4.4531   -1.7226   24.3469 C.3     1  UNL1        0.1167
     12 C           5.1621   -1.9993   25.6394 C.3     1  UNL1        0.1151
     13 N           6.1620   -3.1143   25.7228 N.pl3   1  UNL1       -0.2764
     14 C           4.0351   -2.2844   21.8449 C.ar    1  UNL1        0.3185
     15 N           3.0550   -1.1765   21.5964 N.ar    1  UNL1       -0.1701
     16 C           2.5960   -1.2746   20.1717 C.ar    1  UNL1        0.2766
     17 N           3.2925   -2.4431   19.5397 N.ar    1  UNL1       -0.0499
     18 O           4.1820   -3.0672   20.5738 O.2     1  UNL1       -0.3164
     19 C           1.6130   -0.3640   19.4974 C.3     1  UNL1        0.4557
     20 F           0.6301    0.5466   18.8231 F       1  UNL1       -0.1631
     21 F           0.5742   -0.7318   20.5150 F       1  UNL1       -0.1631
     22 F           2.6519    0.0039   18.4798 F       1  UNL1       -0.1631
     23 O           8.9977   -4.2207   30.8934 O.3     1  UNL1       -0.4674
     24 C           8.8378   -3.2819   32.0523 C.3     1  UNL1        0.2344
     25 C           7.5488   -2.5389   32.2433 C.ar    1  UNL1        0.0486
     26 C           7.5205   -1.0437   32.1260 C.ar    1  UNL1        0.0013
     27 C           6.2315   -0.3007   32.3170 C.ar    1  UNL1       -0.0026
     28 C           4.9709   -1.0529   32.6253 C.ar    1  UNL1        0.0035
     29 C           4.9992   -2.5480   32.7425 C.ar    1  UNL1        0.0269
     30 C           6.2881   -3.2910   32.5515 C.ar    1  UNL1        0.1393
     31 F           6.3164   -4.7862   32.6688 F       1  UNL1       -0.2044
     32 C           3.6819   -0.3099   32.8163 C.3     1  UNL1        0.1773
     33 S           3.0101    0.3404   31.6433 S.O2    1  UNL1       -0.0040
     34 C           2.3383    0.9906   30.4703 C.3     1  UNL1        0.1764
     35 O           3.4940    1.6814   32.1096 O.2     1  UNL1       -0.1726
     36 O           2.5262   -1.0007   31.1770 O.2     1  UNL1       -0.1726
@<TRIPOS>BOND
     1     8     7    1
     2     8     9    1
     3     9    10    1
     4    10    14    1
     5    14    15   ar
     6    15    16   ar
     7    16    19    1
     8    19    20    1
     9    19    21    1
    10    19    22    1
    11    16    17   ar
    12    17    18   ar
    13    10    11    1
    14    11    12    1
    15    12    13    1
    16    13     1    1
    17     1     2   ar
    18     2     3   ar
    19     3     4   ar
    20     4    23    1
    21    23    24    1
    22    24    25    1
    23    25    26   ar
    24    26    27   ar
    25    27    28   ar
    26    28    32    1
    27    32    33    1
    28    33    34    1
    29    33    35    2
    30    33    36    2
    31    28    29   ar
    32    29    30   ar
    33    30    31    1
    34     4     5   ar
    35     5     6   ar
    36    13     8    1
    37     6     1   ar
    38    18    14   ar
    39    30    25   ar
@<TRIPOS>MOLECULE
*****
 36 39 0 0 0
SMALL
GASTEIGER

@<TRIPOS>ATOM
      1 C           2.0001    1.2872   28.0241 C.ar    1  UNL1        0.2204
      2 N           2.8317    2.4171   28.5549 N.ar    1  UNL1       -0.2089
      3 C           2.4424    3.0990   29.8329 C.ar    1  UNL1        0.1402
      4 C           1.2213    2.6511   30.5802 C.ar    1  UNL1        0.1773
      5 C           0.3896    1.5212   30.0494 C.ar    1  UNL1        0.1402
      6 N           0.7790    0.8393   28.7713 N.ar    1  UNL1       -0.2089
      7 C           3.9755   -0.9701   28.0699 C.3     1  UNL1        0.0233
      8 C           3.3772   -0.5234   26.7690 C.3     1  UNL1        0.0955
      9 C           3.7666   -1.2053   25.4910 C.3     1  UNL1        0.1149
     10 N           3.1682   -0.7585   24.1900 N.pl3   1  UNL1       -0.2586
     11 C           2.1805    0.3701   24.1671 C.3     1  UNL1        0.1167
     12 C           1.7911    1.0520   25.4451 C.3     1  UNL1        0.1151
     13 N           2.3895    0.6052   26.7461 N.pl3   1  UNL1       -0.2764
     14 C           3.5577   -1.4405   22.9120 C.ar    1  UNL1        0.3185
     15 N           3.2762   -0.9421   21.5255 N.ar    1  UNL1       -0.1701
     16 C           3.8415   -1.9342   20.5527 C.ar    1  UNL1        0.2766
     17 N           4.4724   -3.0457   21.3380 N.ar    1  UNL1       -0.0499
     18 O           4.2969   -2.7405   22.7961 O.2     1  UNL1       -0.3164
     19 C           3.7858   -1.8326   19.0572 C.3     1  UNL1        0.4557
     20 F           3.7300   -1.7310   17.5616 F       1  UNL1       -0.1631
     21 F           4.0601   -0.3606   19.1469 F       1  UNL1       -0.1631
     22 F           3.5114   -3.3045   18.9674 F       1  UNL1       -0.1631
     23 O           0.8319    3.3330   31.8582 O.3     1  UNL1       -0.4674
     24 C           1.8758    4.0129   32.6937 C.3     1  UNL1        0.2344
     25 C           1.9820    3.7050   34.1579 C.ar    1  UNL1        0.0486
     26 C           1.4729    4.6882   35.1699 C.ar    1  UNL1        0.0013
     27 C           1.5793    4.3803   36.6342 C.ar    1  UNL1       -0.0026
     28 C           2.1947    3.0893   37.0863 C.ar    1  UNL1        0.0035
     29 C           2.7037    2.1061   36.0743 C.ar    1  UNL1        0.0269
     30 C           2.5975    2.4140   34.6101 C.ar    1  UNL1        0.1393
     31 F           3.1065    1.4308   33.5981 F       1  UNL1       -0.2044
     32 C           2.3009    2.7814   38.5505 C.3     1  UNL1        0.1773
     33 S           1.7699    1.4842   39.0846 S.O2    1  UNL1       -0.0040
     34 C           1.2388    0.1870   39.6188 C.3     1  UNL1        0.1764
     35 O           0.3705    1.9341   38.7858 O.2     1  UNL1       -0.1726
     36 O           3.1693    1.0344   39.3835 O.2     1  UNL1       -0.1726
@<TRIPOS>BOND
     1     8     7    1
     2     8     9    1
     3     9    10    1
     4    10    14    1
     5    14    15   ar
     6    15    16   ar
     7    16    19    1
     8    19    20    1
     9    19    21    1
    10    19    22    1
    11    16    17   ar
    12    17    18   ar
    13    10    11    1
    14    11    12    1
    15    12    13    1
    16    13     1    1
    17     1     2   ar
    18     2     3   ar
    19     3     4   ar
    20     4    23    1
    21    23    24    1
    22    24    25    1
    23    25    26   ar
    24    26    27   ar
    25    27    28   ar
    26    28    32    1
    27    32    33    1
    28    33    34    1
    29    33    35    2
    30    33    36    2
    31    28    29   ar
    32    29    30   ar
    33    30    31    1
    34     4     5   ar
    35     5     6   ar
    36    13     8    1
    37     6     1   ar
    38    18    14   ar
    39    30    25   ar
@<TRIPOS>MOLECULE
*****
 36 39 0 0 0
SMALL
GASTEIGER

@<TRIPOS>ATOM
      1 C           2.7246    0.9864   18.4898 C.ar    1  UNL1        0.2204
      2 N           4.0471    1.4902   18.9871 N.ar    1  UNL1       -0.2089
      3 C           5.3175    0.8307   18.5389 C.ar    1  UNL1        0.1402
      4 C           5.2656   -0.3327   17.5935 C.ar    1  UNL1        0.1773
      5 C           3.9431   -0.8366   17.0962 C.ar    1  UNL1        0.1402
      6 N           2.6726   -0.1770   17.5444 N.ar    1  UNL1       -0.2089
      7 C           1.1796   -0.1467   20.7983 C.3     1  UNL1        0.0233
      8 C           0.6816    1.0794   20.0922 C.3     1  UNL1        0.0955
      9 C          -0.5888    1.7390   20.5403 C.3     1  UNL1        0.1149
     10 N          -1.0868    2.9652   19.8343 N.pl3   1  UNL1       -0.2586
     11 C          -0.3143    3.5317   18.6801 C.3     1  UNL1        0.1167
     12 C           0.9561    2.8721   18.2319 C.3     1  UNL1        0.1151
     13 N           1.4541    1.6460   18.9380 N.pl3   1  UNL1       -0.2764
     14 C          -2.3573    3.6248   20.2825 C.ar    1  UNL1        0.3185
     15 N          -3.4345    2.9913   21.1121 N.ar    1  UNL1       -0.1701
     16 C          -4.5166    4.0086   21.3220 C.ar    1  UNL1        0.2766
     17 N          -4.1081    5.2710   20.6222 N.ar    1  UNL1       -0.0499
     18 O          -2.7736    5.0337   19.9797 O.2     1  UNL1       -0.3164
     19 C          -5.7845    3.8003   22.0960 C.3     1  UNL1        0.4557
     20 F          -7.0524    3.5920   22.8699 F       1  UNL1       -0.1631
     21 F          -6.4795    4.8075   21.2285 F       1  UNL1       -0.1631
     22 F          -5.0895    2.7931   22.9635 F       1  UNL1       -0.1631
     23 O           6.5361   -0.9923   17.1453 O.3     1  UNL1       -0.4674
     24 C           6.9999   -2.2552   17.8085 C.3     1  UNL1        0.2344
     25 C           6.5629   -2.5715   19.2082 C.ar    1  UNL1        0.0486
     26 C           7.2560   -1.9295   20.3734 C.ar    1  UNL1        0.0013
     27 C           6.8189   -2.2458   21.7730 C.ar    1  UNL1       -0.0026
     28 C           5.6890   -3.2040   22.0075 C.ar    1  UNL1        0.0035
     29 C           4.9960   -3.8459   20.8423 C.ar    1  UNL1        0.0269
     30 C           5.4329   -3.5297   19.4427 C.ar    1  UNL1        0.1393
     31 F           4.7399   -4.1716   18.2775 F       1  UNL1       -0.2044
     32 C           5.2520   -3.5203   23.4071 C.3     1  UNL1        0.1773
     33 S           5.0663   -2.4140   24.4029 S.O2    1  UNL1       -0.0040
     34 C           4.8806   -1.3077   25.3987 C.3     1  UNL1        0.1764
     35 O           6.2215   -2.9397   25.2024 O.2     1  UNL1       -0.1726
     36 O           3.9111   -1.8883   23.6034 O.2     1  UNL1       -0.1726
@<TRIPOS>BOND
     1     8     7    1
     2     8     9    1
     3     9    10    1
     4    10    14    1
     5    14    15   ar
     6    15    16   ar
     7    16    19    1
     8    19    20    1
     9    19    21    1
    10    19    22    1
    11    16    17   ar
    12    17    18   ar
    13    10    11    1
    14    11    12    1
    15    12    13    1
    16    13     1    1
    17     1     2   ar
    18     2     3   ar
    19     3     4   ar
    20     4    23    1
    21    23    24    1
    22    24    25    1
    23    25    26   ar
    24    26    27   ar
    25    27    28   ar
    26    28    32    1
    27    32    33    1
    28    33    34    1
    29    33    35    2
    30    33    36    2
    31    28    29   ar
    32    29    30   ar
    33    30    31    1
    34     4     5   ar
    35     5     6   ar
    36    13     8    1
    37     6     1   ar
    38    18    14   ar
    39    30    25   ar
@<TRIPOS>MOLECULE
*****
 36 39 0 0 0
SMALL
GASTEIGER

@<TRIPOS>ATOM
      1 C           1.8497    1.1227   27.3169 C.ar    1  UNL1        0.2204
      2 N           0.6344    0.5835   28.0113 N.ar    1  UNL1       -0.2089
      3 C           0.2817    1.0646   29.3876 C.ar    1  UNL1        0.1402
      4 C           1.1443    2.0850   30.0694 C.ar    1  UNL1        0.1773
      5 C           2.3596    2.6242   29.3750 C.ar    1  UNL1        0.1402
      6 N           2.7123    2.1430   27.9987 N.ar    1  UNL1       -0.2089
      7 C           3.8717   -1.0654   26.9651 C.3     1  UNL1        0.0233
      8 C           3.2134   -0.4525   25.7647 C.3     1  UNL1        0.0955
      9 C           3.5660   -0.9336   24.3885 C.3     1  UNL1        0.1149
     10 N           2.9077   -0.3207   23.1881 N.pl3   1  UNL1       -0.2586
     11 C           1.8968    0.7734   23.3639 C.3     1  UNL1        0.1167
     12 C           1.5441    1.2545   24.7402 C.3     1  UNL1        0.1151
     13 N           2.2024    0.6415   25.9406 N.pl3   1  UNL1       -0.2764
     14 C           3.2604   -0.8019   21.8118 C.ar    1  UNL1        0.3185
     15 N           3.6383   -2.2045   21.4380 N.ar    1  UNL1       -0.1701
     16 C           3.9086   -2.2344   19.9629 C.ar    1  UNL1        0.2766
     17 N           3.6978   -0.8501   19.4249 N.ar    1  UNL1       -0.0499
     18 O           3.2972    0.0352   20.5676 O.2     1  UNL1       -0.3164
     19 C           4.3178   -3.4373   19.1656 C.3     1  UNL1        0.4557
     20 F           4.7270   -4.6402   18.3684 F       1  UNL1       -0.1631
     21 F           5.6762   -2.8364   18.9563 F       1  UNL1       -0.1631
     22 F           2.9594   -4.0381   19.3750 F       1  UNL1       -0.1631
     23 O           0.7916    2.5661   31.4457 O.3     1  UNL1       -0.4674
     24 C           1.6871    3.5403   32.1521 C.3     1  UNL1        0.2344
     25 C           1.8774    3.4435   33.6368 C.ar    1  UNL1        0.0486
     26 C           1.4071    4.5552   34.5272 C.ar    1  UNL1        0.0013
     27 C           1.5975    4.4584   36.0120 C.ar    1  UNL1       -0.0026
     28 C           2.2581    3.2500   36.6062 C.ar    1  UNL1        0.0035
     29 C           2.7285    2.1383   35.7158 C.ar    1  UNL1        0.0269
     30 C           2.5382    2.2351   34.2311 C.ar    1  UNL1        0.1393
     31 F           3.0085    1.1234   33.3406 F       1  UNL1       -0.2044
     32 C           2.4485    3.1533   38.0909 C.3     1  UNL1        0.1773
     33 S           1.8270    2.0216   38.8546 S.O2    1  UNL1       -0.0040
     34 C           1.2055    0.8900   39.6183 C.3     1  UNL1        0.1764
     35 O           0.4622    2.5169   38.4778 O.2     1  UNL1       -0.1726
     36 O           3.1918    1.5264   39.2314 O.2     1  UNL1       -0.1726
@<TRIPOS>BOND
     1     8     7    1
     2     8     9    1
     3     9    10    1
     4    10    14    1
     5    14    15   ar
     6    15    16   ar
     7    16    19    1
     8    19    20    1
     9    19    21    1
    10    19    22    1
    11    16    17   ar
    12    17    18   ar
    13    10    11    1
    14    11    12    1
    15    12    13    1
    16    13     1    1
    17     1     2   ar
    18     2     3   ar
    19     3     4   ar
    20     4    23    1
    21    23    24    1
    22    24    25    1
    23    25    26   ar
    24    26    27   ar
    25    27    28   ar
    26    28    32    1
    27    32    33    1
    28    33    34    1
    29    33    35    2
    30    33    36    2
    31    28    29   ar
    32    29    30   ar
    33    30    31    1
    34     4     5   ar
    35     5     6   ar
    36    13     8    1
    37     6     1   ar
    38    18    14   ar
    39    30    25   ar
@<TRIPOS>MOLECULE
*****
 36 39 0 0 0
SMALL
GASTEIGER

@<TRIPOS>ATOM
      1 C           6.2425   -2.9609   23.8666 C.ar    1  UNL1        0.2204
      2 N           7.1529   -1.9995   23.1616 N.ar    1  UNL1       -0.2089
      3 C           7.1640   -1.9388   21.6629 C.ar    1  UNL1        0.1402
      4 C           6.2646   -2.8395   20.8691 C.ar    1  UNL1        0.1773
      5 C           5.3542   -3.8008   21.5741 C.ar    1  UNL1        0.1402
      6 N           5.3431   -3.8615   23.0729 N.ar    1  UNL1       -0.2089
      7 C           7.6133   -5.2202   25.2866 C.3     1  UNL1        0.0233
      8 C           6.9168   -4.1512   26.0753 C.3     1  UNL1        0.0955
      9 C           6.9058   -4.2118   27.5740 C.3     1  UNL1        0.1149
     10 N           6.2093   -3.1428   28.3628 N.pl3   1  UNL1       -0.2586
     11 C           5.5240   -2.0131   27.6529 C.3     1  UNL1        0.1167
     12 C           5.5350   -1.9525   26.1542 C.3     1  UNL1        0.1151
     13 N           6.2315   -3.0215   25.3654 N.pl3   1  UNL1       -0.2764
     14 C           6.1983   -3.2035   29.8616 C.ar    1  UNL1        0.3185
     15 N           5.5310   -2.2220   30.7788 N.ar    1  UNL1       -0.1701
     16 C           5.7730   -2.6682   32.1903 C.ar    1  UNL1        0.2766
     17 N           6.5898   -3.9256   32.1454 N.ar    1  UNL1       -0.0499
     18 O           6.8526   -4.2564   30.7062 O.2     1  UNL1       -0.3164
     19 C           5.2839   -1.9783   33.4293 C.3     1  UNL1        0.4557
     20 F           4.7949   -1.2884   34.6682 F       1  UNL1       -0.1631
     21 F           4.2295   -3.0315   33.5995 F       1  UNL1       -0.1631
     22 F           6.3384   -0.9252   33.2590 F       1  UNL1       -0.1631
     23 O           6.2756   -2.7787   19.3704 O.3     1  UNL1       -0.4674
     24 C           4.9914   -2.9022   18.6053 C.3     1  UNL1        0.2344
     25 C           3.9327   -1.8484   18.7418 C.ar    1  UNL1        0.0486
     26 C           2.8896   -1.9676   19.8131 C.ar    1  UNL1        0.0013
     27 C           1.8309   -0.9137   19.9496 C.ar    1  UNL1       -0.0026
     28 C           1.8154    0.2593   19.0148 C.ar    1  UNL1        0.0035
     29 C           2.8585    0.3785   17.9435 C.ar    1  UNL1        0.0269
     30 C           3.9172   -0.6753   17.8070 C.ar    1  UNL1        0.1393
     31 F           4.9604   -0.5562   16.7358 F       1  UNL1       -0.2044
     32 C           0.7567    1.3131   19.1513 C.3     1  UNL1        0.1773
     33 S           0.6547    2.1144   20.4152 S.O2    1  UNL1       -0.0040
     34 C           0.5526    2.9157   21.6792 C.3     1  UNL1        0.1764
     35 O           1.8982    2.8646   20.0401 O.2     1  UNL1       -0.1726
     36 O          -0.5889    1.3642   20.7904 O.2     1  UNL1       -0.1726
@<TRIPOS>BOND
     1     8     7    1
     2     8     9    1
     3     9    10    1
     4    10    14    1
     5    14    15   ar
     6    15    16   ar
     7    16    19    1
     8    19    20    1
     9    19    21    1
    10    19    22    1
    11    16    17   ar
    12    17    18   ar
    13    10    11    1
    14    11    12    1
    15    12    13    1
    16    13     1    1
    17     1     2   ar
    18     2     3   ar
    19     3     4   ar
    20     4    23    1
    21    23    24    1
    22    24    25    1
    23    25    26   ar
    24    26    27   ar
    25    27    28   ar
    26    28    32    1
    27    32    33    1
    28    33    34    1
    29    33    35    2
    30    33    36    2
    31    28    29   ar
    32    29    30   ar
    33    30    31    1
    34     4     5   ar
    35     5     6   ar
    36    13     8    1
    37     6     1   ar
    38    18    14   ar
    39    30    25   ar
@<TRIPOS>MOLECULE
*****
 36 39 0 0 0
SMALL
GASTEIGER

@<TRIPOS>ATOM
      1 C           7.0294   -3.1974   21.2637 C.ar    1  UNL1        0.2204
      2 N           6.0173   -3.7666   20.3141 N.ar    1  UNL1       -0.2089
      3 C           5.8369   -3.1562   18.9558 C.ar    1  UNL1        0.1402
      4 C           6.6686   -1.9766   18.5471 C.ar    1  UNL1        0.1773
      5 C           7.6807   -1.4075   19.4968 C.ar    1  UNL1        0.1402
      6 N           7.8610   -2.0179   20.8551 N.ar    1  UNL1       -0.2089
      7 C           5.1036   -2.5446   23.4694 C.3     1  UNL1        0.0233
      8 C           6.2468   -3.4814   23.7248 C.3     1  UNL1        0.0955
      9 C           6.4272   -4.0918   25.0830 C.3     1  UNL1        0.1149
     10 N           7.5705   -5.0286   25.3385 N.pl3   1  UNL1       -0.2586
     11 C           8.5334   -5.3550   24.2357 C.3     1  UNL1        0.1167
     12 C           8.3530   -4.7446   22.8774 C.3     1  UNL1        0.1151
     13 N           7.2097   -3.8078   22.6220 N.pl3   1  UNL1       -0.2764
     14 C           7.7509   -5.6390   26.6968 C.ar    1  UNL1        0.3185
     15 N           7.2525   -5.0704   27.9922 N.ar    1  UNL1       -0.1701
     16 C           7.6549   -6.0051   29.0941 C.ar    1  UNL1        0.2766
     17 N           8.4021   -7.1516   28.4797 N.ar    1  UNL1       -0.0499
     18 O           8.4614   -6.9253   26.9981 O.2     1  UNL1       -0.3164
     19 C           7.3617   -5.8251   30.5541 C.3     1  UNL1        0.4557
     20 F           7.0684   -5.6451   32.0142 F       1  UNL1       -0.1631
     21 F           8.4210   -6.8322   30.8911 F       1  UNL1       -0.1631
     22 F           6.3023   -4.8180   30.2172 F       1  UNL1       -0.1631
     23 O           6.4882   -1.3663   17.1889 O.3     1  UNL1       -0.4674
     24 C           6.0596    0.0654   17.0609 C.3     1  UNL1        0.2344
     25 C           4.8057    0.5361   17.7362 C.ar    1  UNL1        0.0486
     26 C           4.8699    1.6343   18.7560 C.ar    1  UNL1        0.0013
     27 C           3.6159    2.1050   19.4313 C.ar    1  UNL1       -0.0026
     28 C           2.2977    1.4776   19.0868 C.ar    1  UNL1        0.0035
     29 C           2.2335    0.3794   18.0670 C.ar    1  UNL1        0.0269
     30 C           3.4874   -0.0913   17.3917 C.ar    1  UNL1        0.1393
     31 F           3.4232   -1.1895   16.3720 F       1  UNL1       -0.2044
     32 C           1.0438    1.9483   19.7621 C.3     1  UNL1        0.1773
     33 S           0.8041    1.6262   21.2073 S.O2    1  UNL1       -0.0040
     34 C           0.5643    1.3041   22.6526 C.3     1  UNL1        0.1764
     35 O           0.1530    0.3342   20.8114 O.2     1  UNL1       -0.1726
     36 O           1.4551    2.9182   21.6033 O.2     1  UNL1       -0.1726
@<TRIPOS>BOND
     1     8     7    1
     2     8     9    1
     3     9    10    1
     4    10    14    1
     5    14    15   ar
     6    15    16   ar
     7    16    19    1
     8    19    20    1
     9    19    21    1
    10    19    22    1
    11    16    17   ar
    12    17    18   ar
    13    10    11    1
    14    11    12    1
    15    12    13    1
    16    13     1    1
    17     1     2   ar
    18     2     3   ar
    19     3     4   ar
    20     4    23    1
    21    23    24    1
    22    24    25    1
    23    25    26   ar
    24    26    27   ar
    25    27    28   ar
    26    28    32    1
    27    32    33    1
    28    33    34    1
    29    33    35    2
    30    33    36    2
    31    28    29   ar
    32    29    30   ar
    33    30    31    1
    34     4     5   ar
    35     5     6   ar
    36    13     8    1
    37     6     1   ar
    38    18    14   ar
    39    30    25   ar
