@<TRIPOS>MOLECULE
*****
 24 26 0 0 0
SMALL
GASTEIGER

@<TRIPOS>ATOM
      1 C           5.3649   -2.3416   22.4606 C.2     1  UNL1        0.0428
      2 C           5.1534   -2.2405   20.9790 C.2     1  UNL1       -0.0145
      3 C           5.6831   -3.1904   19.9459 C.3     1  UNL1        0.0458
      4 C           5.2321   -2.7086   18.5988 C.3     1  UNL1        0.0984
      5 N           4.4238   -1.4610   18.7994 N.am    1  UNL1       -0.2719
      6 C           3.7776   -0.6459   17.7187 C.2     1  UNL1        0.2493
      7 O           3.9131   -1.0610   16.2836 O.2     1  UNL1       -0.2699
      8 C           4.3752   -1.1717   20.2704 C.3     1  UNL1        0.1169
      9 C           2.9958    0.5842   18.0730 C.ar    1  UNL1        0.0544
     10 C           1.5101    0.5004   18.2611 C.ar    1  UNL1        0.0046
     11 C           0.7283    1.7306   18.6154 C.ar    1  UNL1        0.0010
     12 C           1.4323    3.0446   18.7817 C.ar    1  UNL1        0.0114
     13 C           2.9181    3.1284   18.5937 C.ar    1  UNL1        0.0578
     14 CL          3.6222    4.4425   18.7600 Cl      1  UNL1       -0.0822
     15 C           3.6999    1.8983   18.2393 C.ar    1  UNL1        0.0159
     16 C           6.9764   -4.6037   23.5947 C.1     1  UNL1       -0.0405
     17 C           6.1707   -3.4727   23.0276 C.1     1  UNL1       -0.0582
     18 C           8.3517   -7.5656   27.6365 C.3     1  UNL1        0.0521
     19 C           8.4698   -7.2157   26.1827 C.ar    1  UNL1        0.0600
     20 C           9.3937   -7.9968   25.2959 C.ar    1  UNL1        0.0148
     21 C           9.5118   -7.6468   23.8421 C.ar    1  UNL1        0.0034
     22 C           8.7061   -6.5159   23.2750 C.ar    1  UNL1        0.0276
     23 C           7.7822   -5.7348   24.1618 C.ar    1  UNL1        0.1224
     24 N           7.6641   -6.0847   25.6156 N.ar    1  UNL1       -0.2414
@<TRIPOS>BOND
     1    18    19    1
     2    19    20   ar
     3    20    21   ar
     4    21    22   ar
     5    22    23   ar
     6    23    16    1
     7    16    17    3
     8    17     1    1
     9     1     2    2
    10     2     3    1
    11     3     4    1
    12     4     5    1
    13     5     6   am
    14     6     7    2
    15     6     9    1
    16     9    10   ar
    17    10    11   ar
    18    11    12   ar
    19    12    13   ar
    20    13    14    1
    21    13    15   ar
    22     5     8    1
    23    23    24   ar
    24    24    19   ar
    25     8     2    1
    26    15     9   ar
@<TRIPOS>MOLECULE
*****
 24 26 0 0 0
SMALL
GASTEIGER

@<TRIPOS>ATOM
      1 C           4.6124   -2.0047   33.6502 C.2     1  UNL1        0.0428
      2 C           5.2325   -0.9227   34.4838 C.2     1  UNL1       -0.0145
      3 C           6.6737   -0.5072   34.4590 C.3     1  UNL1        0.0458
      4 C           6.8521    0.6061   35.4483 C.3     1  UNL1        0.0984
      5 N           5.5213    0.8786   36.0846 N.am    1  UNL1       -0.2719
      6 C           5.2408    1.9141   37.1328 C.2     1  UNL1        0.2493
      7 O           6.3485    2.7917   37.6355 O.2     1  UNL1       -0.2699
      8 C           4.5204   -0.0663   35.4884 C.3     1  UNL1        0.1169
      9 C           3.8525    2.0720   37.6785 C.ar    1  UNL1        0.0544
     10 C           3.0765    3.3257   37.4030 C.ar    1  UNL1        0.0046
     11 C           1.6882    3.4836   37.9486 C.ar    1  UNL1        0.0010
     12 C           1.0759    2.3878   38.7697 C.ar    1  UNL1        0.0114
     13 C           1.8519    1.1340   39.0452 C.ar    1  UNL1        0.0578
     14 CL          1.2396    0.0381   39.8663 Cl      1  UNL1       -0.0822
     15 C           3.2402    0.9761   38.4995 C.ar    1  UNL1        0.0159
     16 C           6.2974   -3.5587   31.7147 C.1     1  UNL1       -0.0405
     17 C           5.4550   -2.7817   32.6824 C.1     1  UNL1       -0.0582
     18 C           6.8304   -5.9813   27.1489 C.3     1  UNL1        0.0521
     19 C           7.4064   -5.5470   28.4640 C.ar    1  UNL1        0.0600
     20 C           8.8248   -5.8896   28.8114 C.ar    1  UNL1        0.0148
     21 C           9.4008   -5.4553   30.1266 C.ar    1  UNL1        0.0034
     22 C           8.5583   -4.6783   31.0943 C.ar    1  UNL1        0.0276
     23 C           7.1399   -4.3357   30.7469 C.ar    1  UNL1        0.1224
     24 N           6.5640   -4.7700   29.4318 N.ar    1  UNL1       -0.2414
@<TRIPOS>BOND
     1    18    19    1
     2    19    20   ar
     3    20    21   ar
     4    21    22   ar
     5    22    23   ar
     6    23    16    1
     7    16    17    3
     8    17     1    1
     9     1     2    2
    10     2     3    1
    11     3     4    1
    12     4     5    1
    13     5     6   am
    14     6     7    2
    15     6     9    1
    16     9    10   ar
    17    10    11   ar
    18    11    12   ar
    19    12    13   ar
    20    13    14    1
    21    13    15   ar
    22     5     8    1
    23    23    24   ar
    24    24    19   ar
    25     8     2    1
    26    15     9   ar
@<TRIPOS>MOLECULE
*****
 24 26 0 0 0
SMALL
GASTEIGER

@<TRIPOS>ATOM
      1 C         -14.9901   -2.1999   19.9337 C.2     1  UNL1        0.0428
      2 C         -13.7404   -2.0796   19.1128 C.2     1  UNL1       -0.0145
      3 C         -13.2014   -0.8175   18.5073 C.3     1  UNL1        0.0458
      4 C         -11.9382   -1.1582   17.7736 C.3     1  UNL1        0.0984
      5 N         -11.6965   -2.6307   17.9257 N.am    1  UNL1       -0.2719
      6 C         -10.5434   -3.3989   17.3511 C.2     1  UNL1        0.2493
      7 O          -9.5001   -2.6900   16.5393 O.2     1  UNL1       -0.2699
      8 C         -12.8103   -3.2002   18.7534 C.3     1  UNL1        0.1169
      9 C         -10.4337   -4.8760   17.5882 C.ar    1  UNL1        0.0544
     10 C          -9.6304   -5.3922   18.7449 C.ar    1  UNL1        0.0046
     11 C          -9.5206   -6.8693   18.9820 C.ar    1  UNL1        0.0010
     12 C         -10.2142   -7.8301   18.0624 C.ar    1  UNL1        0.0114
     13 C         -11.0175   -7.3139   16.9056 C.ar    1  UNL1        0.0578
     14 CL        -11.7111   -8.2747   15.9858 Cl      1  UNL1       -0.0822
     15 C         -11.1272   -5.8368   16.6685 C.ar    1  UNL1        0.0159
     16 C         -16.6585    0.2303   20.4910 C.1     1  UNL1       -0.0405
     17 C         -15.8243   -0.9848   20.2124 C.1     1  UNL1       -0.0582
     18 C         -19.1859    3.2787   23.8555 C.3     1  UNL1        0.0521
     19 C         -18.7563    2.9696   22.4520 C.ar    1  UNL1        0.0600
     20 C         -19.1609    3.8757   21.3271 C.ar    1  UNL1        0.0148
     21 C         -18.7313    3.5666   19.9235 C.ar    1  UNL1        0.0034
     22 C         -17.8972    2.3515   19.6448 C.ar    1  UNL1        0.0276
     23 C         -17.4926    1.4455   20.7697 C.ar    1  UNL1        0.1224
     24 N         -17.9222    1.7545   22.1732 N.ar    1  UNL1       -0.2414
@<TRIPOS>BOND
     1    18    19    1
     2    19    20   ar
     3    20    21   ar
     4    21    22   ar
     5    22    23   ar
     6    23    16    1
     7    16    17    3
     8    17     1    1
     9     1     2    2
    10     2     3    1
    11     3     4    1
    12     4     5    1
    13     5     6   am
    14     6     7    2
    15     6     9    1
    16     9    10   ar
    17    10    11   ar
    18    11    12   ar
    19    12    13   ar
    20    13    14    1
    21    13    15   ar
    22     5     8    1
    23    23    24   ar
    24    24    19   ar
    25     8     2    1
    26    15     9   ar
@<TRIPOS>MOLECULE
*****
 24 26 0 0 0
SMALL
GASTEIGER

@<TRIPOS>ATOM
      1 C           5.7397   -2.8332   23.6339 C.2     1  UNL1        0.0428
      2 C           6.0893   -2.8091   22.1754 C.2     1  UNL1       -0.0145
      3 C           7.0002   -3.7706   21.4711 C.3     1  UNL1        0.0458
      4 C           7.0632   -3.3751   20.0255 C.3     1  UNL1        0.0984
      5 N           6.1913   -2.1692   19.8364 N.am    1  UNL1       -0.2719
      6 C           5.9616   -1.4411   18.5453 C.2     1  UNL1        0.2493
      7 O           6.6356   -1.9096   17.2898 O.2     1  UNL1       -0.2699
      8 C           5.5894   -1.8195   21.1651 C.3     1  UNL1        0.1169
      9 C           5.0579   -0.2444   18.5097 C.ar    1  UNL1        0.0544
     10 C           5.6408    1.1371   18.5503 C.ar    1  UNL1        0.0046
     11 C           4.7371    2.3338   18.5147 C.ar    1  UNL1        0.0010
     12 C           3.2505    2.1490   18.4385 C.ar    1  UNL1        0.0114
     13 C           2.6676    0.7675   18.3978 C.ar    1  UNL1        0.0578
     14 CL          1.1809    0.5827   18.3216 Cl      1  UNL1       -0.0822
     15 C           3.5713   -0.4292   18.4334 C.ar    1  UNL1        0.0159
     16 C           6.9004   -4.9458   25.4199 C.1     1  UNL1       -0.0405
     17 C           6.3201   -3.8895   24.5269 C.1     1  UNL1       -0.0582
     18 C           8.6391   -6.4380   30.0836 C.3     1  UNL1        0.0521
     19 C           8.3501   -6.7482   28.6448 C.ar    1  UNL1        0.0600
     20 C           8.6414   -8.1146   28.0989 C.ar    1  UNL1        0.0148
     21 C           8.3524   -8.4248   26.6601 C.ar    1  UNL1        0.0034
     22 C           7.7721   -7.3685   25.7671 C.ar    1  UNL1        0.0276
     23 C           7.4808   -6.0021   26.3129 C.ar    1  UNL1        0.1224
     24 N           7.7697   -5.6920   27.7518 N.ar    1  UNL1       -0.2414
@<TRIPOS>BOND
     1    18    19    1
     2    19    20   ar
     3    20    21   ar
     4    21    22   ar
     5    22    23   ar
     6    23    16    1
     7    16    17    3
     8    17     1    1
     9     1     2    2
    10     2     3    1
    11     3     4    1
    12     4     5    1
    13     5     6   am
    14     6     7    2
    15     6     9    1
    16     9    10   ar
    17    10    11   ar
    18    11    12   ar
    19    12    13   ar
    20    13    14    1
    21    13    15   ar
    22     5     8    1
    23    23    24   ar
    24    24    19   ar
    25     8     2    1
    26    15     9   ar
@<TRIPOS>MOLECULE
*****
 24 26 0 0 0
SMALL
GASTEIGER

@<TRIPOS>ATOM
      1 C           4.4417   -1.3153   25.3444 C.2     1  UNL1        0.0428
      2 C           4.4048   -1.9330   23.9780 C.2     1  UNL1       -0.0145
      3 C           4.9821   -3.2638   23.5961 C.3     1  UNL1        0.0458
      4 C           4.7182   -3.4816   22.1356 C.3     1  UNL1        0.0984
      5 N           3.9778   -2.2854   21.6149 N.am    1  UNL1       -0.2719
      6 C           3.5129   -2.0821   20.2034 C.2     1  UNL1        0.2493
      7 O           3.7803   -3.1329   19.1670 O.2     1  UNL1       -0.2699
      8 C           3.7842   -1.3284   22.7536 C.3     1  UNL1        0.1169
      9 C           2.7804   -0.8279   19.8284 C.ar    1  UNL1        0.0544
     10 C           1.3061   -0.7163   20.0812 C.ar    1  UNL1        0.0046
     11 C           0.5737    0.5378   19.7061 C.ar    1  UNL1        0.0010
     12 C           1.3156    1.6804   19.0783 C.ar    1  UNL1        0.0114
     13 C           2.7899    1.5688   18.8256 C.ar    1  UNL1        0.0578
     14 CL          3.5319    2.7114   18.1978 Cl      1  UNL1       -0.0822
     15 C           3.5223    0.3146   19.2006 C.ar    1  UNL1        0.0159
     16 C           5.7609   -2.7694   27.6128 C.1     1  UNL1       -0.0405
     17 C           5.1013   -2.0424   26.4786 C.1     1  UNL1       -0.0582
     18 C           8.1825   -2.6861   32.2094 C.3     1  UNL1        0.0521
     19 C           7.6313   -3.4548   31.0452 C.ar    1  UNL1        0.0600
     20 C           7.7397   -4.9505   31.0152 C.ar    1  UNL1        0.0148
     21 C           7.1885   -5.7193   29.8511 C.ar    1  UNL1        0.0034
     22 C           6.5289   -4.9922   28.7170 C.ar    1  UNL1        0.0276
     23 C           6.4205   -3.4965   28.7470 C.ar    1  UNL1        0.1224
     24 N           6.9717   -2.7278   29.9111 N.ar    1  UNL1       -0.2414
@<TRIPOS>BOND
     1    18    19    1
     2    19    20   ar
     3    20    21   ar
     4    21    22   ar
     5    22    23   ar
     6    23    16    1
     7    16    17    3
     8    17     1    1
     9     1     2    2
    10     2     3    1
    11     3     4    1
    12     4     5    1
    13     5     6   am
    14     6     7    2
    15     6     9    1
    16     9    10   ar
    17    10    11   ar
    18    11    12   ar
    19    12    13   ar
    20    13    14    1
    21    13    15   ar
    22     5     8    1
    23    23    24   ar
    24    24    19   ar
    25     8     2    1
    26    15     9   ar
@<TRIPOS>MOLECULE
*****
 24 26 0 0 0
SMALL
GASTEIGER

@<TRIPOS>ATOM
      1 C           3.6984   -0.7124   25.3005 C.2     1  UNL1        0.0428
      2 C           2.9792   -0.3356   24.0392 C.2     1  UNL1       -0.0145
      3 C           1.7763    0.5554   23.9427 C.3     1  UNL1        0.0458
      4 C           1.3904    0.6580   22.4968 C.3     1  UNL1        0.0984
      5 N           2.3547   -0.1696   21.6998 N.am    1  UNL1       -0.2719
      6 C           2.3396   -0.3511   20.2110 C.2     1  UNL1        0.2493
      7 O           1.2904    0.3297   19.3829 O.2     1  UNL1       -0.2699
      8 C           3.3366   -0.7837   22.6531 C.3     1  UNL1        0.1169
      9 C           3.3738   -1.2136   19.5501 C.ar    1  UNL1        0.0544
     10 C           4.5131   -0.5821   18.8064 C.ar    1  UNL1        0.0046
     11 C           5.5473   -1.4445   18.1456 C.ar    1  UNL1        0.0010
     12 C           5.4421   -2.9385   18.2284 C.ar    1  UNL1        0.0114
     13 C           4.3028   -3.5701   18.9721 C.ar    1  UNL1        0.0578
     14 CL          4.1976   -5.0642   19.0550 Cl      1  UNL1       -0.0822
     15 C           3.2686   -2.7076   19.6329 C.ar    1  UNL1        0.0159
     16 C           2.7473    0.3442   27.9423 C.1     1  UNL1       -0.0405
     17 C           3.2228   -0.1841   26.6215 C.1     1  UNL1       -0.0582
     18 C           3.2802    0.7097   33.0982 C.3     1  UNL1        0.0521
     19 C           2.5382    1.0553   31.8411 C.ar    1  UNL1        0.0600
     20 C           1.3208    1.9291   31.9050 C.ar    1  UNL1        0.0148
     21 C           0.5788    2.2747   30.6480 C.ar    1  UNL1        0.0034
     22 C           1.0543    1.7464   29.3271 C.ar    1  UNL1        0.0276
     23 C           2.2717    0.8725   29.2633 C.ar    1  UNL1        0.1224
     24 N           3.0137    0.5270   30.5203 N.ar    1  UNL1       -0.2414
@<TRIPOS>BOND
     1    18    19    1
     2    19    20   ar
     3    20    21   ar
     4    21    22   ar
     5    22    23   ar
     6    23    16    1
     7    16    17    3
     8    17     1    1
     9     1     2    2
    10     2     3    1
    11     3     4    1
    12     4     5    1
    13     5     6   am
    14     6     7    2
    15     6     9    1
    16     9    10   ar
    17    10    11   ar
    18    11    12   ar
    19    12    13   ar
    20    13    14    1
    21    13    15   ar
    22     5     8    1
    23    23    24   ar
    24    24    19   ar
    25     8     2    1
    26    15     9   ar
@<TRIPOS>MOLECULE
*****
 24 26 0 0 0
SMALL
GASTEIGER

@<TRIPOS>ATOM
      1 C           4.4513   -1.0936   25.3624 C.2     1  UNL1        0.0428
      2 C           4.6189   -1.9266   24.1263 C.2     1  UNL1       -0.0145
      3 C           5.3345   -3.2421   24.0400 C.3     1  UNL1        0.0458
      4 C           5.2581   -3.7189   22.6198 C.3     1  UNL1        0.0984
      5 N           4.4953   -2.6982   21.8285 N.am    1  UNL1       -0.2719
      6 C           4.1825   -2.7722   20.3634 C.2     1  UNL1        0.2493
      7 O           4.6458   -3.9484   19.5560 O.2     1  UNL1       -0.2699
      8 C           4.1002   -1.5905   22.7596 C.3     1  UNL1        0.1169
      9 C           3.4063   -1.6700   19.7056 C.ar    1  UNL1        0.0544
     10 C           3.9152   -1.0463   18.4399 C.ar    1  UNL1        0.0046
     11 C           3.1390    0.0559   17.7821 C.ar    1  UNL1        0.0010
     12 C           1.8540    0.5345   18.3901 C.ar    1  UNL1        0.0114
     13 C           1.3451   -0.0891   19.6558 C.ar    1  UNL1        0.0578
     14 CL          0.0600    0.3895   20.2638 Cl      1  UNL1       -0.0822
     15 C           2.1213   -1.1914   20.3136 C.ar    1  UNL1        0.0159
     16 C           5.6050   -2.0285   27.9691 C.1     1  UNL1       -0.0405
     17 C           5.0282   -1.5611   26.6658 C.1     1  UNL1       -0.0582
     18 C           7.3836   -5.8693   30.9832 C.3     1  UNL1        0.0521
     19 C           7.0712   -4.4164   30.7795 C.ar    1  UNL1        0.0600
     20 C           7.3356   -3.4311   31.8791 C.ar    1  UNL1        0.0148
     21 C           7.0232   -1.9782   31.6754 C.ar    1  UNL1        0.0034
     22 C           6.4463   -1.5107   30.3721 C.ar    1  UNL1        0.0276
     23 C           6.1819   -2.4960   29.2725 C.ar    1  UNL1        0.1224
     24 N           6.4943   -3.9489   29.4762 N.ar    1  UNL1       -0.2414
@<TRIPOS>BOND
     1    18    19    1
     2    19    20   ar
     3    20    21   ar
     4    21    22   ar
     5    22    23   ar
     6    23    16    1
     7    16    17    3
     8    17     1    1
     9     1     2    2
    10     2     3    1
    11     3     4    1
    12     4     5    1
    13     5     6   am
    14     6     7    2
    15     6     9    1
    16     9    10   ar
    17    10    11   ar
    18    11    12   ar
    19    12    13   ar
    20    13    14    1
    21    13    15   ar
    22     5     8    1
    23    23    24   ar
    24    24    19   ar
    25     8     2    1
    26    15     9   ar
@<TRIPOS>MOLECULE
*****
 24 26 0 0 0
SMALL
GASTEIGER

@<TRIPOS>ATOM
      1 C           5.9024   -1.9516   26.3463 C.2     1  UNL1        0.0428
      2 C           6.1820   -3.0155   27.3660 C.2     1  UNL1       -0.0145
      3 C           6.3319   -4.4825   27.0913 C.3     1  UNL1        0.0458
      4 C           6.6034   -5.1729   28.3950 C.3     1  UNL1        0.0984
      5 N           6.6212   -4.1326   29.4755 N.am    1  UNL1       -0.2719
      6 C           6.8579   -4.3819   30.9355 C.2     1  UNL1        0.2493
      7 O           7.1061   -5.7769   31.4276 O.2     1  UNL1       -0.2699
      8 C           6.3608   -2.7993   28.8395 C.3     1  UNL1        0.1169
      9 C           6.8465   -3.2360   31.9035 C.ar    1  UNL1        0.0544
     10 C           8.1243   -2.5268   32.2414 C.ar    1  UNL1        0.0046
     11 C           8.1128   -1.3810   33.2093 C.ar    1  UNL1        0.0010
     12 C           6.8235   -0.9444   33.8395 C.ar    1  UNL1        0.0114
     13 C           5.5457   -1.6535   33.5016 C.ar    1  UNL1        0.0578
     14 CL          4.2563   -1.2169   34.1317 Cl      1  UNL1       -0.0822
     15 C           5.5572   -2.7994   32.5336 C.ar    1  UNL1        0.0159
     16 C           5.5919   -2.6896   23.4551 C.1     1  UNL1       -0.0405
     17 C           5.7471   -2.3206   24.9006 C.1     1  UNL1       -0.0582
     18 C           7.1521   -2.2861   18.5152 C.3     1  UNL1        0.0521
     19 C           6.2167   -2.8569   19.5395 C.ar    1  UNL1        0.0600
     20 C           5.1261   -3.7965   19.1183 C.ar    1  UNL1        0.0148
     21 C           4.1907   -4.3672   20.1427 C.ar    1  UNL1        0.0034
     22 C           4.3459   -3.9983   21.5882 C.ar    1  UNL1        0.0276
     23 C           5.4366   -3.0586   22.0094 C.ar    1  UNL1        0.1224
     24 N           6.3720   -2.4879   20.9851 N.ar    1  UNL1       -0.2414
@<TRIPOS>BOND
     1    18    19    1
     2    19    20   ar
     3    20    21   ar
     4    21    22   ar
     5    22    23   ar
     6    23    16    1
     7    16    17    3
     8    17     1    1
     9     1     2    2
    10     2     3    1
    11     3     4    1
    12     4     5    1
    13     5     6   am
    14     6     7    2
    15     6     9    1
    16     9    10   ar
    17    10    11   ar
    18    11    12   ar
    19    12    13   ar
    20    13    14    1
    21    13    15   ar
    22     5     8    1
    23    23    24   ar
    24    24    19   ar
    25     8     2    1
    26    15     9   ar
@<TRIPOS>MOLECULE
*****
 24 26 0 0 0
SMALL
GASTEIGER

@<TRIPOS>ATOM
      1 C           5.9640   -2.3215   25.7093 C.2     1  UNL1        0.0428
      2 C           4.8860   -1.7499   24.8368 C.2     1  UNL1       -0.0145
      3 C           3.6932   -0.9703   25.3055 C.3     1  UNL1        0.0458
      4 C           2.8816   -0.5961   24.1007 C.3     1  UNL1        0.0984
      5 N           3.5728   -1.1444   22.8876 N.am    1  UNL1       -0.2719
      6 C           3.1069   -1.0042   21.4688 C.2     1  UNL1        0.2493
      7 O           1.8410   -0.2590   21.1651 O.2     1  UNL1       -0.2699
      8 C           4.8115   -1.8575   23.3426 C.3     1  UNL1        0.1169
      9 C           3.9070   -1.6092   20.3535 C.ar    1  UNL1        0.0544
     10 C           4.7893   -0.7408   19.5065 C.ar    1  UNL1        0.0046
     11 C           5.5893   -1.3458   18.3913 C.ar    1  UNL1        0.0010
     12 C           5.5071   -2.8193   18.1229 C.ar    1  UNL1        0.0114
     13 C           4.6248   -3.6878   18.9698 C.ar    1  UNL1        0.0578
     14 CL          4.5425   -5.1613   18.7015 Cl      1  UNL1       -0.0822
     15 C           3.8247   -3.0827   20.0851 C.ar    1  UNL1        0.0159
     16 C           5.8447   -1.9435   28.6830 C.1     1  UNL1       -0.0405
     17 C           5.9043   -2.1325   27.1962 C.1     1  UNL1       -0.0582
     18 C           3.5347    0.0848   32.8723 C.3     1  UNL1        0.0521
     19 C           4.6301   -0.7403   32.2645 C.ar    1  UNL1        0.0600
     20 C           5.6658   -1.3763   33.1436 C.ar    1  UNL1        0.0148
     21 C           6.7611   -2.2014   32.5358 C.ar    1  UNL1        0.0034
     22 C           6.8208   -2.3905   31.0490 C.ar    1  UNL1        0.0276
     23 C           5.7851   -1.7544   30.1699 C.ar    1  UNL1        0.1224
     24 N           4.6897   -0.9293   30.7777 N.ar    1  UNL1       -0.2414
@<TRIPOS>BOND
     1    18    19    1
     2    19    20   ar
     3    20    21   ar
     4    21    22   ar
     5    22    23   ar
     6    23    16    1
     7    16    17    3
     8    17     1    1
     9     1     2    2
    10     2     3    1
    11     3     4    1
    12     4     5    1
    13     5     6   am
    14     6     7    2
    15     6     9    1
    16     9    10   ar
    17    10    11   ar
    18    11    12   ar
    19    12    13   ar
    20    13    14    1
    21    13    15   ar
    22     5     8    1
    23    23    24   ar
    24    24    19   ar
    25     8     2    1
    26    15     9   ar
