@<TRIPOS>MOLECULE
*****
 35 37 0 0 0
SMALL
GASTEIGER

@<TRIPOS>ATOM
      1 C          -8.2572  -15.8200   22.3177 C.ar    1  UNL1        0.2209
      2 N          -7.5930  -14.7805   23.1712 N.ar    1  UNL1       -0.2088
      3 C          -6.2808  -15.0803   23.8332 C.ar    1  UNL1        0.1402
      4 C          -5.6329  -16.4195   23.6418 C.ar    1  UNL1        0.1773
      5 C          -6.2971  -17.4589   22.7883 C.ar    1  UNL1        0.1402
      6 N          -7.6092  -17.1591   22.1263 N.ar    1  UNL1       -0.2088
      7 N          -9.5694  -15.5202   21.6556 N.pl3   1  UNL1       -0.2818
      8 H          -9.6385  -14.7768   21.0139 H       1  UNL1        0.1551
      9 C         -10.9917  -16.8633   23.3653 C.ar    1  UNL1        0.0639
     10 C         -12.1986  -17.6962   23.6809 C.ar    1  UNL1        0.0159
     11 C         -13.1901  -18.0188   22.6026 C.ar    1  UNL1        0.0010
     12 C         -12.9748  -17.5086   21.2086 C.ar    1  UNL1       -0.0030
     13 C         -11.7679  -16.6757   20.8930 C.ar    1  UNL1       -0.0072
     14 C         -11.5525  -16.1654   19.4990 C.3     1  UNL1        0.0324
     15 C         -10.7763  -16.3531   21.9713 C.ar    1  UNL1        0.0601
     16 C          -9.4775  -17.6302   25.3323 C.2     1  UNL1        0.2497
     17 O          -9.9465  -19.0424   25.1427 O.2     1  UNL1       -0.2698
     18 N         -10.0002  -16.5407   24.4436 N.am    1  UNL1       -0.2794
     19 H          -9.6924  -15.6139   24.5680 H       1  UNL1        0.1552
     20 C          -8.2672  -15.8831   26.8265 C.2     1  UNL1        0.0048
     21 C          -8.4860  -17.3076   26.4106 C.2     1  UNL1        0.0580
     22 O          -4.3207  -16.7193   24.3039 O.3     1  UNL1       -0.4673
     23 C          -3.5944  -17.9930   23.9869 C.3     1  UNL1        0.2368
     24 C          -3.3385  -18.3751   22.5592 C.ar    1  UNL1        0.0821
     25 C          -4.0682  -19.5360   21.9511 C.ar    1  UNL1        0.1757
     26 F          -5.0537  -20.3149   22.7709 F       1  UNL1       -0.2011
     27 C          -3.8123  -19.9181   20.5234 C.ar    1  UNL1        0.1689
     28 C          -2.8268  -19.1393   19.7036 C.ar    1  UNL1        0.0784
     29 C          -2.0970  -17.9782   20.3116 C.ar    1  UNL1        0.1689
     30 C          -2.3529  -17.5962   21.7394 C.ar    1  UNL1        0.1757
     31 F          -1.6233  -16.4352   22.3475 F       1  UNL1       -0.2011
     32 O          -4.5420  -21.0791   19.9153 O.3     1  UNL1       -0.4691
     33 C          -6.0288  -21.1969   20.0743 C.3     1  UNL1        0.2526
     34 O          -1.1115  -17.1994   19.4919 O.3     1  UNL1       -0.4691
     35 C           0.3413  -17.2002   19.8654 C.3     1  UNL1        0.2526
@<TRIPOS>BOND
     1    20    21    2
     2    21    16    1
     3    16    17    2
     4    16    18   am
     5    18     9    1
     6     9    10   ar
     7    10    11   ar
     8    11    12   ar
     9    12    13   ar
    10    13    14    1
    11    13    15   ar
    12    15     7    1
    13     7     1    1
    14     1     2   ar
    15     2     3   ar
    16     3     4   ar
    17     4    22    1
    18    22    23    1
    19    23    24    1
    20    24    25   ar
    21    25    26    1
    22    25    27   ar
    23    27    32    1
    24    32    33    1
    25    27    28   ar
    26    28    29   ar
    27    29    34    1
    28    34    35    1
    29    29    30   ar
    30    30    31    1
    31     4     5   ar
    32     5     6   ar
    33    15     9   ar
    34     6     1   ar
    35    30    24   ar
    36    18    19    1
    37     7     8    1
@<TRIPOS>MOLECULE
*****
 35 37 0 0 0
SMALL
GASTEIGER

@<TRIPOS>ATOM
      1 C          -8.2603  -15.8516   22.3627 C.ar    1  UNL1        0.2209
      2 N          -7.5964  -17.1801   22.1523 N.ar    1  UNL1       -0.2088
      3 C          -6.2710  -17.4661   22.7938 C.ar    1  UNL1        0.1402
      4 C          -5.6096  -16.4236   23.6458 C.ar    1  UNL1        0.1773
      5 C          -6.2736  -15.0951   23.8562 C.ar    1  UNL1        0.1402
      6 N          -7.5990  -14.8091   23.2146 N.ar    1  UNL1       -0.2088
      7 N          -9.5857  -15.5656   21.7212 N.pl3   1  UNL1       -0.2818
      8 H          -9.6769  -14.8116   21.0947 H       1  UNL1        0.1551
      9 C         -10.9830  -16.9363   23.4296 C.ar    1  UNL1        0.0639
     10 C         -12.1694  -17.7991   23.7425 C.ar    1  UNL1        0.0159
     11 C         -13.1451  -18.1540   22.6599 C.ar    1  UNL1        0.0010
     12 C         -12.9343  -17.6461   21.2643 C.ar    1  UNL1       -0.0030
     13 C         -11.7479  -16.7833   20.9515 C.ar    1  UNL1       -0.0072
     14 C         -11.5370  -16.2753   19.5559 C.3     1  UNL1        0.0324
     15 C         -10.7722  -16.4284   22.0341 C.ar    1  UNL1        0.0601
     16 C          -9.4577  -17.6524   25.4072 C.2     1  UNL1        0.2497
     17 O          -9.8838  -19.0783   25.2195 O.2     1  UNL1       -0.2698
     18 N         -10.0073  -16.5814   24.5123 N.am    1  UNL1       -0.2794
     19 H          -9.7277  -15.6455   24.6355 H       1  UNL1        0.1552
     20 C          -8.2668  -15.8609   26.8640 C.2     1  UNL1        0.0048
     21 C          -8.4821  -17.2975   26.4899 C.2     1  UNL1        0.0580
     22 O          -4.2842  -16.7095   24.2873 O.3     1  UNL1       -0.4673
     23 C          -3.5583  -17.9841   23.9730 C.3     1  UNL1        0.2368
     24 C          -3.3145  -18.3759   22.5458 C.ar    1  UNL1        0.0821
     25 C          -2.3300  -17.6077   21.7148 C.ar    1  UNL1        0.1757
     26 F          -1.5892  -16.4477   22.3111 F       1  UNL1       -0.2011
     27 C          -2.0862  -17.9996   20.2876 C.ar    1  UNL1        0.1689
     28 C          -2.8269  -19.1596   19.6913 C.ar    1  UNL1        0.0784
     29 C          -3.8115  -19.9278   20.5223 C.ar    1  UNL1        0.1689
     30 C          -4.0553  -19.5360   21.9495 C.ar    1  UNL1        0.1757
     31 F          -5.0399  -20.3041   22.7805 F       1  UNL1       -0.2011
     32 O          -1.1016  -17.2314   19.4566 O.3     1  UNL1       -0.4691
     33 C           0.3519  -17.2293   19.8270 C.3     1  UNL1        0.2526
     34 O          -4.5523  -21.0878   19.9260 O.3     1  UNL1       -0.4691
     35 C          -6.0446  -21.1701   20.0532 C.3     1  UNL1        0.2526
@<TRIPOS>BOND
     1    20    21    2
     2    21    16    1
     3    16    17    2
     4    16    18   am
     5    18     9    1
     6     9    10   ar
     7    10    11   ar
     8    11    12   ar
     9    12    13   ar
    10    13    14    1
    11    13    15   ar
    12    15     7    1
    13     7     1    1
    14     1     2   ar
    15     2     3   ar
    16     3     4   ar
    17     4    22    1
    18    22    23    1
    19    23    24    1
    20    24    25   ar
    21    25    26    1
    22    25    27   ar
    23    27    32    1
    24    32    33    1
    25    27    28   ar
    26    28    29   ar
    27    29    34    1
    28    34    35    1
    29    29    30   ar
    30    30    31    1
    31     4     5   ar
    32     5     6   ar
    33    15     9   ar
    34     6     1   ar
    35    30    24   ar
    36    18    19    1
    37     7     8    1
@<TRIPOS>MOLECULE
*****
 35 37 0 0 0
SMALL
GASTEIGER

@<TRIPOS>ATOM
      1 C          -5.0837  -19.6318   21.5803 C.ar    1  UNL1        0.2209
      2 N          -6.1895  -18.7142   22.0107 N.ar    1  UNL1       -0.2088
      3 C          -7.5554  -18.8505   21.4060 C.ar    1  UNL1        0.1402
      4 C          -7.8155  -19.9045   20.3708 C.ar    1  UNL1        0.1773
      5 C          -6.7097  -20.8221   19.9404 C.ar    1  UNL1        0.1402
      6 N          -5.3438  -20.6857   20.5451 N.ar    1  UNL1       -0.2088
      7 N          -3.7178  -19.4954   22.1850 N.pl3   1  UNL1       -0.2818
      8 H          -3.4005  -20.1593   22.8391 H       1  UNL1        0.1551
      9 C          -3.0140  -17.0078   22.4437 C.ar    1  UNL1        0.0639
     10 C          -2.1315  -15.8600   22.0518 C.ar    1  UNL1        0.0159
     11 C          -1.0702  -16.0518   21.0093 C.ar    1  UNL1        0.0010
     12 C          -0.8915  -17.3914   20.3586 C.ar    1  UNL1       -0.0030
     13 C          -1.7740  -18.5393   20.7505 C.ar    1  UNL1       -0.0072
     14 C          -1.5952  -19.8790   20.0999 C.3     1  UNL1        0.0324
     15 C          -2.8352  -18.3475   21.7931 C.ar    1  UNL1        0.0601
     16 C          -4.8158  -15.5145   23.5721 C.2     1  UNL1        0.2497
     17 O          -4.4952  -14.4046   22.6152 O.2     1  UNL1       -0.2698
     18 N          -4.0753  -16.8160   23.4863 N.am    1  UNL1       -0.2794
     19 H          -4.2857  -17.5445   24.1143 H       1  UNL1        0.1552
     20 C          -5.5195  -15.3890   26.0699 C.2     1  UNL1        0.0048
     21 C          -5.8771  -15.3227   24.6146 C.2     1  UNL1        0.0580
     22 O          -9.1814  -20.0409   19.7661 O.3     1  UNL1       -0.4673
     23 C         -10.3555  -20.3829   20.6348 C.3     1  UNL1        0.2368
     24 C         -11.1545  -19.2898   21.2803 C.ar    1  UNL1        0.0821
     25 C         -11.6000  -18.1083   20.4707 C.ar    1  UNL1        0.1757
     26 F         -11.2465  -18.0199   19.0156 F       1  UNL1       -0.2011
     27 C         -12.3991  -17.0152   21.1161 C.ar    1  UNL1        0.1689
     28 C         -12.7526  -17.1035   22.5711 C.ar    1  UNL1        0.0784
     29 C         -12.3071  -18.2851   23.3808 C.ar    1  UNL1        0.1689
     30 C         -11.5081  -19.3782   22.7354 C.ar    1  UNL1        0.1757
     31 F         -11.0626  -20.5597   23.5450 F       1  UNL1       -0.2011
     32 O         -12.8446  -15.8336   20.3065 O.3     1  UNL1       -0.4691
     33 C         -12.0512  -15.4032   19.1085 C.3     1  UNL1        0.2526
     34 O         -12.6607  -18.3735   24.8358 O.3     1  UNL1       -0.4691
     35 C         -14.0963  -18.4962   25.2527 C.3     1  UNL1        0.2526
@<TRIPOS>BOND
     1    20    21    2
     2    21    16    1
     3    16    17    2
     4    16    18   am
     5    18     9    1
     6     9    10   ar
     7    10    11   ar
     8    11    12   ar
     9    12    13   ar
    10    13    14    1
    11    13    15   ar
    12    15     7    1
    13     7     1    1
    14     1     2   ar
    15     2     3   ar
    16     3     4   ar
    17     4    22    1
    18    22    23    1
    19    23    24    1
    20    24    25   ar
    21    25    26    1
    22    25    27   ar
    23    27    32    1
    24    32    33    1
    25    27    28   ar
    26    28    29   ar
    27    29    34    1
    28    34    35    1
    29    29    30   ar
    30    30    31    1
    31     4     5   ar
    32     5     6   ar
    33    15     9   ar
    34     6     1   ar
    35    30    24   ar
    36    18    19    1
    37     7     8    1
@<TRIPOS>MOLECULE
*****
 35 37 0 0 0
SMALL
GASTEIGER

@<TRIPOS>ATOM
      1 C          -5.1232  -19.5936   21.6357 C.ar    1  UNL1        0.2209
      2 N          -6.2230  -18.6358   21.9866 N.ar    1  UNL1       -0.2088
      3 C          -7.5736  -18.7788   21.3498 C.ar    1  UNL1        0.1402
      4 C          -7.8244  -19.8796   20.3622 C.ar    1  UNL1        0.1773
      5 C          -6.7246  -20.8374   20.0113 C.ar    1  UNL1        0.1402
      6 N          -5.3740  -20.6944   20.6481 N.ar    1  UNL1       -0.2088
      7 N          -3.7726  -19.4506   22.2725 N.pl3   1  UNL1       -0.2818
      8 H          -3.4849  -20.0885   22.9649 H       1  UNL1        0.1551
      9 C          -2.9600  -16.9953   22.5202 C.ar    1  UNL1        0.0639
     10 C          -2.0479  -15.8805   22.1019 C.ar    1  UNL1        0.0159
     11 C          -1.0362  -16.1059   21.0175 C.ar    1  UNL1        0.0010
     12 C          -0.9367  -17.4462   20.3515 C.ar    1  UNL1       -0.0030
     13 C          -1.8489  -18.5611   20.7698 C.ar    1  UNL1       -0.0072
     14 C          -1.7494  -19.9015   20.1038 C.3     1  UNL1        0.0324
     15 C          -2.8605  -18.3356   21.8542 C.ar    1  UNL1        0.0601
     16 C          -4.7432  -15.4846   23.6550 C.2     1  UNL1        0.2497
     17 O          -4.5032  -14.4246   22.6210 O.2     1  UNL1       -0.2698
     18 N          -3.9716  -16.7699   23.6045 N.am    1  UNL1       -0.2794
     19 H          -4.1292  -17.4656   24.2831 H       1  UNL1        0.1552
     20 C          -5.4542  -15.6851   26.1458 C.2     1  UNL1        0.0048
     21 C          -5.7548  -15.2592   24.7393 C.2     1  UNL1        0.0580
     22 O          -9.1750  -20.0226   19.7254 O.3     1  UNL1       -0.4673
     23 C         -10.3655  -20.3818   20.5643 C.3     1  UNL1        0.2368
     24 C         -11.1576  -19.3037   21.2428 C.ar    1  UNL1        0.0821
     25 C         -11.4861  -19.4197   22.7017 C.ar    1  UNL1        0.1757
     26 F         -11.0226  -20.6138   23.4822 F       1  UNL1       -0.2011
     27 C         -12.2783  -18.3416   23.3802 C.ar    1  UNL1        0.1689
     28 C         -12.7418  -17.1475   22.5997 C.ar    1  UNL1        0.0784
     29 C         -12.4133  -17.0315   21.1407 C.ar    1  UNL1        0.1689
     30 C         -11.6212  -18.1095   20.4622 C.ar    1  UNL1        0.1757
     31 F         -11.2926  -17.9935   19.0033 F       1  UNL1       -0.2011
     32 O         -12.6068  -18.4576   24.8391 O.3     1  UNL1       -0.4691
     33 C         -14.0381  -18.4588   25.2878 C.3     1  UNL1        0.2526
     34 O         -12.8768  -15.8374   20.3602 O.3     1  UNL1       -0.4691
     35 C         -12.1594  -15.4370   19.1052 C.3     1  UNL1        0.2526
@<TRIPOS>BOND
     1    20    21    2
     2    21    16    1
     3    16    17    2
     4    16    18   am
     5    18     9    1
     6     9    10   ar
     7    10    11   ar
     8    11    12   ar
     9    12    13   ar
    10    13    14    1
    11    13    15   ar
    12    15     7    1
    13     7     1    1
    14     1     2   ar
    15     2     3   ar
    16     3     4   ar
    17     4    22    1
    18    22    23    1
    19    23    24    1
    20    24    25   ar
    21    25    26    1
    22    25    27   ar
    23    27    32    1
    24    32    33    1
    25    27    28   ar
    26    28    29   ar
    27    29    34    1
    28    34    35    1
    29    29    30   ar
    30    30    31    1
    31     4     5   ar
    32     5     6   ar
    33    15     9   ar
    34     6     1   ar
    35    30    24   ar
    36    18    19    1
    37     7     8    1
@<TRIPOS>MOLECULE
*****
 35 37 0 0 0
SMALL
GASTEIGER

@<TRIPOS>ATOM
      1 C          -5.7278  -19.4626   21.0008 C.ar    1  UNL1        0.2209
      2 N          -6.5055  -18.2214   21.3244 N.ar    1  UNL1       -0.2088
      3 C          -7.8921  -18.0421   20.7811 C.ar    1  UNL1        0.1402
      4 C          -8.5010  -19.1041   19.9141 C.ar    1  UNL1        0.1773
      5 C          -7.7234  -20.3452   19.5906 C.ar    1  UNL1        0.1402
      6 N          -6.3368  -20.5245   20.1339 N.ar    1  UNL1       -0.2088
      7 N          -4.3412  -19.6418   21.5441 N.pl3   1  UNL1       -0.2818
      8 H          -4.1234  -20.4346   22.0858 H       1  UNL1        0.1551
      9 C          -2.9703  -17.5632   22.2857 C.ar    1  UNL1        0.0639
     10 C          -1.9156  -16.5346   22.0037 C.ar    1  UNL1        0.0159
     11 C          -1.1770  -16.5560   20.6984 C.ar    1  UNL1        0.0010
     12 C          -1.4932  -17.6060   19.6749 C.ar    1  UNL1       -0.0030
     13 C          -2.5479  -18.6346   19.9568 C.ar    1  UNL1       -0.0072
     14 C          -2.8641  -19.6847   18.9334 C.3     1  UNL1        0.0324
     15 C          -3.2865  -18.6132   21.2622 C.ar    1  UNL1        0.0601
     16 C          -4.5685  -16.3652   23.9472 C.2     1  UNL1        0.2497
     17 O          -4.6895  -15.2100   22.9980 O.2     1  UNL1       -0.2698
     18 N          -3.7089  -17.5418   23.5911 N.am    1  UNL1       -0.2794
     19 H          -3.6295  -18.2999   24.2141 H       1  UNL1        0.1552
     20 C          -5.3317  -15.0928   26.0799 C.2     1  UNL1        0.0048
     21 C          -5.3070  -16.3438   25.2526 C.2     1  UNL1        0.0580
     22 O          -9.8876  -18.9249   19.3708 O.3     1  UNL1       -0.4673
     23 C         -10.9703  -18.3677   20.2469 C.3     1  UNL1        0.2368
     24 C         -10.7400  -18.2204   21.7218 C.ar    1  UNL1        0.0821
     25 C         -10.8161  -19.4220   22.6164 C.ar    1  UNL1        0.1757
     26 F         -11.1223  -20.7708   22.0361 F       1  UNL1       -0.2011
     27 C         -10.5858  -19.2747   24.0913 C.ar    1  UNL1        0.1689
     28 C         -10.2796  -17.9259   24.6716 C.ar    1  UNL1        0.0784
     29 C         -10.2035  -16.7242   23.7770 C.ar    1  UNL1        0.1689
     30 C         -10.4337  -16.8715   22.3021 C.ar    1  UNL1        0.1757
     31 F         -10.3577  -15.6699   21.4074 F       1  UNL1       -0.2011
     32 O         -10.6619  -20.4763   24.9859 O.3     1  UNL1       -0.4691
     33 C          -9.5910  -21.5249   24.9260 C.3     1  UNL1        0.2526
     34 O          -9.8972  -15.3754   24.3572 O.3     1  UNL1       -0.4691
     35 C          -8.7496  -15.2114   25.3092 C.3     1  UNL1        0.2526
@<TRIPOS>BOND
     1    20    21    2
     2    21    16    1
     3    16    17    2
     4    16    18   am
     5    18     9    1
     6     9    10   ar
     7    10    11   ar
     8    11    12   ar
     9    12    13   ar
    10    13    14    1
    11    13    15   ar
    12    15     7    1
    13     7     1    1
    14     1     2   ar
    15     2     3   ar
    16     3     4   ar
    17     4    22    1
    18    22    23    1
    19    23    24    1
    20    24    25   ar
    21    25    26    1
    22    25    27   ar
    23    27    32    1
    24    32    33    1
    25    27    28   ar
    26    28    29   ar
    27    29    34    1
    28    34    35    1
    29    29    30   ar
    30    30    31    1
    31     4     5   ar
    32     5     6   ar
    33    15     9   ar
    34     6     1   ar
    35    30    24   ar
    36    18    19    1
    37     7     8    1
@<TRIPOS>MOLECULE
*****
 35 37 0 0 0
SMALL
GASTEIGER

@<TRIPOS>ATOM
      1 C          -9.1844  -18.2253   22.4562 C.ar    1  UNL1        0.2209
      2 N          -9.0694  -17.3227   23.6488 N.ar    1  UNL1       -0.2088
      3 C          -7.7629  -16.6555   23.9612 C.ar    1  UNL1        0.1402
      4 C          -6.5712  -16.8907   23.0810 C.ar    1  UNL1        0.1773
      5 C          -6.6862  -17.7933   21.8885 C.ar    1  UNL1        0.1402
      6 N          -7.9928  -18.4606   21.5761 N.ar    1  UNL1       -0.2088
      7 N         -10.4910  -18.8926   22.1438 N.pl3   1  UNL1       -0.2818
      8 H         -10.5690  -19.4774   21.3557 H       1  UNL1        0.1551
      9 C         -12.8756  -17.9293   22.5123 C.ar    1  UNL1        0.0639
     10 C         -14.0632  -17.7055   23.4007 C.ar    1  UNL1        0.0159
     11 C         -14.0540  -18.2214   24.8092 C.ar    1  UNL1        0.0010
     12 C         -12.8571  -18.9610   25.3292 C.ar    1  UNL1       -0.0030
     13 C         -11.6694  -19.1847   24.4408 C.ar    1  UNL1       -0.0072
     14 C         -10.4725  -19.9243   24.9608 C.3     1  UNL1        0.0324
     15 C         -11.6787  -18.6688   23.0323 C.ar    1  UNL1        0.0601
     16 C         -12.0356  -16.2345   20.7313 C.2     1  UNL1        0.2497
     17 O         -11.1770  -15.5713   21.7672 O.2     1  UNL1       -0.2698
     18 N         -12.8848  -17.4134   21.1038 N.am    1  UNL1       -0.2794
     19 H         -13.4483  -17.8487   20.4239 H       1  UNL1        0.1552
     20 C         -10.8327  -15.0308   18.7680 C.2     1  UNL1        0.0048
     21 C         -12.0448  -15.7186   19.3228 C.2     1  UNL1        0.0580
     22 O          -5.2646  -16.2235   23.3934 O.3     1  UNL1       -0.4673
     23 C          -4.0292  -17.0503   23.5935 C.3     1  UNL1        0.2368
     24 C          -3.3730  -17.7146   22.4195 C.ar    1  UNL1        0.0821
     25 C          -3.8195  -19.0785   21.9834 C.ar    1  UNL1        0.1757
     26 F          -4.9222  -19.7782   22.7212 F       1  UNL1       -0.2011
     27 C          -3.1633  -19.7428   20.8094 C.ar    1  UNL1        0.1689
     28 C          -2.0606  -19.0431   20.0716 C.ar    1  UNL1        0.0784
     29 C          -1.6140  -17.6791   20.5077 C.ar    1  UNL1        0.1689
     30 C          -2.2702  -17.0148   21.6817 C.ar    1  UNL1        0.1757
     31 F          -1.8237  -15.6509   22.1179 F       1  UNL1       -0.2011
     32 O          -3.6099  -21.1067   20.3733 O.3     1  UNL1       -0.4691
     33 C          -5.0482  -21.3487   20.0233 C.3     1  UNL1        0.2526
     34 O          -0.5113  -16.9794   19.7699 O.3     1  UNL1       -0.4691
     35 C           0.9206  -17.3005   20.0807 C.3     1  UNL1        0.2526
@<TRIPOS>BOND
     1    20    21    2
     2    21    16    1
     3    16    17    2
     4    16    18   am
     5    18     9    1
     6     9    10   ar
     7    10    11   ar
     8    11    12   ar
     9    12    13   ar
    10    13    14    1
    11    13    15   ar
    12    15     7    1
    13     7     1    1
    14     1     2   ar
    15     2     3   ar
    16     3     4   ar
    17     4    22    1
    18    22    23    1
    19    23    24    1
    20    24    25   ar
    21    25    26    1
    22    25    27   ar
    23    27    32    1
    24    32    33    1
    25    27    28   ar
    26    28    29   ar
    27    29    34    1
    28    34    35    1
    29    29    30   ar
    30    30    31    1
    31     4     5   ar
    32     5     6   ar
    33    15     9   ar
    34     6     1   ar
    35    30    24   ar
    36    18    19    1
    37     7     8    1
@<TRIPOS>MOLECULE
*****
 35 37 0 0 0
SMALL
GASTEIGER

@<TRIPOS>ATOM
      1 C          -9.1544  -18.2137   22.4264 C.ar    1  UNL1        0.2209
      2 N          -8.9824  -17.4694   23.7174 N.ar    1  UNL1       -0.2088
      3 C          -7.6870  -16.7744   24.0155 C.ar    1  UNL1        0.1402
      4 C          -6.5637  -16.8236   23.0227 C.ar    1  UNL1        0.1773
      5 C          -6.7357  -17.5678   21.7317 C.ar    1  UNL1        0.1402
      6 N          -8.0311  -18.2628   21.4336 N.ar    1  UNL1       -0.2088
      7 N         -10.4498  -18.9087   22.1283 N.pl3   1  UNL1       -0.2818
      8 H         -10.5139  -19.5228   21.3614 H       1  UNL1        0.1551
      9 C         -12.8282  -17.9166   22.4587 C.ar    1  UNL1        0.0639
     10 C         -14.0260  -17.6760   23.3290 C.ar    1  UNL1        0.0159
     11 C         -14.0432  -18.1870   24.7391 C.ar    1  UNL1        0.0010
     12 C         -12.8627  -18.9385   25.2790 C.ar    1  UNL1       -0.0030
     13 C         -11.6649  -19.1791   24.4087 C.ar    1  UNL1       -0.0072
     14 C         -10.4843  -19.9307   24.9486 C.3     1  UNL1        0.0324
     15 C         -11.6477  -18.6681   22.9986 C.ar    1  UNL1        0.0601
     16 C         -11.9086  -16.2674   20.6742 C.2     1  UNL1        0.2497
     17 O         -11.0234  -15.6401   21.7101 O.2     1  UNL1       -0.2698
     18 N         -12.8110  -17.4056   21.0485 N.am    1  UNL1       -0.2794
     19 H         -13.3919  -17.8173   20.3686 H       1  UNL1        0.1552
     20 C         -10.7460  -14.9143   18.7854 C.2     1  UNL1        0.0048
     21 C         -11.8914  -15.7564   19.2640 C.2     1  UNL1        0.0580
     22 O          -5.2683  -16.1285   23.3208 O.3     1  UNL1       -0.4673
     23 C          -4.0205  -16.9309   23.5432 C.3     1  UNL1        0.2368
     24 C          -3.3646  -17.6324   22.3910 C.ar    1  UNL1        0.0821
     25 C          -2.2481  -16.9652   21.6439 C.ar    1  UNL1        0.1757
     26 F          -1.7875  -15.5964   22.0491 F       1  UNL1       -0.2011
     27 C          -1.5922  -17.6667   20.4917 C.ar    1  UNL1        0.1689
     28 C          -2.0528  -19.0355   20.0866 C.ar    1  UNL1        0.0784
     29 C          -3.1693  -19.7028   20.8336 C.ar    1  UNL1        0.1689
     30 C          -3.8253  -19.0013   21.9859 C.ar    1  UNL1        0.1757
     31 F          -4.9418  -19.6685   22.7329 F       1  UNL1       -0.2011
     32 O          -0.4757  -16.9994   19.7447 O.3     1  UNL1       -0.4691
     33 C           0.9500  -17.3188   20.0843 C.3     1  UNL1        0.2526
     34 O          -3.6299  -21.0716   20.4285 O.3     1  UNL1       -0.4691
     35 C          -5.0644  -21.3000   20.0540 C.3     1  UNL1        0.2526
@<TRIPOS>BOND
     1    20    21    2
     2    21    16    1
     3    16    17    2
     4    16    18   am
     5    18     9    1
     6     9    10   ar
     7    10    11   ar
     8    11    12   ar
     9    12    13   ar
    10    13    14    1
    11    13    15   ar
    12    15     7    1
    13     7     1    1
    14     1     2   ar
    15     2     3   ar
    16     3     4   ar
    17     4    22    1
    18    22    23    1
    19    23    24    1
    20    24    25   ar
    21    25    26    1
    22    25    27   ar
    23    27    32    1
    24    32    33    1
    25    27    28   ar
    26    28    29   ar
    27    29    34    1
    28    34    35    1
    29    29    30   ar
    30    30    31    1
    31     4     5   ar
    32     5     6   ar
    33    15     9   ar
    34     6     1   ar
    35    30    24   ar
    36    18    19    1
    37     7     8    1
@<TRIPOS>MOLECULE
*****
 35 37 0 0 0
SMALL
GASTEIGER

@<TRIPOS>ATOM
      1 C          -7.6486  -16.1815   23.5546 C.ar    1  UNL1        0.2209
      2 N          -6.9468  -17.2830   22.8170 N.ar    1  UNL1       -0.2088
      3 C          -5.4480  -17.3136   22.7635 C.ar    1  UNL1        0.1402
      4 C          -4.6512  -16.2426   23.4477 C.ar    1  UNL1        0.1773
      5 C          -5.3530  -15.1411   24.1853 C.ar    1  UNL1        0.1402
      6 N          -6.8518  -15.1106   24.2388 N.ar    1  UNL1       -0.2088
      7 N          -9.1474  -16.1509   23.6081 N.pl3   1  UNL1       -0.2818
      8 H          -9.6214  -15.2886   23.6386 H       1  UNL1        0.1551
      9 C         -10.6155  -17.8993   22.3680 C.ar    1  UNL1        0.0639
     10 C         -11.3920  -19.1827   22.3751 C.ar    1  UNL1        0.0159
     11 C         -11.4769  -20.0010   23.6294 C.ar    1  UNL1        0.0010
     12 C         -10.7853  -19.5360   24.8765 C.ar    1  UNL1       -0.0030
     13 C         -10.0088  -18.2527   24.8694 C.ar    1  UNL1       -0.0072
     14 C          -9.3171  -17.7876   26.1166 C.3     1  UNL1        0.0324
     15 C          -9.9239  -17.4343   23.6152 C.ar    1  UNL1        0.0601
     16 C         -11.7843  -16.5922   20.4510 C.2     1  UNL1        0.2497
     17 O         -13.1229  -16.9217   21.0424 O.2     1  UNL1       -0.2698
     18 N         -10.5307  -17.0810   21.1138 N.am    1  UNL1       -0.2794
     19 H          -9.6521  -16.8647   20.7257 H       1  UNL1        0.1552
     20 C         -10.5438  -14.8407   18.9868 C.2     1  UNL1        0.0048
     21 C         -11.6994  -15.7738   19.1967 C.2     1  UNL1        0.0580
     22 O          -3.1524  -16.2731   23.3942 O.3     1  UNL1       -0.4673
     23 C          -2.4381  -17.5620   23.1139 C.3     1  UNL1        0.2368
     24 C          -2.5857  -18.2259   21.7769 C.ar    1  UNL1        0.0821
     25 C          -1.8207  -17.7094   20.5945 C.ar    1  UNL1        0.1757
     26 F          -0.9082  -16.5290   20.7491 F       1  UNL1       -0.2011
     27 C          -1.9683  -18.3733   19.2576 C.ar    1  UNL1        0.1689
     28 C          -2.8809  -19.5537   19.1030 C.ar    1  UNL1        0.0784
     29 C          -3.6458  -20.0702   20.2854 C.ar    1  UNL1        0.1689
     30 C          -3.4983  -19.4063   21.6224 C.ar    1  UNL1        0.1757
     31 F          -4.2632  -19.9228   22.8047 F       1  UNL1       -0.2011
     32 O          -1.2034  -17.8568   18.0752 O.3     1  UNL1       -0.4691
     33 C          -1.9357  -17.4159   16.8425 C.3     1  UNL1        0.2526
     34 O          -4.5584  -21.2506   20.1308 O.3     1  UNL1       -0.4691
     35 C          -6.0420  -21.0741   20.2635 C.3     1  UNL1        0.2526
@<TRIPOS>BOND
     1    20    21    2
     2    21    16    1
     3    16    17    2
     4    16    18   am
     5    18     9    1
     6     9    10   ar
     7    10    11   ar
     8    11    12   ar
     9    12    13   ar
    10    13    14    1
    11    13    15   ar
    12    15     7    1
    13     7     1    1
    14     1     2   ar
    15     2     3   ar
    16     3     4   ar
    17     4    22    1
    18    22    23    1
    19    23    24    1
    20    24    25   ar
    21    25    26    1
    22    25    27   ar
    23    27    32    1
    24    32    33    1
    25    27    28   ar
    26    28    29   ar
    27    29    34    1
    28    34    35    1
    29    29    30   ar
    30    30    31    1
    31     4     5   ar
    32     5     6   ar
    33    15     9   ar
    34     6     1   ar
    35    30    24   ar
    36    18    19    1
    37     7     8    1
@<TRIPOS>MOLECULE
*****
 35 37 0 0 0
SMALL
GASTEIGER

@<TRIPOS>ATOM
      1 C          -0.5932    2.7332   19.7191 C.ar    1  UNL1        0.2209
      2 N           0.1903    2.3150   18.5102 N.ar    1  UNL1       -0.2088
      3 C           0.9720    1.0349   18.5292 C.ar    1  UNL1        0.1402
      4 C           0.9702    0.1731   19.7569 C.ar    1  UNL1        0.1773
      5 C           0.1867    0.5913   20.9657 C.ar    1  UNL1        0.1402
      6 N          -0.5950    1.8714   20.9468 N.ar    1  UNL1       -0.2088
      7 N          -1.3749    4.0133   19.7002 N.pl3   1  UNL1       -0.2818
      8 H          -0.9900    4.8310   20.0905 H       1  UNL1        0.1551
      9 C          -3.9255    3.5456   19.8613 C.ar    1  UNL1        0.0639
     10 C          -5.2938    3.5798   19.2476 C.ar    1  UNL1        0.0159
     11 C          -5.4798    4.1158   17.8590 C.ar    1  UNL1        0.0010
     12 C          -4.2975    4.6176   17.0842 C.ar    1  UNL1       -0.0030
     13 C          -2.9293    4.5834   17.6979 C.ar    1  UNL1       -0.0072
     14 C          -1.7469    5.0853   16.9230 C.3     1  UNL1        0.0324
     15 C          -2.7433    4.0475   19.0865 C.ar    1  UNL1        0.0601
     16 C          -4.0558    3.8724   22.4354 C.2     1  UNL1        0.2497
     17 O          -4.5581    5.2712   22.2325 O.2     1  UNL1       -0.2698
     18 N          -3.7395    3.0097   21.2499 N.am    1  UNL1       -0.2794
     19 H          -3.4099    2.0916   21.3831 H       1  UNL1        0.1552
     20 C          -4.8922    3.6259   24.8829 C.2     1  UNL1        0.0048
     21 C          -3.8698    3.3364   23.8240 C.2     1  UNL1        0.0580
     22 O           1.7519   -1.1070   19.7759 O.3     1  UNL1       -0.4673
     23 C           2.9358   -1.2494   20.6860 C.3     1  UNL1        0.2368
     24 C           4.2436   -1.7445   20.1434 C.ar    1  UNL1        0.0821
     25 C           4.9491   -2.8866   20.8125 C.ar    1  UNL1        0.1757
     26 F           4.3468   -3.5336   22.0243 F       1  UNL1       -0.2011
     27 C           6.2570   -3.3816   20.2699 C.ar    1  UNL1        0.1689
     28 C           6.8593   -2.7346   19.0581 C.ar    1  UNL1        0.0784
     29 C           6.1538   -1.5924   18.3889 C.ar    1  UNL1        0.1689
     30 C           4.8460   -1.0974   18.9315 C.ar    1  UNL1        0.1757
     31 F           4.1405    0.0447   18.2624 F       1  UNL1       -0.2011
     32 O           6.9625   -4.5237   20.9390 O.3     1  UNL1       -0.4691
     33 C           7.7214   -4.2940   22.2124 C.3     1  UNL1        0.2526
     34 O           6.7562   -0.9454   17.1771 O.3     1  UNL1       -0.4691
     35 C           7.1075    0.5127   17.2019 C.3     1  UNL1        0.2526
@<TRIPOS>BOND
     1    20    21    2
     2    21    16    1
     3    16    17    2
     4    16    18   am
     5    18     9    1
     6     9    10   ar
     7    10    11   ar
     8    11    12   ar
     9    12    13   ar
    10    13    14    1
    11    13    15   ar
    12    15     7    1
    13     7     1    1
    14     1     2   ar
    15     2     3   ar
    16     3     4   ar
    17     4    22    1
    18    22    23    1
    19    23    24    1
    20    24    25   ar
    21    25    26    1
    22    25    27   ar
    23    27    32    1
    24    32    33    1
    25    27    28   ar
    26    28    29   ar
    27    29    34    1
    28    34    35    1
    29    29    30   ar
    30    30    31    1
    31     4     5   ar
    32     5     6   ar
    33    15     9   ar
    34     6     1   ar
    35    30    24   ar
    36    18    19    1
    37     7     8    1
