@<TRIPOS>MOLECULE
*****
 28 32 0 0 0
SMALL
GASTEIGER

@<TRIPOS>ATOM
      1 N          -5.4649  -17.3526   22.6900 N.ar    1  UNL1       -0.2954
      2 C          -6.4376  -18.4848   22.5423 C.ar    1  UNL1        0.2014
      3 N          -5.6909  -19.6706   22.0071 N.ar    1  UNL1       -0.2136
      4 C          -4.2567  -19.2712   21.8241 C.ar    1  UNL1        0.0999
      5 C          -3.0599  -20.0270   21.3276 C.ar    1  UNL1        0.0207
      6 C          -1.7234  -19.3501   21.2532 C.ar    1  UNL1        0.0016
      7 C          -1.5837  -17.9175   21.6753 C.ar    1  UNL1        0.0016
      8 C          -2.7805  -17.1617   22.1717 C.ar    1  UNL1        0.0188
      9 C          -4.1170  -17.8386   22.2461 C.ar    1  UNL1        0.0801
     10 N          -7.9003  -18.4393   22.8719 N.pl3   1  UNL1       -0.2794
     11 C          -8.8386  -17.6460   22.0115 C.3     1  UNL1        0.0955
     12 C         -10.3012  -17.6005   22.3411 C.3     1  UNL1        0.0459
     13 C         -10.8255  -18.3482   23.5310 C.3     1  UNL1        0.1086
     14 C          -9.8872  -19.1415   24.3914 C.3     1  UNL1        0.0459
     15 C          -8.4246  -19.1870   24.0618 C.3     1  UNL1        0.0955
     16 N         -12.2882  -18.3026   23.8606 N.ar    1  UNL1       -0.2512
     17 C         -13.3847  -17.8463   22.9444 C.ar    1  UNL1        0.0966
     18 C         -14.6853  -17.9670   23.6818 C.ar    1  UNL1        0.0427
     19 C         -14.3927  -18.4981   25.0538 C.ar    1  UNL1        0.1217
     20 N         -12.9112  -18.7055   25.1643 N.ar    1  UNL1       -0.1677
     21 C          -5.7840  -15.9760   23.1932 C.3     1  UNL1        0.1354
     22 F          -8.8586  -15.2860   28.2991 F       1  UNL1       -0.2042
     23 C          -8.0900  -15.4585   27.0226 C.ar    1  UNL1        0.1401
     24 C          -6.6059  -15.6729   27.0640 C.ar    1  UNL1        0.0294
     25 C          -5.8373  -15.8454   25.7875 C.ar    1  UNL1       -0.0001
     26 C          -6.5526  -15.8035   24.4696 C.ar    1  UNL1        0.0006
     27 C          -8.0367  -15.5891   24.4284 C.ar    1  UNL1       -0.0001
     28 C          -8.8053  -15.4166   25.7049 C.ar    1  UNL1        0.0294
@<TRIPOS>BOND
     1    22    23    1
     2    23    24   ar
     3    24    25   ar
     4    25    26   ar
     5    26    21    1
     6    21     1    1
     7     1     2   ar
     8     2    10    1
     9    10    11    1
    10    11    12    1
    11    12    13    1
    12    13    16    1
    13    16    17   ar
    14    17    18   ar
    15    18    19   ar
    16    19    20   ar
    17    13    14    1
    18    14    15    1
    19     2     3   ar
    20     3     4   ar
    21     4     5   ar
    22     5     6   ar
    23     6     7   ar
    24     7     8   ar
    25     8     9   ar
    26    26    27   ar
    27    27    28   ar
    28    28    23   ar
    29     9     1   ar
    30    15    10    1
    31     9     4   ar
    32    20    16   ar
@<TRIPOS>MOLECULE
*****
 28 32 0 0 0
SMALL
GASTEIGER

@<TRIPOS>ATOM
      1 N          -5.6021  -19.6679   21.6230 N.ar    1  UNL1       -0.2954
      2 C          -6.2773  -18.5402   22.3459 C.ar    1  UNL1        0.2014
      3 N          -5.2577  -17.4663   22.5846 N.ar    1  UNL1       -0.2136
      4 C          -3.9524  -17.9302   22.0093 C.ar    1  UNL1        0.0999
      5 C          -2.5975  -17.2894   21.9498 C.ar    1  UNL1        0.0207
      6 C          -1.4554  -18.0093   21.2960 C.ar    1  UNL1        0.0016
      7 C          -1.6683  -19.3700   20.7017 C.ar    1  UNL1        0.0016
      8 C          -3.0232  -20.0108   20.7612 C.ar    1  UNL1        0.0188
      9 C          -4.1652  -19.2909   21.4150 C.ar    1  UNL1        0.0801
     10 N          -7.7189  -18.4945   22.7577 N.pl3   1  UNL1       -0.2794
     11 C          -8.4534  -17.1868   22.7733 C.3     1  UNL1        0.0955
     12 C          -9.8950  -17.1411   23.1851 C.3     1  UNL1        0.0459
     13 C         -10.6022  -18.4032   23.5813 C.3     1  UNL1        0.1086
     14 C          -9.8678  -19.7109   23.5657 C.3     1  UNL1        0.0459
     15 C          -8.4261  -19.7566   23.1539 C.3     1  UNL1        0.0955
     16 N         -12.0438  -18.3575   23.9931 N.ar    1  UNL1       -0.2512
     17 C         -13.1860  -17.8697   23.1520 C.ar    1  UNL1        0.0966
     18 C         -14.4445  -18.0023   23.9574 C.ar    1  UNL1        0.0427
     19 C         -14.0801  -18.5720   25.2963 C.ar    1  UNL1        0.1217
     20 N         -12.5964  -18.7915   25.3184 N.ar    1  UNL1       -0.1677
     21 C          -6.2501  -20.9479   21.1851 C.3     1  UNL1        0.1354
     22 F          -9.8488  -20.9996   16.3845 F       1  UNL1       -0.2042
     23 C          -8.9491  -20.9867   17.5846 C.ar    1  UNL1        0.1401
     24 C          -8.8898  -19.7733   18.4645 C.ar    1  UNL1        0.0294
     25 C          -7.9901  -19.7604   19.6646 C.ar    1  UNL1       -0.0001
     26 C          -7.1497  -20.9609   19.9850 C.ar    1  UNL1        0.0006
     27 C          -7.2090  -22.1742   19.1051 C.ar    1  UNL1       -0.0001
     28 C          -8.1087  -22.1871   17.9050 C.ar    1  UNL1        0.0294
@<TRIPOS>BOND
     1    22    23    1
     2    23    24   ar
     3    24    25   ar
     4    25    26   ar
     5    26    21    1
     6    21     1    1
     7     1     2   ar
     8     2    10    1
     9    10    11    1
    10    11    12    1
    11    12    13    1
    12    13    16    1
    13    16    17   ar
    14    17    18   ar
    15    18    19   ar
    16    19    20   ar
    17    13    14    1
    18    14    15    1
    19     2     3   ar
    20     3     4   ar
    21     4     5   ar
    22     5     6   ar
    23     6     7   ar
    24     7     8   ar
    25     8     9   ar
    26    26    27   ar
    27    27    28   ar
    28    28    23   ar
    29     9     1   ar
    30    15    10    1
    31     9     4   ar
    32    20    16   ar
@<TRIPOS>MOLECULE
*****
 28 32 0 0 0
SMALL
GASTEIGER

@<TRIPOS>ATOM
      1 N           1.3447    4.9636   35.8197 N.ar    1  UNL1       -0.2954
      2 C           1.5430    4.3986   34.4444 C.ar    1  UNL1        0.2014
      3 N           0.5214    5.0178   33.5373 N.ar    1  UNL1       -0.2136
      4 C          -0.3083    5.9654   34.3520 C.ar    1  UNL1        0.0999
      5 C          -1.4613    6.8545   33.9915 C.ar    1  UNL1        0.0207
      6 C          -2.1055    7.7101   35.0417 C.ar    1  UNL1        0.0016
      7 C          -1.5966    7.6766   36.4524 C.ar    1  UNL1        0.0016
      8 C          -0.4436    6.7875   36.8128 C.ar    1  UNL1        0.0188
      9 C           0.2006    5.9319   35.7626 C.ar    1  UNL1        0.0801
     10 N           2.5806    3.3912   34.0462 N.pl3   1  UNL1       -0.2794
     11 C           4.0358    3.7506   34.1038 C.3     1  UNL1        0.0955
     12 C           5.0734    2.7433   33.7056 C.3     1  UNL1        0.0459
     13 C           4.6559    1.3766   33.2497 C.3     1  UNL1        0.1086
     14 C           3.2008    1.0173   33.1921 C.3     1  UNL1        0.0459
     15 C           2.1631    2.0246   33.5903 C.3     1  UNL1        0.0955
     16 N           5.6936    0.3693   32.8515 N.ar    1  UNL1       -0.2512
     17 C           6.0258   -0.8934   33.5899 C.ar    1  UNL1        0.0966
     18 C           7.1187   -1.5953   32.8397 C.ar    1  UNL1        0.0427
     19 C           7.4620   -0.7664   31.6376 C.ar    1  UNL1        0.1217
     20 N           6.5812    0.4478   31.6449 N.ar    1  UNL1       -0.1677
     21 C           2.1493    4.6204   37.0383 C.3     1  UNL1        0.1354
     22 F           1.2299   -0.5876   39.8721 F       1  UNL1       -0.2042
     23 C           1.4598    0.7144   39.1636 C.ar    1  UNL1        0.1401
     24 C           0.4708    1.8327   39.3101 C.ar    1  UNL1        0.0294
     25 C           0.7007    3.1347   38.6017 C.ar    1  UNL1       -0.0001
     26 C           1.9195    3.3185   37.7467 C.ar    1  UNL1        0.0006
     27 C           2.9084    2.2001   37.6003 C.ar    1  UNL1       -0.0001
     28 C           2.6785    0.8981   38.3087 C.ar    1  UNL1        0.0294
@<TRIPOS>BOND
     1    22    23    1
     2    23    24   ar
     3    24    25   ar
     4    25    26   ar
     5    26    21    1
     6    21     1    1
     7     1     2   ar
     8     2    10    1
     9    10    11    1
    10    11    12    1
    11    12    13    1
    12    13    16    1
    13    16    17   ar
    14    17    18   ar
    15    18    19   ar
    16    19    20   ar
    17    13    14    1
    18    14    15    1
    19     2     3   ar
    20     3     4   ar
    21     4     5   ar
    22     5     6   ar
    23     6     7   ar
    24     7     8   ar
    25     8     9   ar
    26    26    27   ar
    27    27    28   ar
    28    28    23   ar
    29     9     1   ar
    30    15    10    1
    31     9     4   ar
    32    20    16   ar
@<TRIPOS>MOLECULE
*****
 28 32 0 0 0
SMALL
GASTEIGER

@<TRIPOS>ATOM
      1 N           7.7082   -4.0501   24.7019 N.ar    1  UNL1       -0.2954
      2 C           7.2707   -4.6119   23.3817 C.ar    1  UNL1        0.2014
      3 N           7.6398   -6.0655   23.3514 N.ar    1  UNL1       -0.2136
      4 C           8.3053   -6.4020   24.6528 C.ar    1  UNL1        0.0999
      5 C           8.8783   -7.6817   25.1857 C.ar    1  UNL1        0.0207
      6 C           9.4935   -7.7159   26.5533 C.ar    1  UNL1        0.0016
      7 C           9.5359   -6.4703   27.3879 C.ar    1  UNL1        0.0016
      8 C           8.9629   -5.1905   26.8551 C.ar    1  UNL1        0.0188
      9 C           8.3476   -5.1564   25.4875 C.ar    1  UNL1        0.0801
     10 N           6.5847   -3.8533   22.2844 N.pl3   1  UNL1       -0.2794
     11 C           7.3968   -3.1253   21.2547 C.3     1  UNL1        0.0955
     12 C           6.7108   -2.3667   20.1575 C.3     1  UNL1        0.0459
     13 C           5.2126   -2.3362   20.0900 C.3     1  UNL1        0.1086
     14 C           4.4005   -3.0643   21.1197 C.3     1  UNL1        0.0459
     15 C           5.0866   -3.8228   22.2169 C.3     1  UNL1        0.0955
     16 N           4.5266   -1.5777   18.9927 N.ar    1  UNL1       -0.2512
     17 C           3.5256   -0.4755   19.1752 C.ar    1  UNL1        0.0966
     18 C           3.1014   -0.0047   17.8156 C.ar    1  UNL1        0.0427
     19 C           3.8403   -0.8159   16.7928 C.ar    1  UNL1        0.1217
     20 N           4.7211   -1.7880   17.5203 N.ar    1  UNL1       -0.1677
     21 C           7.5365   -2.6310   25.1567 C.3     1  UNL1        0.1354
     22 F           2.5196   -0.9789   28.0028 F       1  UNL1       -0.2042
     23 C           3.7738   -1.3920   27.2913 C.ar    1  UNL1        0.1401
     24 C           3.8485   -1.3117   25.7953 C.ar    1  UNL1        0.0294
     25 C           5.1027   -1.7247   25.0838 C.ar    1  UNL1       -0.0001
     26 C           6.2823   -2.2180   25.8682 C.ar    1  UNL1        0.0006
     27 C           6.2076   -2.2983   27.3642 C.ar    1  UNL1       -0.0001
     28 C           4.9533   -1.8853   28.0757 C.ar    1  UNL1        0.0294
@<TRIPOS>BOND
     1    22    23    1
     2    23    24   ar
     3    24    25   ar
     4    25    26   ar
     5    26    21    1
     6    21     1    1
     7     1     2   ar
     8     2    10    1
     9    10    11    1
    10    11    12    1
    11    12    13    1
    12    13    16    1
    13    16    17   ar
    14    17    18   ar
    15    18    19   ar
    16    19    20   ar
    17    13    14    1
    18    14    15    1
    19     2     3   ar
    20     3     4   ar
    21     4     5   ar
    22     5     6   ar
    23     6     7   ar
    24     7     8   ar
    25     8     9   ar
    26    26    27   ar
    27    27    28   ar
    28    28    23   ar
    29     9     1   ar
    30    15    10    1
    31     9     4   ar
    32    20    16   ar
@<TRIPOS>MOLECULE
*****
 28 32 0 0 0
SMALL
GASTEIGER

@<TRIPOS>ATOM
      1 N           3.1447    0.8621   18.6471 N.ar    1  UNL1       -0.2954
      2 C           2.5715    2.2198   18.9266 C.ar    1  UNL1        0.2014
      3 N           3.5392    3.2456   18.4155 N.ar    1  UNL1       -0.2136
      4 C           4.7105    2.5219   17.8202 C.ar    1  UNL1        0.0999
      5 C           5.9675    3.0140   17.1663 C.ar    1  UNL1        0.0207
      6 C           6.9807    2.0330   16.6554 C.ar    1  UNL1        0.0016
      7 C           6.7369    0.5599   16.7986 C.ar    1  UNL1        0.0016
      8 C           5.4798    0.0678   17.4525 C.ar    1  UNL1        0.0188
      9 C           4.4666    1.0488   17.9633 C.ar    1  UNL1        0.0801
     10 N           1.2607    2.5021   19.5991 N.pl3   1  UNL1       -0.2794
     11 C           0.1229    3.0806   18.8113 C.3     1  UNL1        0.0955
     12 C          -1.1879    3.3629   19.4838 C.3     1  UNL1        0.0459
     13 C          -1.3608    3.0667   20.9440 C.3     1  UNL1        0.1086
     14 C          -0.2229    2.4883   21.7318 C.3     1  UNL1        0.0459
     15 C           1.0878    2.2060   21.0593 C.3     1  UNL1        0.0955
     16 N          -2.6715    3.3490   21.6165 N.ar    1  UNL1       -0.2512
     17 C          -2.8619    4.1232   22.8871 C.ar    1  UNL1        0.0966
     18 C          -4.3301    4.1594   23.1923 C.ar    1  UNL1        0.0427
     19 C          -5.0471    3.4075   22.1104 C.ar    1  UNL1        0.1217
     20 N          -4.0221    2.9067   21.1365 N.ar    1  UNL1       -0.1677
     21 C           2.5077   -0.4517   18.9910 C.3     1  UNL1        0.1354
     22 F           5.0076   -4.0063   23.1280 F       1  UNL1       -0.2042
     23 C           4.3826   -3.1176   22.0938 C.ar    1  UNL1        0.1401
     24 C           4.3147   -3.5642   20.6634 C.ar    1  UNL1        0.0294
     25 C           3.6898   -2.6755   19.6292 C.ar    1  UNL1       -0.0001
     26 C           3.1327   -1.3403   20.0252 C.ar    1  UNL1        0.0006
     27 C           3.2006   -0.8937   21.4556 C.ar    1  UNL1       -0.0001
     28 C           3.8256   -1.7824   22.4899 C.ar    1  UNL1        0.0294
@<TRIPOS>BOND
     1    22    23    1
     2    23    24   ar
     3    24    25   ar
     4    25    26   ar
     5    26    21    1
     6    21     1    1
     7     1     2   ar
     8     2    10    1
     9    10    11    1
    10    11    12    1
    11    12    13    1
    12    13    16    1
    13    16    17   ar
    14    17    18   ar
    15    18    19   ar
    16    19    20   ar
    17    13    14    1
    18    14    15    1
    19     2     3   ar
    20     3     4   ar
    21     4     5   ar
    22     5     6   ar
    23     6     7   ar
    24     7     8   ar
    25     8     9   ar
    26    26    27   ar
    27    27    28   ar
    28    28    23   ar
    29     9     1   ar
    30    15    10    1
    31     9     4   ar
    32    20    16   ar
@<TRIPOS>MOLECULE
*****
 28 32 0 0 0
SMALL
GASTEIGER

@<TRIPOS>ATOM
      1 N          -2.0337    3.6634   22.3378 N.ar    1  UNL1       -0.2954
      2 C          -1.9468    3.0395   20.9766 C.ar    1  UNL1        0.2014
      3 N          -3.3299    2.9959   20.3976 N.ar    1  UNL1       -0.2136
      4 C          -4.2715    3.5929   21.4011 C.ar    1  UNL1        0.0999
      5 C          -5.7549    3.8142   21.3778 C.ar    1  UNL1        0.0207
      6 C          -6.4372    4.4480   22.5537 C.ar    1  UNL1        0.0016
      7 C          -5.6360    4.8605   23.7528 C.ar    1  UNL1        0.0016
      8 C          -4.1527    4.6393   23.7761 C.ar    1  UNL1        0.0188
      9 C          -3.4704    4.0055   22.6002 C.ar    1  UNL1        0.0801
     10 N          -0.6965    2.5458   20.3111 N.pl3   1  UNL1       -0.2794
     11 C          -0.0325    3.3756   19.2526 C.3     1  UNL1        0.0955
     12 C           1.2179    2.8819   18.5871 C.3     1  UNL1        0.0459
     13 C           1.8043    1.5584   18.9801 C.3     1  UNL1        0.1086
     14 C           1.1402    0.7286   20.0386 C.3     1  UNL1        0.0459
     15 C          -0.1101    1.2223   20.7041 C.3     1  UNL1        0.0955
     16 N           3.0546    1.0647   18.3146 N.ar    1  UNL1       -0.2512
     17 C           4.3748    1.7759   18.2802 C.ar    1  UNL1        0.0966
     18 C           5.3405    0.9239   17.5110 C.ar    1  UNL1        0.0427
     19 C           4.6171   -0.3139   17.0701 C.ar    1  UNL1        0.1217
     20 N           3.2043   -0.2269   17.5668 N.ar    1  UNL1       -0.1677
     21 C          -0.8854    3.9032   23.2727 C.3     1  UNL1        0.1354
     22 F          -0.1632    0.4087   28.0962 F       1  UNL1       -0.2042
     23 C          -0.3437    1.2823   26.8903 C.ar    1  UNL1        0.1401
     24 C          -1.2588    2.4692   26.9543 C.ar    1  UNL1        0.0294
     25 C          -1.4393    3.3428   25.7484 C.ar    1  UNL1       -0.0001
     26 C          -0.7048    3.0296   24.4785 C.ar    1  UNL1        0.0006
     27 C           0.2102    1.8428   24.4146 C.ar    1  UNL1       -0.0001
     28 C           0.3907    0.9692   25.6205 C.ar    1  UNL1        0.0294
@<TRIPOS>BOND
     1    22    23    1
     2    23    24   ar
     3    24    25   ar
     4    25    26   ar
     5    26    21    1
     6    21     1    1
     7     1     2   ar
     8     2    10    1
     9    10    11    1
    10    11    12    1
    11    12    13    1
    12    13    16    1
    13    16    17   ar
    14    17    18   ar
    15    18    19   ar
    16    19    20   ar
    17    13    14    1
    18    14    15    1
    19     2     3   ar
    20     3     4   ar
    21     4     5   ar
    22     5     6   ar
    23     6     7   ar
    24     7     8   ar
    25     8     9   ar
    26    26    27   ar
    27    27    28   ar
    28    28    23   ar
    29     9     1   ar
    30    15    10    1
    31     9     4   ar
    32    20    16   ar
@<TRIPOS>MOLECULE
*****
 28 32 0 0 0
SMALL
GASTEIGER

@<TRIPOS>ATOM
      1 N           6.2071   -2.3479   30.0523 N.ar    1  UNL1       -0.2954
      2 C           6.3249   -2.8208   31.4709 C.ar    1  UNL1        0.2014
      3 N           6.7459   -4.2603   31.4462 N.ar    1  UNL1       -0.2136
      4 C           6.8883   -4.6771   30.0123 C.ar    1  UNL1        0.0999
      5 C           7.2782   -5.9801   29.3798 C.ar    1  UNL1        0.0207
      6 C           7.3351   -6.1012   27.8858 C.ar    1  UNL1        0.0016
      7 C           7.0022   -4.9192   27.0243 C.ar    1  UNL1        0.0016
      8 C           6.6123   -3.6162   27.6568 C.ar    1  UNL1        0.0188
      9 C           6.5553   -3.4951   29.1508 C.ar    1  UNL1        0.0801
     10 N           6.0669   -1.9986   32.6987 N.pl3   1  UNL1       -0.2794
     11 C           7.1114   -1.0431   33.1946 C.3     1  UNL1        0.0955
     12 C           6.8534   -0.2209   34.4223 C.3     1  UNL1        0.0459
     13 C           5.5509   -0.3542   35.1542 C.3     1  UNL1        0.1086
     14 C           4.5064   -1.3096   34.6583 C.3     1  UNL1        0.0459
     15 C           4.7644   -2.1319   33.4306 C.3     1  UNL1        0.0955
     16 N           5.2930    0.4681   36.3820 N.ar    1  UNL1       -0.2512
     17 C           6.2732    1.3857   37.0506 C.ar    1  UNL1        0.0966
     18 C           5.5955    2.0018   38.2386 C.ar    1  UNL1        0.0427
     19 C           4.1964    1.4649   38.3042 C.ar    1  UNL1        0.1217
     20 N           4.0095    0.5170   37.1567 N.ar    1  UNL1       -0.1677
     21 C           5.8107   -0.9698   29.6124 C.3     1  UNL1        0.1354
     22 F           0.0323    0.6453   29.6485 F       1  UNL1       -0.2042
     23 C           1.4769    0.2415   29.6395 C.ar    1  UNL1        0.1401
     24 C           2.0515   -0.4622   28.4458 C.ar    1  UNL1        0.0294
     25 C           3.4961   -0.8659   28.4368 C.ar    1  UNL1       -0.0001
     26 C           4.3662   -0.5660   29.6214 C.ar    1  UNL1        0.0006
     27 C           3.7915    0.1377   30.8150 C.ar    1  UNL1       -0.0001
     28 C           2.3469    0.5414   30.8240 C.ar    1  UNL1        0.0294
@<TRIPOS>BOND
     1    22    23    1
     2    23    24   ar
     3    24    25   ar
     4    25    26   ar
     5    26    21    1
     6    21     1    1
     7     1     2   ar
     8     2    10    1
     9    10    11    1
    10    11    12    1
    11    12    13    1
    12    13    16    1
    13    16    17   ar
    14    17    18   ar
    15    18    19   ar
    16    19    20   ar
    17    13    14    1
    18    14    15    1
    19     2     3   ar
    20     3     4   ar
    21     4     5   ar
    22     5     6   ar
    23     6     7   ar
    24     7     8   ar
    25     8     9   ar
    26    26    27   ar
    27    27    28   ar
    28    28    23   ar
    29     9     1   ar
    30    15    10    1
    31     9     4   ar
    32    20    16   ar
@<TRIPOS>MOLECULE
*****
 28 32 0 0 0
SMALL
GASTEIGER

@<TRIPOS>ATOM
      1 N           5.1840   -1.6800   20.5836 N.ar    1  UNL1       -0.2954
      2 C           6.4506   -1.9024   21.3558 C.ar    1  UNL1        0.2014
      3 N           7.5826   -1.3100   20.5698 N.ar    1  UNL1       -0.2136
      4 C           7.0156   -0.7216   19.3119 C.ar    1  UNL1        0.0999
      5 C           7.6576   -0.0072   18.1599 C.ar    1  UNL1        0.0207
      6 C           6.8172    0.4787   17.0164 C.ar    1  UNL1        0.0016
      7 C           5.3347    0.2500   17.0249 C.ar    1  UNL1        0.0016
      8 C           4.6927   -0.4645   18.1770 C.ar    1  UNL1        0.0188
      9 C           5.5331   -0.9503   19.3205 C.ar    1  UNL1        0.0801
     10 N           6.5651   -2.5954   22.6812 N.pl3   1  UNL1       -0.2794
     11 C           7.0625   -4.0089   22.7479 C.3     1  UNL1        0.0955
     12 C           7.1771   -4.7019   24.0733 C.3     1  UNL1        0.0459
     13 C           6.7942   -3.9813   25.3319 C.3     1  UNL1        0.1086
     14 C           6.2968   -2.5678   25.2652 C.3     1  UNL1        0.0459
     15 C           6.1823   -1.8748   23.9398 C.3     1  UNL1        0.0955
     16 N           6.9087   -4.6743   26.6573 N.ar    1  UNL1       -0.2512
     17 C           7.7566   -5.8757   26.9538 C.ar    1  UNL1        0.0966
     18 C           7.5674   -6.2315   28.3986 C.ar    1  UNL1        0.0427
     19 C           6.6026   -5.2501   28.9952 C.ar    1  UNL1        0.1217
     20 N           6.1955   -4.2877   27.9190 N.ar    1  UNL1       -0.1677
     21 C           3.8095   -2.1116   21.0013 C.3     1  UNL1        0.1354
     22 F          -0.5032    1.9803   21.8122 F       1  UNL1       -0.2042
     23 C           0.5750    0.9573   21.6095 C.ar    1  UNL1        0.1401
     24 C           1.6742    0.8158   22.6203 C.ar    1  UNL1        0.0294
     25 C           2.7523   -0.2072   22.4175 C.ar    1  UNL1       -0.0001
     26 C           2.7313   -1.0887   21.2040 C.ar    1  UNL1        0.0006
     27 C           1.6321   -0.9471   20.1932 C.ar    1  UNL1       -0.0001
     28 C           0.5539    0.0759   20.3960 C.ar    1  UNL1        0.0294
@<TRIPOS>BOND
     1    22    23    1
     2    23    24   ar
     3    24    25   ar
     4    25    26   ar
     5    26    21    1
     6    21     1    1
     7     1     2   ar
     8     2    10    1
     9    10    11    1
    10    11    12    1
    11    12    13    1
    12    13    16    1
    13    16    17   ar
    14    17    18   ar
    15    18    19   ar
    16    19    20   ar
    17    13    14    1
    18    14    15    1
    19     2     3   ar
    20     3     4   ar
    21     4     5   ar
    22     5     6   ar
    23     6     7   ar
    24     7     8   ar
    25     8     9   ar
    26    26    27   ar
    27    27    28   ar
    28    28    23   ar
    29     9     1   ar
    30    15    10    1
    31     9     4   ar
    32    20    16   ar
@<TRIPOS>MOLECULE
*****
 28 32 0 0 0
SMALL
GASTEIGER

@<TRIPOS>ATOM
      1 N           4.0088    1.4509   34.8002 N.ar    1  UNL1       -0.2954
      2 C           4.6094    0.1259   35.1657 C.ar    1  UNL1        0.2014
      3 N           4.3270   -0.1264   36.6171 N.ar    1  UNL1       -0.2136
      4 C           3.5517    1.0426   37.1486 C.ar    1  UNL1        0.0999
      5 C           2.9995    1.3453   38.5099 C.ar    1  UNL1        0.0207
      6 C           2.2506    2.6229   38.7484 C.ar    1  UNL1        0.0016
      7 C           2.0539    3.5978   37.6254 C.ar    1  UNL1        0.0016
      8 C           2.6062    3.2950   36.2641 C.ar    1  UNL1        0.0188
      9 C           3.3551    2.0175   36.0257 C.ar    1  UNL1        0.0801
     10 N           5.3607   -0.7865   34.2421 N.pl3   1  UNL1       -0.2794
     11 C           4.6647   -1.9582   33.6155 C.3     1  UNL1        0.0955
     12 C           5.4160   -2.8706   32.6919 C.3     1  UNL1        0.0459
     13 C           6.8632   -2.6113   32.3948 C.3     1  UNL1        0.1086
     14 C           7.5591   -1.4396   33.0213 C.3     1  UNL1        0.0459
     15 C           6.8079   -0.5272   33.9450 C.3     1  UNL1        0.0955
     16 N           7.6144   -3.5237   31.4711 N.ar    1  UNL1       -0.2512
     17 C           9.0941   -3.7692   31.4852 C.ar    1  UNL1        0.0966
     18 C           9.4121   -4.7481   30.3940 C.ar    1  UNL1        0.0427
     19 C           8.1288   -5.1075   29.7054 C.ar    1  UNL1        0.1217
     20 N           7.0179   -4.3508   30.3711 N.ar    1  UNL1       -0.1677
     21 C           4.0539    2.0961   33.4468 C.3     1  UNL1        0.1354
     22 F          -0.3817    1.1445   29.5200 F       1  UNL1       -0.2042
     23 C           0.7271    1.3824   30.5017 C.ar    1  UNL1        0.1401
     24 C           1.9948    0.5858   30.4089 C.ar    1  UNL1        0.0294
     25 C           3.1036    0.8237   31.3906 C.ar    1  UNL1       -0.0001
     26 C           2.9450    1.8583   32.4652 C.ar    1  UNL1        0.0006
     27 C           1.6773    2.6548   32.5580 C.ar    1  UNL1       -0.0001
     28 C           0.5685    2.4169   31.5763 C.ar    1  UNL1        0.0294
@<TRIPOS>BOND
     1    22    23    1
     2    23    24   ar
     3    24    25   ar
     4    25    26   ar
     5    26    21    1
     6    21     1    1
     7     1     2   ar
     8     2    10    1
     9    10    11    1
    10    11    12    1
    11    12    13    1
    12    13    16    1
    13    16    17   ar
    14    17    18   ar
    15    18    19   ar
    16    19    20   ar
    17    13    14    1
    18    14    15    1
    19     2     3   ar
    20     3     4   ar
    21     4     5   ar
    22     5     6   ar
    23     6     7   ar
    24     7     8   ar
    25     8     9   ar
    26    26    27   ar
    27    27    28   ar
    28    28    23   ar
    29     9     1   ar
    30    15    10    1
    31     9     4   ar
    32    20    16   ar
