@<TRIPOS>MOLECULE
*****
 34 37 0 0 0
SMALL
GASTEIGER

@<TRIPOS>ATOM
      1 C          -8.8448  -17.7396   22.0930 C.3     1  UNL1        0.1518
      2 N          -7.9906  -18.7166   21.3408 N.2     1  UNL1       -0.2172
      3 C          -8.3461  -19.5346   20.1347 C.2     1  UNL1        0.2843
      4 N          -9.6434  -19.5775   19.3829 N.pl3   1  UNL1       -0.2584
      5 C          -9.6837  -20.5079   18.2071 C.3     1  UNL1        0.1169
      6 C         -10.9056  -18.8130   19.6516 C.3     1  UNL1        0.1216
      7 C         -11.1824  -17.8168   20.7384 C.ar    1  UNL1       -0.0041
      8 C         -12.5810  -17.2822   20.6485 C.ar    1  UNL1       -0.0029
      9 C         -13.0624  -16.2698   21.6451 C.ar    1  UNL1       -0.0003
     10 C         -12.1452  -15.7921   22.7316 C.ar    1  UNL1       -0.0003
     11 C         -10.7466  -16.3267   22.8215 C.ar    1  UNL1       -0.0023
     12 C         -10.2652  -17.3391   21.8249 C.ar    1  UNL1        0.0018
     13 C          -6.8868  -15.7460   25.6203 C.ar    1  UNL1        0.0252
     14 C          -8.2514  -16.3517   25.7634 C.ar    1  UNL1        0.0059
     15 C          -8.9042  -17.0162   24.5877 C.ar    1  UNL1       -0.0016
     16 C          -8.1921  -17.0750   23.2687 C.ar    1  UNL1        0.0041
     17 C          -6.8273  -16.4692   23.1256 C.ar    1  UNL1       -0.0016
     18 C          -6.1746  -15.8047   24.3014 C.ar    1  UNL1        0.0059
     19 C          -7.0480  -14.7298   28.0059 C.3     1  UNL1        0.0742
     20 S          -6.2340  -15.0814   26.7960 S.3     1  UNL1       -0.1127
     21 O          -7.2606  -20.4278   19.6112 O.2     1  UNL1       -0.4449
     22 C          -6.2717  -21.0406   20.5580 C.3     1  UNL1        0.2350
     23 C          -4.9828  -20.3341   20.8572 C.ar    1  UNL1        0.0213
     24 C          -3.8707  -20.3443   19.8505 C.ar    1  UNL1        0.0006
     25 C          -2.5818  -19.6379   20.1496 C.ar    1  UNL1        0.0156
     26 C          -2.4048  -18.9212   21.4554 C.ar    1  UNL1        0.0644
     27 C          -3.5168  -18.9109   22.4620 C.ar    1  UNL1        0.0156
     28 C          -4.8058  -19.6174   22.1629 C.ar    1  UNL1        0.0006
     29 N          -1.1159  -18.2147   21.7545 N.pl3   1  UNL1       -0.2187
     30 H          -0.7013  -18.3022   22.6432 H       1  UNL1        0.1734
     31 S          -0.4586  -17.3748   20.6997 S.O2    1  UNL1        0.0558
     32 C           0.1986  -16.5349   19.6449 C.3     1  UNL1        0.1996
     33 O           0.4500  -18.5176   20.3558 O.2     1  UNL1       -0.1544
     34 O          -1.3673  -16.2320   21.0435 O.2     1  UNL1       -0.1544
@<TRIPOS>BOND
     1    19    20    1
     2    20    13    1
     3    13    14   ar
     4    14    15   ar
     5    15    16   ar
     6     1    16    1
     7     1     2    1
     8     2     3    2
     9     3    21    1
    10    21    22    1
    11    22    23    1
    12    23    24   ar
    13    24    25   ar
    14    25    26   ar
    15    26    29    1
    16    29    31    1
    17    31    32    1
    18    31    33    2
    19    31    34    2
    20    26    27   ar
    21    27    28   ar
    22     3     4    1
    23     4     5    1
    24     4     6    1
    25     6     7    1
    26     7     8   ar
    27     8     9   ar
    28     9    10   ar
    29    10    11   ar
    30    11    12   ar
    31    16    17   ar
    32    17    18   ar
    33    18    13   ar
    34    12     1    1
    35    28    23   ar
    36    12     7   ar
    37    29    30    1
@<TRIPOS>MOLECULE
*****
 34 37 0 0 0
SMALL
GASTEIGER

@<TRIPOS>ATOM
      1 C         -13.7869   -5.1312   18.3656 C.3     1  UNL1        0.1518
      2 N         -14.5631   -3.8656   18.1518 N.2     1  UNL1       -0.2172
      3 C         -14.0572   -2.4540   18.1104 C.2     1  UNL1        0.2843
      4 N         -12.6503   -1.9595   18.2726 N.pl3   1  UNL1       -0.2584
      5 C         -12.4679   -0.4737   18.1787 C.3     1  UNL1        0.1169
      6 C         -11.4019   -2.7545   18.5163 C.3     1  UNL1        0.1216
      7 C         -11.2519   -4.2403   18.6580 C.ar    1  UNL1       -0.0041
      8 C          -9.8220   -4.6266   18.8947 C.ar    1  UNL1       -0.0029
      9 C          -9.4535   -6.0706   19.0644 C.ar    1  UNL1       -0.0003
     10 C         -10.5149   -7.1284   18.9974 C.ar    1  UNL1       -0.0003
     11 C         -11.9448   -6.7421   18.7606 C.ar    1  UNL1       -0.0023
     12 C         -12.3133   -5.2980   18.5909 C.ar    1  UNL1        0.0018
     13 C         -16.1982   -8.9305   18.3262 C.ar    1  UNL1        0.0252
     14 C         -16.1603   -8.0791   19.5604 C.ar    1  UNL1        0.0059
     15 C         -15.3566   -6.8127   19.5737 C.ar    1  UNL1       -0.0016
     16 C         -14.5907   -6.3976   18.3525 C.ar    1  UNL1        0.0041
     17 C         -14.6286   -7.2491   17.1181 C.ar    1  UNL1       -0.0016
     18 C         -15.4323   -8.5156   17.1050 C.ar    1  UNL1        0.0059
     19 C         -18.4103  -10.1859   17.7966 C.3     1  UNL1        0.0742
     20 S         -17.0019  -10.1969   18.3129 S.3     1  UNL1       -0.1127
     21 O         -15.0955   -1.3972   17.8757 O.2     1  UNL1       -0.4449
     22 C         -16.1049   -1.0878   18.9412 C.3     1  UNL1        0.2350
     23 C         -16.1659    0.2860   19.5403 C.ar    1  UNL1        0.0213
     24 C         -16.9740    0.5281   20.7807 C.ar    1  UNL1        0.0006
     25 C         -17.0351    1.9019   21.3798 C.ar    1  UNL1        0.0156
     26 C         -16.2880    3.0336   20.7385 C.ar    1  UNL1        0.0644
     27 C         -15.4800    2.7915   19.4982 C.ar    1  UNL1        0.0156
     28 C         -15.4189    1.4177   18.8991 C.ar    1  UNL1        0.0006
     29 N         -16.3491    4.4074   21.3376 N.pl3   1  UNL1       -0.2187
     30 H         -16.8279    5.1283   20.8682 H       1  UNL1        0.1734
     31 S         -15.6805    4.6829   22.6518 S.O2    1  UNL1        0.0558
     32 C         -15.0118    4.9584   23.9659 C.3     1  UNL1        0.1996
     33 O         -17.0226    4.7781   23.3147 O.2     1  UNL1       -0.1544
     34 O         -14.3383    4.5877   21.9889 O.2     1  UNL1       -0.1544
@<TRIPOS>BOND
     1    19    20    1
     2    20    13    1
     3    13    14   ar
     4    14    15   ar
     5    15    16   ar
     6     1    16    1
     7     1     2    1
     8     2     3    2
     9     3    21    1
    10    21    22    1
    11    22    23    1
    12    23    24   ar
    13    24    25   ar
    14    25    26   ar
    15    26    29    1
    16    29    31    1
    17    31    32    1
    18    31    33    2
    19    31    34    2
    20    26    27   ar
    21    27    28   ar
    22     3     4    1
    23     4     5    1
    24     4     6    1
    25     6     7    1
    26     7     8   ar
    27     8     9   ar
    28     9    10   ar
    29    10    11   ar
    30    11    12   ar
    31    16    17   ar
    32    17    18   ar
    33    18    13   ar
    34    12     1    1
    35    28    23   ar
    36    12     7   ar
    37    29    30    1
@<TRIPOS>MOLECULE
*****
 34 37 0 0 0
SMALL
GASTEIGER

@<TRIPOS>ATOM
      1 C          -2.6661    3.5343   22.2856 C.3     1  UNL1        0.1518
      2 N          -1.4306    3.0255   21.6039 N.2     1  UNL1       -0.2172
      3 C          -0.1799    2.4758   22.2232 C.2     1  UNL1        0.2843
      4 N           0.1443    2.2990   23.6771 N.pl3   1  UNL1       -0.2584
      5 C           1.4933    1.7159   23.9769 C.3     1  UNL1        0.1169
      6 C          -0.7023    2.6284   24.8707 C.3     1  UNL1        0.1216
      7 C          -2.0821    3.2158   24.9054 C.ar    1  UNL1       -0.0041
      8 C          -2.5698    3.3865   26.3136 C.ar    1  UNL1       -0.0029
      9 C          -3.9315    3.9603   26.5712 C.ar    1  UNL1       -0.0003
     10 C          -4.8055    4.3635   25.4208 C.ar    1  UNL1       -0.0003
     11 C          -4.3178    4.1928   24.0126 C.ar    1  UNL1       -0.0023
     12 C          -2.9561    3.6190   23.7549 C.ar    1  UNL1        0.0018
     13 C          -5.9352    5.0004   19.5628 C.ar    1  UNL1        0.0252
     14 C          -4.9234    5.9648   20.1068 C.ar    1  UNL1        0.0059
     15 C          -3.8337    5.4762   21.0144 C.ar    1  UNL1       -0.0016
     16 C          -3.7558    4.0230   21.3780 C.ar    1  UNL1        0.0041
     17 C          -4.7676    3.0585   20.8340 C.ar    1  UNL1       -0.0016
     18 C          -5.8573    3.5472   19.9263 C.ar    1  UNL1        0.0059
     19 C          -8.1883    6.2479   19.2213 C.3     1  UNL1        0.0742
     20 S          -7.0249    5.4890   18.6552 S.3     1  UNL1       -0.1127
     21 O           0.8879    2.0460   21.2614 O.2     1  UNL1       -0.4449
     22 C           0.5538    1.1072   20.1403 C.3     1  UNL1        0.2350
     23 C           1.6127    0.2085   19.5737 C.ar    1  UNL1        0.0213
     24 C           2.0176   -1.0322   20.3132 C.ar    1  UNL1        0.0006
     25 C           3.0766   -1.9310   19.7467 C.ar    1  UNL1        0.0156
     26 C           3.7305   -1.5890   18.4407 C.ar    1  UNL1        0.0644
     27 C           3.3255   -0.3484   17.7013 C.ar    1  UNL1        0.0156
     28 C           2.2666    0.5504   18.2678 C.ar    1  UNL1        0.0006
     29 N           4.7894   -2.4878   17.8742 N.pl3   1  UNL1       -0.2187
     30 H           4.5485   -3.1767   17.2134 H       1  UNL1        0.1734
     31 S           6.2154   -2.3369   18.3144 S.O2    1  UNL1        0.0558
     32 C           7.6414   -2.1860   18.7547 C.3     1  UNL1        0.1996
     33 O           6.4520   -1.3499   17.2100 O.2     1  UNL1       -0.1544
     34 O           5.9789   -3.3239   19.4188 O.2     1  UNL1       -0.1544
@<TRIPOS>BOND
     1    19    20    1
     2    20    13    1
     3    13    14   ar
     4    14    15   ar
     5    15    16   ar
     6     1    16    1
     7     1     2    1
     8     2     3    2
     9     3    21    1
    10    21    22    1
    11    22    23    1
    12    23    24   ar
    13    24    25   ar
    14    25    26   ar
    15    26    29    1
    16    29    31    1
    17    31    32    1
    18    31    33    2
    19    31    34    2
    20    26    27   ar
    21    27    28   ar
    22     3     4    1
    23     4     5    1
    24     4     6    1
    25     6     7    1
    26     7     8   ar
    27     8     9   ar
    28     9    10   ar
    29    10    11   ar
    30    11    12   ar
    31    16    17   ar
    32    17    18   ar
    33    18    13   ar
    34    12     1    1
    35    28    23   ar
    36    12     7   ar
    37    29    30    1
@<TRIPOS>MOLECULE
*****
 34 37 0 0 0
SMALL
GASTEIGER

@<TRIPOS>ATOM
      1 C          -1.2055    2.9521   25.1992 C.3     1  UNL1        0.1518
      2 N          -0.3872    2.5905   23.9953 N.2     1  UNL1       -0.2172
      3 C          -0.7432    2.7338   22.5452 C.2     1  UNL1        0.2843
      4 N          -2.0053    3.2741   21.9409 N.pl3   1  UNL1       -0.2584
      5 C          -2.0563    3.2854   20.4419 C.3     1  UNL1        0.1169
      6 C          -3.2232    3.8045   22.6376 C.3     1  UNL1        0.1216
      7 C          -3.4798    3.9257   24.1105 C.ar    1  UNL1       -0.0041
      8 C          -4.8331    4.5116   24.3846 C.ar    1  UNL1       -0.0029
      9 C          -5.2885    4.7181   25.7988 C.ar    1  UNL1       -0.0003
     10 C          -4.3905    4.3388   26.9389 C.ar    1  UNL1       -0.0003
     11 C          -3.0372    3.7529   26.6648 C.ar    1  UNL1       -0.0023
     12 C          -2.5818    3.5463   25.2506 C.ar    1  UNL1        0.0018
     13 C           0.7238    2.1480   29.1844 C.ar    1  UNL1        0.0252
     14 C          -0.0543    1.0662   28.4960 C.ar    1  UNL1        0.0059
     15 C          -0.6974    1.3341   27.1676 C.ar    1  UNL1       -0.0016
     16 C          -0.5624    2.6841   26.5276 C.ar    1  UNL1        0.0041
     17 C           0.2158    3.7660   27.2161 C.ar    1  UNL1       -0.0016
     18 C           0.8589    3.4980   28.5445 C.ar    1  UNL1        0.0059
     19 C           0.7049    2.3489   31.7746 C.3     1  UNL1        0.0742
     20 S           1.3669    1.8801   30.5128 S.3     1  UNL1       -0.1127
     21 O           0.3011    2.2762   21.5704 O.2     1  UNL1       -0.4449
     22 C           0.3725    0.8323   21.1705 C.3     1  UNL1        0.2350
     23 C           1.4613    0.3613   20.2525 C.ar    1  UNL1        0.0213
     24 C           1.7655    1.1232   18.9967 C.ar    1  UNL1        0.0006
     25 C           2.8543    0.6522   18.0788 C.ar    1  UNL1        0.0156
     26 C           3.6389   -0.5808   18.4166 C.ar    1  UNL1        0.0644
     27 C           3.3348   -1.3427   19.6724 C.ar    1  UNL1        0.0156
     28 C           2.2460   -0.8717   20.5904 C.ar    1  UNL1        0.0006
     29 N           4.7277   -1.0519   17.4987 N.pl3   1  UNL1       -0.2187
     30 H           4.5613   -1.1174   16.5306 H       1  UNL1        0.1734
     31 S           6.0701   -1.4231   18.0558 S.O2    1  UNL1        0.0558
     32 C           7.4124   -1.7943   18.6130 C.3     1  UNL1        0.1996
     33 O           5.8066   -2.8636   17.7311 O.2     1  UNL1       -0.1544
     34 O           6.3336    0.0174   18.3806 O.2     1  UNL1       -0.1544
@<TRIPOS>BOND
     1    19    20    1
     2    20    13    1
     3    13    14   ar
     4    14    15   ar
     5    15    16   ar
     6     1    16    1
     7     1     2    1
     8     2     3    2
     9     3    21    1
    10    21    22    1
    11    22    23    1
    12    23    24   ar
    13    24    25   ar
    14    25    26   ar
    15    26    29    1
    16    29    31    1
    17    31    32    1
    18    31    33    2
    19    31    34    2
    20    26    27   ar
    21    27    28   ar
    22     3     4    1
    23     4     5    1
    24     4     6    1
    25     6     7    1
    26     7     8   ar
    27     8     9   ar
    28     9    10   ar
    29    10    11   ar
    30    11    12   ar
    31    16    17   ar
    32    17    18   ar
    33    18    13   ar
    34    12     1    1
    35    28    23   ar
    36    12     7   ar
    37    29    30    1
@<TRIPOS>MOLECULE
*****
 34 37 0 0 0
SMALL
GASTEIGER

@<TRIPOS>ATOM
      1 C           4.1369   -1.3538   22.8074 C.3     1  UNL1        0.1518
      2 N           5.1318   -2.4520   22.5750 N.2     1  UNL1       -0.2172
      3 C           5.2523   -3.3704   21.3951 C.2     1  UNL1        0.2843
      4 N           4.4078   -3.4174   20.1563 N.pl3   1  UNL1       -0.2584
      5 C           4.7871   -4.4623   19.1492 C.3     1  UNL1        0.1169
      6 C           3.2342   -2.5574   19.7914 C.3     1  UNL1        0.1216
      7 C           2.6151   -1.4383   20.5752 C.ar    1  UNL1       -0.0041
      8 C           1.4511   -0.8364   19.8452 C.ar    1  UNL1       -0.0029
      9 C           0.6889    0.3011   20.4575 C.ar    1  UNL1       -0.0003
     10 C           1.0906    0.8368   21.7997 C.ar    1  UNL1       -0.0003
     11 C           2.2546    0.2350   22.5297 C.ar    1  UNL1       -0.0023
     12 C           3.0169   -0.9026   21.9174 C.ar    1  UNL1        0.0018
     13 C           4.5695    0.8835   26.6878 C.ar    1  UNL1        0.0252
     14 C           5.2092    1.4157   25.4399 C.ar    1  UNL1        0.0059
     15 C           5.0651    0.6701   24.1464 C.ar    1  UNL1       -0.0016
     16 C           4.2811   -0.6080   24.1008 C.ar    1  UNL1        0.0041
     17 C           3.6413   -1.1403   25.3488 C.ar    1  UNL1       -0.0016
     18 C           3.7854   -0.3945   26.6423 C.ar    1  UNL1        0.0059
     19 C           3.5144    1.8573   28.8531 C.3     1  UNL1        0.0742
     20 S           4.7136    1.6292   27.9813 S.3     1  UNL1       -0.1127
     21 O           6.3644   -4.3747   21.4630 O.2     1  UNL1       -0.4449
     22 C           7.4807   -4.1921   22.4482 C.3     1  UNL1        0.2350
     23 C           7.4299   -4.8869   23.7765 C.ar    1  UNL1        0.0213
     24 C           7.9507   -6.2873   23.9108 C.ar    1  UNL1        0.0006
     25 C           7.8998   -6.9821   25.2392 C.ar    1  UNL1        0.0156
     26 C           7.3283   -6.2767   26.4333 C.ar    1  UNL1        0.0644
     27 C           6.8075   -4.8764   26.2989 C.ar    1  UNL1        0.0156
     28 C           6.8584   -4.1816   24.9705 C.ar    1  UNL1        0.0006
     29 N           7.2774   -6.9715   27.7616 N.pl3   1  UNL1       -0.2187
     30 H           6.7366   -7.7870   27.8702 H       1  UNL1        0.1734
     31 S           8.0506   -6.4239   28.9246 S.O2    1  UNL1        0.0558
     32 C           8.8237   -5.8763   30.0875 C.3     1  UNL1        0.1996
     33 O           9.3159   -6.9872   28.3487 O.2     1  UNL1       -0.1544
     34 O           6.7853   -5.8606   29.5005 O.2     1  UNL1       -0.1544
@<TRIPOS>BOND
     1    19    20    1
     2    20    13    1
     3    13    14   ar
     4    14    15   ar
     5    15    16   ar
     6     1    16    1
     7     1     2    1
     8     2     3    2
     9     3    21    1
    10    21    22    1
    11    22    23    1
    12    23    24   ar
    13    24    25   ar
    14    25    26   ar
    15    26    29    1
    16    29    31    1
    17    31    32    1
    18    31    33    2
    19    31    34    2
    20    26    27   ar
    21    27    28   ar
    22     3     4    1
    23     4     5    1
    24     4     6    1
    25     6     7    1
    26     7     8   ar
    27     8     9   ar
    28     9    10   ar
    29    10    11   ar
    30    11    12   ar
    31    16    17   ar
    32    17    18   ar
    33    18    13   ar
    34    12     1    1
    35    28    23   ar
    36    12     7   ar
    37    29    30    1
@<TRIPOS>MOLECULE
*****
 34 37 0 0 0
SMALL
GASTEIGER

@<TRIPOS>ATOM
      1 C          -1.2424    3.0240   24.9234 C.3     1  UNL1        0.1518
      2 N          -0.4353    2.7507   23.6889 N.2     1  UNL1       -0.2172
      3 C          -0.8262    2.9456   22.2539 C.2     1  UNL1        0.2843
      4 N          -2.1206    3.4619   21.6989 N.pl3   1  UNL1       -0.2584
      5 C          -2.2026    3.5395   20.2032 C.3     1  UNL1        0.1169
      6 C          -3.3439    3.9107   22.4420 C.3     1  UNL1        0.1216
      7 C          -3.5749    3.9543   23.9235 C.ar    1  UNL1       -0.0041
      8 C          -4.9443    4.4723   24.2496 C.ar    1  UNL1       -0.0029
      9 C          -5.3784    4.5957   25.6801 C.ar    1  UNL1       -0.0003
     10 C          -4.4431    4.2011   26.7844 C.ar    1  UNL1       -0.0003
     11 C          -3.0738    3.6830   26.4583 C.ar    1  UNL1       -0.0023
     12 C          -2.6397    3.5596   25.0278 C.ar    1  UNL1        0.0018
     13 C           0.7979    2.1170   28.8304 C.ar    1  UNL1        0.0252
     14 C           0.8216    3.5113   28.2779 C.ar    1  UNL1        0.0059
     15 C           0.1415    3.8137   26.9756 C.ar    1  UNL1       -0.0016
     16 C          -0.5623    2.7217   26.2257 C.ar    1  UNL1        0.0041
     17 C          -0.5861    1.3273   26.7783 C.ar    1  UNL1       -0.0016
     18 C           0.0940    1.0250   28.0807 C.ar    1  UNL1        0.0059
     19 C           2.1919    0.5088   30.3204 C.3     1  UNL1        0.0742
     20 S           1.4779    1.8146   30.1328 S.3     1  UNL1       -0.1127
     21 O           0.2151    2.5753   21.2397 O.2     1  UNL1       -0.4449
     22 C           0.2643    1.1804   20.6904 C.3     1  UNL1        0.2350
     23 C           1.3586    0.2458   21.1137 C.ar    1  UNL1        0.0213
     24 C           1.8530   -0.8078   20.1673 C.ar    1  UNL1        0.0006
     25 C           2.9472   -1.7423   20.5906 C.ar    1  UNL1        0.0156
     26 C           3.5471   -1.6233   21.9604 C.ar    1  UNL1        0.0644
     27 C           3.0527   -0.5698   22.9067 C.ar    1  UNL1        0.0156
     28 C           1.9584    0.3648   22.4834 C.ar    1  UNL1        0.0006
     29 N           4.6414   -2.5579   22.3837 N.pl3   1  UNL1       -0.2187
     30 H           4.7419   -2.8005   23.3325 H       1  UNL1        0.1734
     31 S           5.5825   -3.1229   21.3613 S.O2    1  UNL1        0.0558
     32 C           6.5235   -3.6878   20.3390 C.3     1  UNL1        0.1996
     33 O           4.8766   -4.4439   21.4415 O.2     1  UNL1       -0.1544
     34 O           6.2883   -1.8018   21.2811 O.2     1  UNL1       -0.1544
@<TRIPOS>BOND
     1    19    20    1
     2    20    13    1
     3    13    14   ar
     4    14    15   ar
     5    15    16   ar
     6     1    16    1
     7     1     2    1
     8     2     3    2
     9     3    21    1
    10    21    22    1
    11    22    23    1
    12    23    24   ar
    13    24    25   ar
    14    25    26   ar
    15    26    29    1
    16    29    31    1
    17    31    32    1
    18    31    33    2
    19    31    34    2
    20    26    27   ar
    21    27    28   ar
    22     3     4    1
    23     4     5    1
    24     4     6    1
    25     6     7    1
    26     7     8   ar
    27     8     9   ar
    28     9    10   ar
    29    10    11   ar
    30    11    12   ar
    31    16    17   ar
    32    17    18   ar
    33    18    13   ar
    34    12     1    1
    35    28    23   ar
    36    12     7   ar
    37    29    30    1
@<TRIPOS>MOLECULE
*****
 34 37 0 0 0
SMALL
GASTEIGER

@<TRIPOS>ATOM
      1 C           1.4931    1.0375   23.0833 C.3     1  UNL1        0.1518
      2 N           0.7316    1.7506   22.0056 N.2     1  UNL1       -0.2172
      3 C           0.7486    1.5007   20.5266 C.2     1  UNL1        0.2843
      4 N           1.5313    0.4760   19.7601 N.pl3   1  UNL1       -0.2584
      5 C           1.3281    0.4797   18.2740 C.3     1  UNL1        0.1169
      6 C           2.4903   -0.5518   20.2834 C.3     1  UNL1        0.1216
      7 C           2.9035   -0.8090   21.7023 C.ar    1  UNL1       -0.0041
      8 C           3.8895   -1.9359   21.7903 C.ar    1  UNL1       -0.0029
      9 C           4.4317   -2.3555   23.1244 C.ar    1  UNL1       -0.0003
     10 C           3.9879   -1.6481   24.3705 C.ar    1  UNL1       -0.0003
     11 C           3.0019   -0.5212   24.2825 C.ar    1  UNL1       -0.0023
     12 C           2.4597   -0.1016   22.9484 C.ar    1  UNL1        0.0018
     13 C           0.7842    2.5102   27.2761 C.ar    1  UNL1        0.0252
     14 C          -0.2307    1.6303   26.6086 C.ar    1  UNL1        0.0059
     15 C           0.0055    1.1394   25.2110 C.ar    1  UNL1       -0.0016
     16 C           1.2568    1.5284   24.4809 C.ar    1  UNL1        0.0041
     17 C           2.2718    2.4083   25.1484 C.ar    1  UNL1       -0.0016
     18 C           2.0355    2.8992   26.5460 C.ar    1  UNL1        0.0059
     19 C           1.0634    2.2142   29.8420 C.3     1  UNL1        0.0742
     20 S           0.5480    3.0011   28.6736 S.3     1  UNL1       -0.1127
     21 O          -0.1338    2.3936   19.7056 O.2     1  UNL1       -0.4449
     22 C          -0.6892    3.6530   20.3018 C.3     1  UNL1        0.2350
     23 C          -1.9499    3.6061   21.1132 C.ar    1  UNL1        0.0213
     24 C          -3.2359    3.1690   20.4764 C.ar    1  UNL1        0.0006
     25 C          -4.4966    3.1221   21.2877 C.ar    1  UNL1        0.0156
     26 C          -4.4714    3.5123   22.7359 C.ar    1  UNL1        0.0644
     27 C          -3.1856    3.9494   23.3727 C.ar    1  UNL1        0.0156
     28 C          -1.9248    3.9963   22.5613 C.ar    1  UNL1        0.0006
     29 N          -5.7322    3.4655   23.5473 N.pl3   1  UNL1       -0.2187
     30 H          -6.4172    2.7854   23.3536 H       1  UNL1        0.1734
     31 S          -5.9492    4.4548   24.6538 S.O2    1  UNL1        0.0558
     32 C          -6.1662    5.4440   25.7602 C.3     1  UNL1        0.1996
     33 O          -6.5384    5.4237   23.6720 O.2     1  UNL1       -0.1544
     34 O          -5.3600    3.4859   25.6356 O.2     1  UNL1       -0.1544
@<TRIPOS>BOND
     1    19    20    1
     2    20    13    1
     3    13    14   ar
     4    14    15   ar
     5    15    16   ar
     6     1    16    1
     7     1     2    1
     8     2     3    2
     9     3    21    1
    10    21    22    1
    11    22    23    1
    12    23    24   ar
    13    24    25   ar
    14    25    26   ar
    15    26    29    1
    16    29    31    1
    17    31    32    1
    18    31    33    2
    19    31    34    2
    20    26    27   ar
    21    27    28   ar
    22     3     4    1
    23     4     5    1
    24     4     6    1
    25     6     7    1
    26     7     8   ar
    27     8     9   ar
    28     9    10   ar
    29    10    11   ar
    30    11    12   ar
    31    16    17   ar
    32    17    18   ar
    33    18    13   ar
    34    12     1    1
    35    28    23   ar
    36    12     7   ar
    37    29    30    1
@<TRIPOS>MOLECULE
*****
 34 37 0 0 0
SMALL
GASTEIGER

@<TRIPOS>ATOM
      1 C         -14.5641   -5.2143   18.7435 C.3     1  UNL1        0.1518
      2 N         -13.1840   -4.6773   18.9825 N.2     1  UNL1       -0.2172
      3 C         -11.8784   -5.4157   18.9719 C.2     1  UNL1        0.2843
      4 N         -11.6303   -6.8734   18.7198 N.pl3   1  UNL1       -0.2584
      5 C         -10.1963   -7.3094   18.7794 C.3     1  UNL1        0.1169
      6 C         -12.6266   -7.9527   18.4160 C.3     1  UNL1        0.1216
      7 C         -14.1171   -7.8410   18.2892 C.ar    1  UNL1       -0.0041
      8 C         -14.7414   -9.1683   17.9752 C.ar    1  UNL1       -0.0029
      9 C         -16.2280   -9.2768   17.8070 C.ar    1  UNL1       -0.0003
     10 C         -17.0902   -8.0581   17.9527 C.ar    1  UNL1       -0.0003
     11 C         -16.4659   -6.7308   18.2667 C.ar    1  UNL1       -0.0023
     12 C         -14.9794   -6.6223   18.4349 C.ar    1  UNL1        0.0018
     13 C         -17.8996   -2.2032   18.9840 C.ar    1  UNL1        0.0252
     14 C         -17.6569   -3.1463   20.1248 C.ar    1  UNL1        0.0059
     15 C         -16.5451   -4.1500   20.0447 C.ar    1  UNL1       -0.0016
     16 C         -15.6759   -4.2106   18.8237 C.ar    1  UNL1        0.0041
     17 C         -15.9186   -3.2675   17.6827 C.ar    1  UNL1       -0.0016
     18 C         -17.0304   -2.2638   17.7629 C.ar    1  UNL1        0.0059
     19 C         -19.1780   -0.3618   20.2971 C.3     1  UNL1        0.0742
     20 S         -19.0114   -1.1995   19.0640 S.3     1  UNL1       -0.1127
     21 O         -10.6597   -4.5867   19.2503 O.2     1  UNL1       -0.4449
     22 C         -10.0643   -3.7403   18.1645 C.3     1  UNL1        0.2350
     23 C         -10.7117   -2.4412   17.7861 C.ar    1  UNL1        0.0213
     24 C         -10.5176   -1.8797   16.4087 C.ar    1  UNL1        0.0006
     25 C         -11.1651   -0.5806   16.0303 C.ar    1  UNL1        0.0156
     26 C         -12.0066    0.1570   17.0293 C.ar    1  UNL1        0.0644
     27 C         -12.2007   -0.4046   18.4066 C.ar    1  UNL1        0.0156
     28 C         -11.5532   -1.7036   18.7850 C.ar    1  UNL1        0.0006
     29 N         -12.6540    1.4560   16.6509 N.pl3   1  UNL1       -0.2187
     30 H         -12.1230    2.1629   16.2177 H       1  UNL1        0.1734
     31 S         -14.1106    1.6781   16.9324 S.O2    1  UNL1        0.0558
     32 C         -15.5671    1.9002   17.2140 C.3     1  UNL1        0.1996
     33 O         -14.4629    0.5718   15.9828 O.2     1  UNL1       -0.1544
     34 O         -13.7583    2.7845   17.8820 O.2     1  UNL1       -0.1544
@<TRIPOS>BOND
     1    19    20    1
     2    20    13    1
     3    13    14   ar
     4    14    15   ar
     5    15    16   ar
     6     1    16    1
     7     1     2    1
     8     2     3    2
     9     3    21    1
    10    21    22    1
    11    22    23    1
    12    23    24   ar
    13    24    25   ar
    14    25    26   ar
    15    26    29    1
    16    29    31    1
    17    31    32    1
    18    31    33    2
    19    31    34    2
    20    26    27   ar
    21    27    28   ar
    22     3     4    1
    23     4     5    1
    24     4     6    1
    25     6     7    1
    26     7     8   ar
    27     8     9   ar
    28     9    10   ar
    29    10    11   ar
    30    11    12   ar
    31    16    17   ar
    32    17    18   ar
    33    18    13   ar
    34    12     1    1
    35    28    23   ar
    36    12     7   ar
    37    29    30    1
@<TRIPOS>MOLECULE
*****
 34 37 0 0 0
SMALL
GASTEIGER

@<TRIPOS>ATOM
      1 C           2.8051   -0.0842   22.2406 C.3     1  UNL1        0.1518
      2 N           2.8362    0.5370   23.6056 N.2     1  UNL1       -0.2172
      3 C           3.4578    0.0032   24.8620 C.2     1  UNL1        0.2843
      4 N           4.2019   -1.2835   25.0638 N.pl3   1  UNL1       -0.2584
      5 C           4.7064   -1.5324   26.4543 C.3     1  UNL1        0.1169
      6 C           4.5080   -2.3542   24.0589 C.3     1  UNL1        0.1216
      7 C           4.1458   -2.4028   22.6041 C.ar    1  UNL1       -0.0041
      8 C           4.6470   -3.6593   21.9562 C.ar    1  UNL1       -0.0029
      9 C           4.3902   -3.9056   20.4990 C.ar    1  UNL1       -0.0003
     10 C           3.6323   -2.8953   19.6898 C.ar    1  UNL1       -0.0003
     11 C           3.1312   -1.6387   20.3377 C.ar    1  UNL1       -0.0023
     12 C           3.3880   -1.3925   21.7949 C.ar    1  UNL1        0.0018
     13 C           0.6826    2.2915   19.0623 C.ar    1  UNL1        0.0252
     14 C           2.1798    2.3233   19.1481 C.ar    1  UNL1        0.0059
     15 C           2.8873    1.5315   20.2075 C.ar    1  UNL1       -0.0016
     16 C           2.0976    0.7077   21.1812 C.ar    1  UNL1        0.0041
     17 C           0.6004    0.6759   21.0953 C.ar    1  UNL1       -0.0016
     18 C          -0.1071    1.4678   20.0359 C.ar    1  UNL1        0.0059
     19 C           0.3216    4.5270   17.7887 C.3     1  UNL1        0.0742
     20 S          -0.0249    3.0834   18.0029 S.3     1  UNL1       -0.1127
     21 O           3.3167    0.8709   26.0774 O.2     1  UNL1       -0.4449
     22 C           2.0616    0.8154   26.8970 C.3     1  UNL1        0.2350
     23 C           0.9505    1.7882   26.6340 C.ar    1  UNL1        0.0213
     24 C           0.8011    3.0070   27.4956 C.ar    1  UNL1        0.0006
     25 C          -0.3100    3.9798   27.2325 C.ar    1  UNL1        0.0156
     26 C          -1.2717    3.7337   26.1079 C.ar    1  UNL1        0.0644
     27 C          -1.1222    2.5150   25.2464 C.ar    1  UNL1        0.0156
     28 C          -0.0111    1.5422   25.5094 C.ar    1  UNL1        0.0006
     29 N          -2.3828    4.7065   25.8449 N.pl3   1  UNL1       -0.2187
     30 H          -2.2132    5.6746   25.9019 H       1  UNL1        0.1734
     31 S          -3.7522    4.2042   25.4951 S.O2    1  UNL1        0.0558
     32 C          -5.1216    3.7019   25.1453 C.3     1  UNL1        0.1996
     33 O          -3.5423    4.6238   24.0704 O.2     1  UNL1       -0.1544
     34 O          -3.9622    3.7845   26.9198 O.2     1  UNL1       -0.1544
@<TRIPOS>BOND
     1    19    20    1
     2    20    13    1
     3    13    14   ar
     4    14    15   ar
     5    15    16   ar
     6     1    16    1
     7     1     2    1
     8     2     3    2
     9     3    21    1
    10    21    22    1
    11    22    23    1
    12    23    24   ar
    13    24    25   ar
    14    25    26   ar
    15    26    29    1
    16    29    31    1
    17    31    32    1
    18    31    33    2
    19    31    34    2
    20    26    27   ar
    21    27    28   ar
    22     3     4    1
    23     4     5    1
    24     4     6    1
    25     6     7    1
    26     7     8   ar
    27     8     9   ar
    28     9    10   ar
    29    10    11   ar
    30    11    12   ar
    31    16    17   ar
    32    17    18   ar
    33    18    13   ar
    34    12     1    1
    35    28    23   ar
    36    12     7   ar
    37    29    30    1
