@<TRIPOS>MOLECULE
*****
 45 49 0 0 0
SMALL
GASTEIGER

@<TRIPOS>ATOM
      1 N           2.7299    2.0129   26.9057 N.3     1  UNL1       -0.2207
      2 C           1.9692    2.8569   25.9264 C.3     1  UNL1        0.0906
      3 C           2.0201    2.1765   24.5905 C.3     1  UNL1        0.0467
      4 C           2.8123    0.9121   24.7443 C.3     1  UNL1        0.1492
      5 C           3.1908   -0.1604   23.7662 C.ar    1  UNL1       -0.0048
      6 C           2.7522   -0.0592   22.3353 C.ar    1  UNL1       -0.0032
      7 C           3.1308   -1.1316   21.3573 C.ar    1  UNL1       -0.0015
      8 C           3.9480   -2.3051   21.8101 C.ar    1  UNL1        0.0232
      9 C           4.3867   -2.4063   23.2409 C.ar    1  UNL1       -0.0057
     10 C           4.0081   -1.3339   24.2190 C.ar    1  UNL1       -0.0247
     11 C           4.4467   -1.4349   25.6499 C.3     1  UNL1        0.0276
     12 C           4.0682   -0.3626   26.6279 C.3     1  UNL1        0.0241
     13 C           3.2509    0.8109   26.1751 C.3     1  UNL1        0.0973
     14 S           2.3038    1.1482   23.3530 S.O2    1  UNL1        0.0103
     15 O           1.5889    0.7955   23.3465 O.2     1  UNL1       -0.1684
     16 O           3.5633    1.8910   23.0187 O.2     1  UNL1       -0.1684
     17 C           1.7953    1.3843   21.9616 C.ar    1  UNL1        0.1061
     18 C           0.4539    0.8520   21.5531 C.ar    1  UNL1        0.0207
     19 C          -0.0547    1.0881   20.1618 C.ar    1  UNL1        0.0310
     20 C           0.7783    1.8564   19.1791 C.ar    1  UNL1        0.1402
     21 F           0.2698    2.0925   17.7878 F       1  UNL1       -0.2042
     22 C           2.1199    2.3887   19.5877 C.ar    1  UNL1        0.0310
     23 C           2.6283    2.1526   20.9790 C.ar    1  UNL1        0.0207
     24 N           2.9337    2.3175   28.3603 N.3     1  UNL1       -0.2436
     25 H           3.6533    3.0385   28.4122 H       1  UNL1        0.1416
     26 C           0.9124    0.3140   29.3092 C.3     1  UNL1        0.0014
     27 C           2.3341    0.2251   29.7789 C.3     1  UNL1        0.0161
     28 C           2.7453   -0.8656   30.7230 C.3     1  UNL1        0.0069
     29 C           4.1670   -0.9546   31.1927 C.3     1  UNL1        0.0366
     30 C           5.1778    0.0471   30.7182 C.3     1  UNL1        0.0070
     31 C           4.7666    1.1378   29.7741 C.3     1  UNL1        0.0175
     32 C           3.3448    1.2268   29.3044 C.3     1  UNL1        0.0687
     33 C           4.5782   -2.0453   32.1368 C.2     1  UNL1        0.0500
     34 O           3.8515   -2.2256   33.4366 O.co2   1  UNL1       -0.5492
     35 O           5.7161   -2.9558   31.7811 O.co2   1  UNL1       -0.5492
     36 C           4.3266   -3.3776   20.8320 C.3     1  UNL1        0.3242
     37 F           3.9448   -4.4263   21.8341 F       1  UNL1       -0.2176
     38 C           4.7051   -4.4500   19.8539 C.3     1  UNL1        0.4363
     39 F           5.0837   -5.5224   18.8758 F       1  UNL1       -0.1666
     40 F           3.3314   -5.0410   19.9704 F       1  UNL1       -0.1666
     41 F           6.1147   -3.9940   19.6191 F       1  UNL1       -0.1666
     42 C           4.7083   -2.3288   19.8298 C.3     1  UNL1        0.4363
     43 F           5.0902   -1.2800   18.8276 F       1  UNL1       -0.1666
     44 F           3.6780   -2.6787   18.7975 F       1  UNL1       -0.1666
     45 F           5.8536   -1.6080   20.4771 F       1  UNL1       -0.1666
@<TRIPOS>UNITY_ATOM_ATTR
34 1
charge -1
@<TRIPOS>BOND
     1    27    26    1
     2    27    28    1
     3    28    29    1
     4    29    33    1
     5    33    34   ar
     6    33    35   ar
     7    29    30    1
     8    30    31    1
     9    31    32    1
    10    32    24    1
    11    24     1    1
    12     1     2    1
    13     2     3    1
    14     3     4    1
    15     4    14    1
    16    14    15    2
    17    14    16    2
    18    14    17    1
    19    17    18   ar
    20    18    19   ar
    21    19    20   ar
    22    20    21    1
    23    20    22   ar
    24    22    23   ar
    25     4     5    1
    26     5     6   ar
    27     6     7   ar
    28     7     8   ar
    29     8    36    1
    30    36    37    1
    31    36    38    1
    32    38    39    1
    33    38    40    1
    34    38    41    1
    35    36    42    1
    36    42    43    1
    37    42    44    1
    38    42    45    1
    39     8     9   ar
    40     9    10   ar
    41    10    11    1
    42    11    12    1
    43    13    12    1
    44    32    27    1
    45    13     1    1
    46    13     4    1
    47    23    17   ar
    48    10     5   ar
    49    24    25    1
@<TRIPOS>MOLECULE
*****
 45 49 0 0 0
SMALL
GASTEIGER

@<TRIPOS>ATOM
      1 N           0.0825    3.2928   22.9820 N.3     1  UNL1       -0.2207
      2 C           1.0067    3.2049   24.1602 C.3     1  UNL1        0.0906
      3 C           1.9297    2.0432   23.9396 C.3     1  UNL1        0.0467
      4 C           1.5760    1.4133   22.6251 C.3     1  UNL1        0.1492
      5 C           2.1460    0.2361   21.8906 C.ar    1  UNL1       -0.0048
      6 C           3.2876   -0.5361   22.4824 C.ar    1  UNL1       -0.0032
      7 C           3.8576   -1.7132   21.7479 C.ar    1  UNL1       -0.0015
      8 C           3.2859   -2.1180   20.4215 C.ar    1  UNL1        0.0232
      9 C           2.1443   -1.3458   19.8296 C.ar    1  UNL1       -0.0057
     10 C           1.5743   -0.1687   20.5642 C.ar    1  UNL1       -0.0247
     11 C           0.4327    0.6036   19.9723 C.3     1  UNL1        0.0276
     12 C          -0.1373    1.7807   20.7068 C.3     1  UNL1        0.0241
     13 C           0.4344    2.1855   22.0332 C.3     1  UNL1        0.0973
     14 S           2.7114    0.7408   23.3381 S.O2    1  UNL1        0.0103
     15 O           2.3558    0.1865   23.7873 O.2     1  UNL1       -0.1684
     16 O           3.6842    1.6479   22.6448 O.2     1  UNL1       -0.1684
     17 C           3.8469    0.0681   24.0512 C.ar    1  UNL1        0.1061
     18 C           3.5698   -1.0324   25.0319 C.ar    1  UNL1        0.0207
     19 C           4.7052   -1.7050   25.7450 C.ar    1  UNL1        0.0310
     20 C           6.1177   -1.2770   25.4773 C.ar    1  UNL1        0.1402
     21 F           7.2532   -1.9496   26.1903 F       1  UNL1       -0.2042
     22 C           6.3948   -0.1764   24.4965 C.ar    1  UNL1        0.0310
     23 C           5.2594    0.4961   23.7835 C.ar    1  UNL1        0.0207
     24 N          -1.0030    4.3096   22.7868 N.3     1  UNL1       -0.2436
     25 H          -1.5194    4.3612   23.6649 H       1  UNL1        0.1416
     26 C          -0.5125    5.4713   20.0646 C.3     1  UNL1        0.0014
     27 C          -1.7725    4.7044   20.3369 C.3     1  UNL1        0.0161
     28 C          -2.7873    4.5183   19.2481 C.3     1  UNL1        0.0069
     29 C          -4.0473    3.7514   19.5202 C.3     1  UNL1        0.0366
     30 C          -4.2926    3.1705   20.8813 C.3     1  UNL1        0.0070
     31 C          -3.2778    3.3566   21.9701 C.3     1  UNL1        0.0175
     32 C          -2.0177    4.1235   21.6980 C.3     1  UNL1        0.0687
     33 C          -5.0622    3.5653   18.4314 C.2     1  UNL1        0.0500
     34 O          -6.5262    3.6222   18.7530 O.co2   1  UNL1       -0.5492
     35 O          -4.6129    3.3223   17.0210 O.co2   1  UNL1       -0.5492
     36 C           3.8559   -3.2952   19.6869 C.3     1  UNL1        0.3242
     37 F           2.4686   -3.7682   19.3685 F       1  UNL1       -0.2176
     38 C           4.4259   -4.4722   18.9524 C.3     1  UNL1        0.4363
     39 F           4.9959   -5.6494   18.2178 F       1  UNL1       -0.1666
     40 F           3.5999   -5.3981   19.7953 F       1  UNL1       -0.1666
     41 F           5.3152   -3.6968   18.0263 F       1  UNL1       -0.1666
     42 C           5.2433   -2.8221   20.0054 C.3     1  UNL1        0.4363
     43 F           6.6307   -2.3491   20.3239 F       1  UNL1       -0.1666
     44 F           5.6530   -4.0025   20.8352 F       1  UNL1       -0.1666
     45 F           5.3438   -1.4972   19.3092 F       1  UNL1       -0.1666
@<TRIPOS>UNITY_ATOM_ATTR
34 1
charge -1
@<TRIPOS>BOND
     1    27    26    1
     2    27    28    1
     3    28    29    1
     4    29    33    1
     5    33    34   ar
     6    33    35   ar
     7    29    30    1
     8    30    31    1
     9    31    32    1
    10    32    24    1
    11    24     1    1
    12     1     2    1
    13     2     3    1
    14     3     4    1
    15     4    14    1
    16    14    15    2
    17    14    16    2
    18    14    17    1
    19    17    18   ar
    20    18    19   ar
    21    19    20   ar
    22    20    21    1
    23    20    22   ar
    24    22    23   ar
    25     4     5    1
    26     5     6   ar
    27     6     7   ar
    28     7     8   ar
    29     8    36    1
    30    36    37    1
    31    36    38    1
    32    38    39    1
    33    38    40    1
    34    38    41    1
    35    36    42    1
    36    42    43    1
    37    42    44    1
    38    42    45    1
    39     8     9   ar
    40     9    10   ar
    41    10    11    1
    42    11    12    1
    43    13    12    1
    44    32    27    1
    45    13     1    1
    46    13     4    1
    47    23    17   ar
    48    10     5   ar
    49    24    25    1
@<TRIPOS>MOLECULE
*****
 45 49 0 0 0
SMALL
GASTEIGER

@<TRIPOS>ATOM
      1 N           7.0461   -4.5677   22.4863 N.3     1  UNL1       -0.2207
      2 C           7.9615   -5.2796   23.4377 C.3     1  UNL1        0.0906
      3 C           7.6560   -4.7959   24.8243 C.3     1  UNL1        0.0467
      4 C           6.5518   -3.7851   24.7299 C.3     1  UNL1        0.1492
      5 C           5.8409   -2.9749   25.7731 C.ar    1  UNL1       -0.0048
      6 C           6.2179   -3.1160   27.2180 C.ar    1  UNL1       -0.0032
      7 C           5.5070   -2.3058   28.2611 C.ar    1  UNL1       -0.0015
      8 C           4.4191   -1.3545   27.8592 C.ar    1  UNL1        0.0232
      9 C           4.0421   -1.2134   26.4143 C.ar    1  UNL1       -0.0057
     10 C           4.7530   -2.0236   25.3712 C.ar    1  UNL1       -0.0247
     11 C           4.3760   -1.8826   23.9262 C.3     1  UNL1        0.0276
     12 C           5.0869   -2.6928   22.8831 C.3     1  UNL1        0.0241
     13 C           6.1748   -3.6441   23.2849 C.3     1  UNL1        0.0973
     14 S           7.0353   -4.0318   26.1282 S.O2    1  UNL1        0.0103
     15 O           6.5815   -4.6344   26.3857 O.2     1  UNL1       -0.1684
     16 O           8.0360   -2.9246   25.9776 O.2     1  UNL1       -0.1684
     17 C           7.5188   -4.2784   27.5266 C.ar    1  UNL1        0.1061
     18 C           8.6558   -3.4718   28.0803 C.ar    1  UNL1        0.0207
     19 C           9.1393   -3.7184   29.4786 C.ar    1  UNL1        0.0310
     20 C           8.4858   -4.7717   30.3233 C.ar    1  UNL1        0.1402
     21 F           8.9693   -5.0184   31.7217 F       1  UNL1       -0.2042
     22 C           7.3488   -5.5784   29.7696 C.ar    1  UNL1        0.0310
     23 C           6.8654   -5.3317   28.3713 C.ar    1  UNL1        0.0207
     24 N           7.0084   -4.7478   20.9975 N.3     1  UNL1       -0.2436
     25 H           7.9712   -4.6776   20.6680 H       1  UNL1        0.1416
     26 C           8.2178   -2.2013   19.9714 C.3     1  UNL1        0.0014
     27 C           6.7964   -2.5447   19.6370 C.3     1  UNL1        0.0161
     28 C           5.9797   -1.6148   18.7895 C.3     1  UNL1        0.0069
     29 C           4.5584   -1.9581   18.4550 C.3     1  UNL1        0.0366
     30 C           3.9537   -3.2313   18.9681 C.3     1  UNL1        0.0070
     31 C           4.7704   -4.1612   19.8156 C.3     1  UNL1        0.0175
     32 C           6.1918   -3.8179   20.1501 C.3     1  UNL1        0.0687
     33 C           3.7417   -1.0282   17.6075 C.2     1  UNL1        0.0500
     34 O           2.7998   -0.0563   18.2542 O.co2   1  UNL1       -0.5492
     35 O           3.8669   -1.0702   16.1133 O.co2   1  UNL1       -0.5492
     36 C           3.7081   -0.5442   28.9024 C.3     1  UNL1        0.3242
     37 F           2.3918   -1.0754   28.4178 F       1  UNL1       -0.2176
     38 C           2.9972    0.2660   29.9456 C.3     1  UNL1        0.4363
     39 F           2.2863    1.0762   30.9887 F       1  UNL1       -0.1666
     40 F           2.3362   -0.9779   30.4611 F       1  UNL1       -0.1666
     41 F           3.5667    1.5993   29.5610 F       1  UNL1       -0.1666
     42 C           5.0245   -0.0130   29.3870 C.3     1  UNL1        0.4363
     43 F           6.3410    0.5182   29.8716 F       1  UNL1       -0.1666
     44 F           4.9580   -0.5925   30.7689 F       1  UNL1       -0.1666
     45 F           5.5650    0.7453   28.2111 F       1  UNL1       -0.1666
@<TRIPOS>UNITY_ATOM_ATTR
34 1
charge -1
@<TRIPOS>BOND
     1    27    26    1
     2    27    28    1
     3    28    29    1
     4    29    33    1
     5    33    34   ar
     6    33    35   ar
     7    29    30    1
     8    30    31    1
     9    31    32    1
    10    32    24    1
    11    24     1    1
    12     1     2    1
    13     2     3    1
    14     3     4    1
    15     4    14    1
    16    14    15    2
    17    14    16    2
    18    14    17    1
    19    17    18   ar
    20    18    19   ar
    21    19    20   ar
    22    20    21    1
    23    20    22   ar
    24    22    23   ar
    25     4     5    1
    26     5     6   ar
    27     6     7   ar
    28     7     8   ar
    29     8    36    1
    30    36    37    1
    31    36    38    1
    32    38    39    1
    33    38    40    1
    34    38    41    1
    35    36    42    1
    36    42    43    1
    37    42    44    1
    38    42    45    1
    39     8     9   ar
    40     9    10   ar
    41    10    11    1
    42    11    12    1
    43    13    12    1
    44    32    27    1
    45    13     1    1
    46    13     4    1
    47    23    17   ar
    48    10     5   ar
    49    24    25    1
@<TRIPOS>MOLECULE
*****
 45 49 0 0 0
SMALL
GASTEIGER

@<TRIPOS>ATOM
      1 N           0.2691    3.3669   22.6038 N.3     1  UNL1       -0.2207
      2 C           1.1521    3.2835   23.8135 C.3     1  UNL1        0.0906
      3 C           2.0389    2.0837   23.6582 C.3     1  UNL1        0.0467
      4 C           1.7039    1.4257   22.3525 C.3     1  UNL1        0.1492
      5 C           2.2537    0.2067   21.6728 C.ar    1  UNL1       -0.0048
      6 C           3.3474   -0.5863   22.3245 C.ar    1  UNL1       -0.0032
      7 C           3.8971   -1.8052   21.6448 C.ar    1  UNL1       -0.0015
      8 C           3.3530   -2.2311   20.3134 C.ar    1  UNL1        0.0232
      9 C           2.2593   -1.4381   19.6617 C.ar    1  UNL1       -0.0057
     10 C           1.7096   -0.2192   20.3414 C.ar    1  UNL1       -0.0247
     11 C           0.6158    0.5740   19.6898 C.3     1  UNL1        0.0276
     12 C           0.0661    1.7929   20.3695 C.3     1  UNL1        0.0241
     13 C           0.6102    2.2187   21.7009 C.3     1  UNL1        0.0973
     14 S           2.7914    0.7363   23.1220 S.O2    1  UNL1        0.0103
     15 O           2.4038    0.1954   23.5611 O.2     1  UNL1       -0.1684
     16 O           3.8141    1.6131   22.4625 O.2     1  UNL1       -0.1684
     17 C           3.8789    0.0468   23.8916 C.ar    1  UNL1        0.1061
     18 C           3.5293   -0.9812   24.9264 C.ar    1  UNL1        0.0207
     19 C           4.6166   -1.6707   25.6959 C.ar    1  UNL1        0.0310
     20 C           6.0536   -1.3321   25.4306 C.ar    1  UNL1        0.1402
     21 F           7.1411   -2.0216   26.2002 F       1  UNL1       -0.2042
     22 C           6.4032   -0.3041   24.3958 C.ar    1  UNL1        0.0310
     23 C           5.3158    0.3853   23.6263 C.ar    1  UNL1        0.0207
     24 N          -0.7722    4.4147   22.3428 N.3     1  UNL1       -0.2436
     25 H          -0.2856    5.3103   22.3043 H       1  UNL1        0.1416
     26 C          -3.5073    3.4419   21.5857 C.3     1  UNL1        0.0014
     27 C          -3.2866    4.0992   22.9158 C.3     1  UNL1        0.0161
     28 C          -4.4334    4.2701   23.8674 C.3     1  UNL1        0.0069
     29 C          -4.2128    4.9274   25.1975 C.3     1  UNL1        0.0366
     30 C          -2.8452    5.4139   25.5761 C.3     1  UNL1        0.0070
     31 C          -1.6984    5.2429   24.6245 C.3     1  UNL1        0.0175
     32 C          -1.9190    4.5856   23.2943 C.3     1  UNL1        0.0687
     33 C          -5.3596    5.0984   26.1491 C.2     1  UNL1        0.0500
     34 O          -6.7500    5.2922   25.6209 O.co2   1  UNL1       -0.5492
     35 O          -5.1160    5.0755   27.6291 O.co2   1  UNL1       -0.5492
     36 C           3.9028   -3.4501   19.6337 C.3     1  UNL1        0.3242
     37 F           2.5074   -3.9419   19.3873 F       1  UNL1       -0.2176
     38 C           4.4525   -4.6690   18.9540 C.3     1  UNL1        0.4363
     39 F           5.0022   -5.8880   18.2742 F       1  UNL1       -0.1666
     40 F           3.5791   -5.5392   19.8083 F       1  UNL1       -0.1666
     41 F           5.3864   -3.9539   18.0231 F       1  UNL1       -0.1666
     42 C           5.2982   -2.9582   19.8801 C.3     1  UNL1        0.4363
     43 F           6.6937   -2.4663   20.1265 F       1  UNL1       -0.1666
     44 F           5.7348   -4.0845   20.7693 F       1  UNL1       -0.1666
     45 F           5.3754   -1.6794   19.0997 F       1  UNL1       -0.1666
@<TRIPOS>UNITY_ATOM_ATTR
34 1
charge -1
@<TRIPOS>BOND
     1    27    26    1
     2    27    28    1
     3    28    29    1
     4    29    33    1
     5    33    34   ar
     6    33    35   ar
     7    29    30    1
     8    30    31    1
     9    31    32    1
    10    32    24    1
    11    24     1    1
    12     1     2    1
    13     2     3    1
    14     3     4    1
    15     4    14    1
    16    14    15    2
    17    14    16    2
    18    14    17    1
    19    17    18   ar
    20    18    19   ar
    21    19    20   ar
    22    20    21    1
    23    20    22   ar
    24    22    23   ar
    25     4     5    1
    26     5     6   ar
    27     6     7   ar
    28     7     8   ar
    29     8    36    1
    30    36    37    1
    31    36    38    1
    32    38    39    1
    33    38    40    1
    34    38    41    1
    35    36    42    1
    36    42    43    1
    37    42    44    1
    38    42    45    1
    39     8     9   ar
    40     9    10   ar
    41    10    11    1
    42    11    12    1
    43    13    12    1
    44    32    27    1
    45    13     1    1
    46    13     4    1
    47    23    17   ar
    48    10     5   ar
    49    24    25    1
@<TRIPOS>MOLECULE
*****
 45 49 0 0 0
SMALL
GASTEIGER

@<TRIPOS>ATOM
      1 N          -1.0221    3.1427   20.5473 N.3     1  UNL1       -0.2207
      2 C          -2.0923    4.1157   20.9447 C.3     1  UNL1        0.0906
      3 C          -2.1480    4.1569   22.4432 C.3     1  UNL1        0.0467
      4 C          -1.1122    3.2095   22.9717 C.3     1  UNL1        0.1492
      5 C          -0.7127    2.8365   24.3686 C.ar    1  UNL1       -0.0048
      6 C          -1.4085    3.4633   25.5403 C.ar    1  UNL1       -0.0032
      7 C          -1.0090    3.0903   26.9372 C.ar    1  UNL1       -0.0015
      8 C           0.0863    2.0905   27.1623 C.ar    1  UNL1        0.0232
      9 C           0.7821    1.4637   25.9906 C.ar    1  UNL1       -0.0057
     10 C           0.3826    1.8367   24.5938 C.ar    1  UNL1       -0.0247
     11 C           1.0785    1.2099   23.4220 C.3     1  UNL1        0.0276
     12 C           0.6790    1.5829   22.0252 C.3     1  UNL1        0.0241
     13 C          -0.4164    2.5827   21.8000 C.3     1  UNL1        0.0973
     14 S          -1.8944    3.9157   24.0391 S.O2    1  UNL1        0.0103
     15 O          -2.5132    3.4322   24.1765 O.2     1  UNL1       -0.1684
     16 O          -0.8897    5.0293   24.0387 O.2     1  UNL1       -0.1684
     17 C          -2.6768    4.6219   25.1065 C.ar    1  UNL1        0.1061
     18 C          -3.9317    4.0048   25.6489 C.ar    1  UNL1        0.0207
     19 C          -4.7140    4.7110   26.7163 C.ar    1  UNL1        0.0310
     20 C          -4.2413    6.0342   27.2412 C.ar    1  UNL1        0.1402
     21 F          -5.0237    6.7404   28.3087 F       1  UNL1       -0.2042
     22 C          -2.9863    6.6513   26.6988 C.ar    1  UNL1        0.0310
     23 C          -2.2041    5.9451   25.6315 C.ar    1  UNL1        0.0207
     24 N          -0.6270    2.7915   19.1434 N.3     1  UNL1       -0.2436
     25 H          -1.3000    2.1002   18.8123 H       1  UNL1        0.1416
     26 C           1.7565    4.6129   19.1049 C.3     1  UNL1        0.0014
     27 C           1.9296    3.1456   18.8462 C.3     1  UNL1        0.0161
     28 C           3.2945    2.5889   18.5683 C.3     1  UNL1        0.0069
     29 C           3.4676    1.1215   18.3096 C.3     1  UNL1        0.0366
     30 C           2.2758    0.2108   18.3289 C.3     1  UNL1        0.0070
     31 C           0.9110    0.7675   18.6068 C.3     1  UNL1        0.0175
     32 C           0.7378    2.2349   18.8655 C.3     1  UNL1        0.0687
     33 C           4.8325    0.5648   18.0317 C.2     1  UNL1        0.0500
     34 O           5.9623    0.8411   18.9789 O.co2   1  UNL1       -0.5492
     35 O           5.0675   -0.2681   16.8065 O.co2   1  UNL1       -0.5492
     36 C           0.4858    1.7175   28.5593 C.3     1  UNL1        0.3242
     37 F           1.3039    2.9707   28.6599 F       1  UNL1       -0.2176
     38 C           0.8853    1.3446   29.9561 C.3     1  UNL1        0.4363
     39 F           1.2847    0.9717   31.3531 F       1  UNL1       -0.1666
     40 F           2.3273    1.3425   29.5432 F       1  UNL1       -0.1666
     41 F          -0.4973    1.3012   30.5363 F       1  UNL1       -0.1666
     42 C          -0.3323    0.4644   28.4587 C.3     1  UNL1        0.4363
     43 F          -1.1505   -0.7889   28.3581 F       1  UNL1       -0.1666
     44 F           0.8043   -0.5065   28.5819 F       1  UNL1       -0.1666
     45 F          -1.7391    0.9609   28.3019 F       1  UNL1       -0.1666
@<TRIPOS>UNITY_ATOM_ATTR
34 1
charge -1
@<TRIPOS>BOND
     1    27    26    1
     2    27    28    1
     3    28    29    1
     4    29    33    1
     5    33    34   ar
     6    33    35   ar
     7    29    30    1
     8    30    31    1
     9    31    32    1
    10    32    24    1
    11    24     1    1
    12     1     2    1
    13     2     3    1
    14     3     4    1
    15     4    14    1
    16    14    15    2
    17    14    16    2
    18    14    17    1
    19    17    18   ar
    20    18    19   ar
    21    19    20   ar
    22    20    21    1
    23    20    22   ar
    24    22    23   ar
    25     4     5    1
    26     5     6   ar
    27     6     7   ar
    28     7     8   ar
    29     8    36    1
    30    36    37    1
    31    36    38    1
    32    38    39    1
    33    38    40    1
    34    38    41    1
    35    36    42    1
    36    42    43    1
    37    42    44    1
    38    42    45    1
    39     8     9   ar
    40     9    10   ar
    41    10    11    1
    42    11    12    1
    43    13    12    1
    44    32    27    1
    45    13     1    1
    46    13     4    1
    47    23    17   ar
    48    10     5   ar
    49    24    25    1
@<TRIPOS>MOLECULE
*****
 45 49 0 0 0
SMALL
GASTEIGER

@<TRIPOS>ATOM
      1 N           2.3826    1.5236   22.3315 N.3     1  UNL1       -0.2207
      2 C           2.9025    1.0650   23.6617 C.3     1  UNL1        0.0906
      3 C           1.9322    1.5080   24.7163 C.3     1  UNL1        0.0467
      4 C           0.8127    2.2403   24.0380 C.3     1  UNL1        0.1492
      5 C          -0.4243    2.8997   24.5720 C.ar    1  UNL1       -0.0048
      6 C          -0.7026    2.8900   26.0459 C.ar    1  UNL1       -0.0032
      7 C          -1.9396    3.5493   26.5799 C.ar    1  UNL1       -0.0015
      8 C          -2.8982    4.2183   25.6400 C.ar    1  UNL1        0.0232
      9 C          -2.6199    4.2280   24.1661 C.ar    1  UNL1       -0.0057
     10 C          -1.3830    3.5687   23.6321 C.ar    1  UNL1       -0.0247
     11 C          -1.1046    3.5783   22.1581 C.3     1  UNL1        0.0276
     12 C           0.1323    2.9190   21.6241 C.3     1  UNL1        0.0241
     13 C           1.0910    2.2500   22.5641 C.3     1  UNL1        0.0973
     14 S           0.6684    2.1505   25.5283 S.O2    1  UNL1        0.0103
     15 O           1.0544    2.7935   25.7985 O.2     1  UNL1       -0.1684
     16 O          -0.1161    0.8812   25.3760 O.2     1  UNL1       -0.1684
     17 C           0.5241    2.0608   27.0187 C.ar    1  UNL1        0.1061
     18 C           1.1331    3.1141   27.8959 C.ar    1  UNL1        0.0207
     19 C           0.9889    3.0244   29.3862 C.ar    1  UNL1        0.0310
     20 C           0.2357    1.8813   29.9993 C.ar    1  UNL1        0.1402
     21 F           0.0914    1.7916   31.4898 F       1  UNL1       -0.2042
     22 C          -0.3733    0.8279   29.1221 C.ar    1  UNL1        0.0310
     23 C          -0.2291    0.9177   27.6319 C.ar    1  UNL1        0.0207
     24 N           3.0390    1.2957   21.0021 N.3     1  UNL1       -0.2436
     25 H           2.3452    1.5200   20.2888 H       1  UNL1        0.1416
     26 C           1.1956   -0.8897   20.0934 C.3     1  UNL1        0.0014
     27 C           2.6686   -1.1493   20.2055 C.3     1  UNL1        0.0161
     28 C           3.2200   -2.5016   19.8633 C.3     1  UNL1        0.0069
     29 C           4.6931   -2.7613   19.9755 C.3     1  UNL1        0.0366
     30 C           5.6149   -1.6686   20.4298 C.3     1  UNL1        0.0070
     31 C           5.0635   -0.3163   20.7720 C.3     1  UNL1        0.0175
     32 C           3.5903   -0.0566   20.6599 C.3     1  UNL1        0.0687
     33 C           5.2445   -4.1137   19.6333 C.2     1  UNL1        0.0500
     34 O           4.6174   -4.9241   18.5377 O.co2   1  UNL1       -0.5492
     35 O           6.4230   -4.6557   20.3866 O.co2   1  UNL1       -0.5492
     36 C          -4.1352    4.8777   26.1740 C.3     1  UNL1        0.3242
     37 F          -4.5829    3.5685   26.7533 F       1  UNL1       -0.2176
     38 C          -5.3722    5.5370   26.7080 C.3     1  UNL1        0.4363
     39 F          -6.6092    6.1963   27.2421 F       1  UNL1       -0.1666
     40 F          -6.2142    4.6991   25.7921 F       1  UNL1       -0.1666
     41 F          -4.6873    6.4490   27.6823 F       1  UNL1       -0.1666
     42 C          -3.6876    6.1869   25.5947 C.3     1  UNL1        0.4363
     43 F          -3.2398    7.4961   25.0154 F       1  UNL1       -0.1666
     44 F          -4.8243    6.3588   24.6313 F       1  UNL1       -0.1666
     45 F          -2.4146    6.4916   26.3274 F       1  UNL1       -0.1666
@<TRIPOS>UNITY_ATOM_ATTR
34 1
charge -1
@<TRIPOS>BOND
     1    27    26    1
     2    27    28    1
     3    28    29    1
     4    29    33    1
     5    33    34   ar
     6    33    35   ar
     7    29    30    1
     8    30    31    1
     9    31    32    1
    10    32    24    1
    11    24     1    1
    12     1     2    1
    13     2     3    1
    14     3     4    1
    15     4    14    1
    16    14    15    2
    17    14    16    2
    18    14    17    1
    19    17    18   ar
    20    18    19   ar
    21    19    20   ar
    22    20    21    1
    23    20    22   ar
    24    22    23   ar
    25     4     5    1
    26     5     6   ar
    27     6     7   ar
    28     7     8   ar
    29     8    36    1
    30    36    37    1
    31    36    38    1
    32    38    39    1
    33    38    40    1
    34    38    41    1
    35    36    42    1
    36    42    43    1
    37    42    44    1
    38    42    45    1
    39     8     9   ar
    40     9    10   ar
    41    10    11    1
    42    11    12    1
    43    13    12    1
    44    32    27    1
    45    13     1    1
    46    13     4    1
    47    23    17   ar
    48    10     5   ar
    49    24    25    1
@<TRIPOS>MOLECULE
*****
 45 49 0 0 0
SMALL
GASTEIGER

@<TRIPOS>ATOM
      1 N           7.0151   -4.5244   22.3496 N.3     1  UNL1       -0.2207
      2 C           7.9250   -5.2409   23.3028 C.3     1  UNL1        0.0906
      3 C           7.6093   -4.7662   24.6903 C.3     1  UNL1        0.0467
      4 C           6.5044   -3.7563   24.5945 C.3     1  UNL1        0.1492
      5 C           5.7853   -2.9534   25.6377 C.ar    1  UNL1       -0.0048
      6 C           6.1525   -3.1029   27.0843 C.ar    1  UNL1       -0.0032
      7 C           5.4334   -2.3000   28.1274 C.ar    1  UNL1       -0.0015
      8 C           4.3469   -1.3477   27.7240 C.ar    1  UNL1        0.0232
      9 C           3.9797   -1.1983   26.2774 C.ar    1  UNL1       -0.0057
     10 C           4.6988   -2.0011   25.2342 C.ar    1  UNL1       -0.0247
     11 C           4.3316   -1.8517   23.7875 C.3     1  UNL1        0.0276
     12 C           5.0507   -2.6546   22.7444 C.3     1  UNL1        0.0241
     13 C           6.1372   -3.6069   23.1479 C.3     1  UNL1        0.0973
     14 S           6.9787   -4.0109   25.9946 S.O2    1  UNL1        0.0103
     15 O           6.5242   -4.6159   26.2451 O.2     1  UNL1       -0.1684
     16 O           7.9783   -2.9010   25.8578 O.2     1  UNL1       -0.1684
     17 C           7.4529   -4.2655   27.3947 C.ar    1  UNL1        0.1061
     18 C           6.7949   -5.3246   28.2284 C.ar    1  UNL1        0.0207
     19 C           7.2691   -5.5792   29.6285 C.ar    1  UNL1        0.0310
     20 C           8.4013   -4.7747   30.1949 C.ar    1  UNL1        0.1402
     21 F           8.8755   -5.0293   31.5951 F       1  UNL1       -0.2042
     22 C           9.0593   -3.7155   29.3611 C.ar    1  UNL1        0.0310
     23 C           8.5851   -3.4609   27.9611 C.ar    1  UNL1        0.0207
     24 N           6.9879   -4.6954   20.8595 N.3     1  UNL1       -0.2436
     25 H           7.8903   -5.0885   20.5917 H       1  UNL1        0.1416
     26 C           4.6201   -4.6462   19.0180 C.3     1  UNL1        0.0014
     27 C           5.5682   -3.4843   19.0519 C.3     1  UNL1        0.0161
     28 C           5.3324   -2.2978   18.1651 C.3     1  UNL1        0.0069
     29 C           6.2804   -1.1359   18.1990 C.3     1  UNL1        0.0366
     30 C           7.4643   -1.1604   19.1198 C.3     1  UNL1        0.0070
     31 C           7.7001   -2.3470   20.0066 C.3     1  UNL1        0.0175
     32 C           6.7521   -3.5090   19.9727 C.3     1  UNL1        0.0687
     33 C           6.0445    0.0507   17.3121 C.2     1  UNL1        0.0500
     34 O           7.1328    0.5329   16.3994 O.co2   1  UNL1       -0.5492
     35 O           4.7204    0.7551   17.3380 O.co2   1  UNL1       -0.5492
     36 C           3.6278   -0.5448   28.7672 C.3     1  UNL1        0.3242
     37 F           2.3147   -1.0661   28.2631 F       1  UNL1       -0.2176
     38 C           2.9086    0.2580   29.8104 C.3     1  UNL1        0.4363
     39 F           2.1894    1.0609   30.8536 F       1  UNL1       -0.1666
     40 F           2.2903   -0.9975   30.3503 F       1  UNL1       -0.1666
     41 F           3.4345    1.6020   29.4016 F       1  UNL1       -0.1666
     42 C           4.9408   -0.0236   29.2713 C.3     1  UNL1        0.4363
     43 F           6.2539    0.4977   29.7755 F       1  UNL1       -0.1666
     44 F           5.3449    0.6960   28.0188 F       1  UNL1       -0.1666
     45 F           5.0200   -0.5389   30.6779 F       1  UNL1       -0.1666
@<TRIPOS>UNITY_ATOM_ATTR
34 1
charge -1
@<TRIPOS>BOND
     1    27    26    1
     2    27    28    1
     3    28    29    1
     4    29    33    1
     5    33    34   ar
     6    33    35   ar
     7    29    30    1
     8    30    31    1
     9    31    32    1
    10    32    24    1
    11    24     1    1
    12     1     2    1
    13     2     3    1
    14     3     4    1
    15     4    14    1
    16    14    15    2
    17    14    16    2
    18    14    17    1
    19    17    18   ar
    20    18    19   ar
    21    19    20   ar
    22    20    21    1
    23    20    22   ar
    24    22    23   ar
    25     4     5    1
    26     5     6   ar
    27     6     7   ar
    28     7     8   ar
    29     8    36    1
    30    36    37    1
    31    36    38    1
    32    38    39    1
    33    38    40    1
    34    38    41    1
    35    36    42    1
    36    42    43    1
    37    42    44    1
    38    42    45    1
    39     8     9   ar
    40     9    10   ar
    41    10    11    1
    42    11    12    1
    43    13    12    1
    44    32    27    1
    45    13     1    1
    46    13     4    1
    47    23    17   ar
    48    10     5   ar
    49    24    25    1
@<TRIPOS>MOLECULE
*****
 45 49 0 0 0
SMALL
GASTEIGER

@<TRIPOS>ATOM
      1 N           3.2388    1.4306   26.9143 N.3     1  UNL1       -0.2207
      2 C           2.4529    2.3717   26.0503 C.3     1  UNL1        0.0906
      3 C           2.3944    1.7924   24.6678 C.3     1  UNL1        0.0467
      4 C           3.1442    0.4933   24.6776 C.3     1  UNL1        0.1492
      5 C           3.4192   -0.5149   23.6015 C.ar    1  UNL1       -0.0048
      6 C           2.8974   -0.2913   22.2131 C.ar    1  UNL1       -0.0032
      7 C           3.1724   -1.2995   21.1371 C.ar    1  UNL1       -0.0015
      8 C           3.9692   -2.5313   21.4495 C.ar    1  UNL1        0.0232
      9 C           4.4911   -2.7550   22.8379 C.ar    1  UNL1       -0.0057
     10 C           4.2161   -1.7468   23.9139 C.ar    1  UNL1       -0.0247
     11 C           4.7379   -1.9704   25.3023 C.3     1  UNL1        0.0276
     12 C           4.4629   -0.9622   26.3783 C.3     1  UNL1        0.0241
     13 C           3.6661    0.2697   26.0660 C.3     1  UNL1        0.0973
     14 S           2.5605    0.8509   23.3429 S.O2    1  UNL1        0.0103
     15 O           1.8338    0.5234   23.3562 O.2     1  UNL1       -0.1684
     16 O           3.8241    1.5752   22.9843 O.2     1  UNL1       -0.1684
     17 C           1.9768    1.2085   22.0082 C.ar    1  UNL1        0.1061
     18 C           0.5875    0.7672   21.6547 C.ar    1  UNL1        0.0207
     19 C           0.0037    1.1248   20.3201 C.ar    1  UNL1        0.0310
     20 C           0.8093    1.9237   19.3389 C.ar    1  UNL1        0.1402
     21 F           0.2255    2.2813   18.0041 F       1  UNL1       -0.2042
     22 C           2.1987    2.3651   19.6924 C.ar    1  UNL1        0.0310
     23 C           2.7823    2.0075   21.0270 C.ar    1  UNL1        0.0207
     24 N           3.5439    1.6175   28.3711 N.3     1  UNL1       -0.2436
     25 H           3.5475    0.6888   28.7928 H       1  UNL1        0.1416
     26 C           1.0720    0.4497   29.6065 C.3     1  UNL1        0.0014
     27 C           1.4168    1.8911   29.8376 C.3     1  UNL1        0.0161
     28 C           0.5256    2.7486   30.6864 C.3     1  UNL1        0.0069
     29 C           0.8703    4.1900   30.9176 C.3     1  UNL1        0.0366
     30 C           2.1063    4.7740   30.2999 C.3     1  UNL1        0.0070
     31 C           2.9974    3.9164   29.4511 C.3     1  UNL1        0.0175
     32 C           2.6527    2.4750   29.2199 C.3     1  UNL1        0.0687
     33 C          -0.0208    5.0475   31.7664 C.2     1  UNL1        0.0500
     34 O          -0.7142    6.2340   31.1651 O.co2   1  UNL1       -0.5492
     35 O          -0.2186    4.7186   33.2165 O.co2   1  UNL1       -0.5492
     36 C           4.2442   -3.5396   20.3734 C.3     1  UNL1        0.3242
     37 F           3.8590   -4.6452   21.3110 F       1  UNL1       -0.2176
     38 C           4.5192   -4.5478   19.2974 C.3     1  UNL1        0.4363
     39 F           4.7942   -5.5561   18.2213 F       1  UNL1       -0.1666
     40 F           3.1511   -5.1306   19.4939 F       1  UNL1       -0.1666
     41 F           5.9106   -4.0923   18.9712 F       1  UNL1       -0.1666
     42 C           4.6294   -2.4339   19.4358 C.3     1  UNL1        0.4363
     43 F           5.0147   -1.3282   18.4982 F       1  UNL1       -0.1666
     44 F           3.5415   -2.6609   18.4286 F       1  UNL1       -0.1666
     45 F           5.8322   -1.8126   20.0820 F       1  UNL1       -0.1666
@<TRIPOS>UNITY_ATOM_ATTR
34 1
charge -1
@<TRIPOS>BOND
     1    27    26    1
     2    27    28    1
     3    28    29    1
     4    29    33    1
     5    33    34   ar
     6    33    35   ar
     7    29    30    1
     8    30    31    1
     9    31    32    1
    10    32    24    1
    11    24     1    1
    12     1     2    1
    13     2     3    1
    14     3     4    1
    15     4    14    1
    16    14    15    2
    17    14    16    2
    18    14    17    1
    19    17    18   ar
    20    18    19   ar
    21    19    20   ar
    22    20    21    1
    23    20    22   ar
    24    22    23   ar
    25     4     5    1
    26     5     6   ar
    27     6     7   ar
    28     7     8   ar
    29     8    36    1
    30    36    37    1
    31    36    38    1
    32    38    39    1
    33    38    40    1
    34    38    41    1
    35    36    42    1
    36    42    43    1
    37    42    44    1
    38    42    45    1
    39     8     9   ar
    40     9    10   ar
    41    10    11    1
    42    11    12    1
    43    13    12    1
    44    32    27    1
    45    13     1    1
    46    13     4    1
    47    23    17   ar
    48    10     5   ar
    49    24    25    1
@<TRIPOS>MOLECULE
*****
 45 49 0 0 0
SMALL
GASTEIGER

@<TRIPOS>ATOM
      1 N           1.3714    1.1062   22.0224 N.3     1  UNL1       -0.2207
      2 C           1.9699    0.5722   23.2899 C.3     1  UNL1        0.0906
      3 C           1.2140    1.1617   24.4437 C.3     1  UNL1        0.0467
      4 C           0.1484    2.0599   23.8892 C.3     1  UNL1        0.1492
      5 C          -0.8980    2.9047   24.5537 C.ar    1  UNL1       -0.0048
      6 C          -0.9953    2.9389   26.0501 C.ar    1  UNL1       -0.0032
      7 C          -2.0417    3.7836   26.7145 C.ar    1  UNL1       -0.0015
      8 C          -2.9908    4.5941   25.8825 C.ar    1  UNL1        0.0232
      9 C          -2.8936    4.5599   24.3861 C.ar    1  UNL1       -0.0057
     10 C          -1.8472    3.7151   23.7217 C.ar    1  UNL1       -0.0247
     11 C          -1.7499    3.6808   22.2252 C.3     1  UNL1        0.0276
     12 C          -0.7035    2.8361   21.5608 C.3     1  UNL1        0.0241
     13 C           0.2456    2.0256   22.3928 C.3     1  UNL1        0.0973
     14 S           0.1721    1.9941   25.3876 S.O2    1  UNL1        0.0103
     15 O          -0.3268    1.3974   25.5624 O.2     1  UNL1       -0.1684
     16 O           1.1456    3.1347   25.4224 O.2     1  UNL1       -0.1684
     17 C           0.1958    1.9282   26.8860 C.ar    1  UNL1        0.1061
     18 C          -0.5811    0.8637   27.6023 C.ar    1  UNL1        0.0207
     19 C          -0.5574    0.7977   29.1006 C.ar    1  UNL1        0.0310
     20 C           0.2432    1.7964   29.8827 C.ar    1  UNL1        0.1402
     21 F           0.2669    1.7305   31.3811 F       1  UNL1       -0.2042
     22 C           1.0201    2.8610   29.1664 C.ar    1  UNL1        0.0310
     23 C           0.9964    2.9269   27.6681 C.ar    1  UNL1        0.0207
     24 N           1.8199    0.7783   20.6290 N.3     1  UNL1       -0.2436
     25 H           1.0040    0.4180   20.1342 H       1  UNL1        0.1416
     26 C           4.6776    1.6831   20.7529 C.3     1  UNL1        0.0014
     27 C           4.3578    0.2446   20.4727 C.3     1  UNL1        0.0161
     28 C           5.4668   -0.7415   20.2544 C.3     1  UNL1        0.0069
     29 C           5.1471   -2.1799   19.9742 C.3     1  UNL1        0.0366
     30 C           3.7183   -2.6324   19.9122 C.3     1  UNL1        0.0070
     31 C           2.6092   -1.6463   20.1305 C.3     1  UNL1        0.0175
     32 C           2.9290   -0.2077   20.4108 C.3     1  UNL1        0.0687
     33 C           6.2561   -3.1660   19.7559 C.2     1  UNL1        0.0500
     34 O           7.5519   -2.7154   19.1493 O.co2   1  UNL1       -0.5492
     35 O           6.0694   -4.6029   20.1441 O.co2   1  UNL1       -0.5492
     36 C          -4.0372    5.4389   26.5470 C.3     1  UNL1        0.3242
     37 F          -2.9970    6.0018   27.4694 F       1  UNL1       -0.2176
     38 C          -5.0835    6.2836   27.2115 C.3     1  UNL1        0.4363
     39 F          -6.1300    7.1284   27.8760 F       1  UNL1       -0.1666
     40 F          -4.2634    7.5105   26.9432 F       1  UNL1       -0.1666
     41 F          -6.0252    5.1688   27.5587 F       1  UNL1       -0.1666
     42 C          -5.0775    4.8760   25.6245 C.3     1  UNL1        0.4363
     43 F          -6.1178    4.3130   24.7021 F       1  UNL1       -0.1666
     44 F          -5.5078    6.1784   25.0176 F       1  UNL1       -0.1666
     45 F          -5.0325    3.3993   25.8847 F       1  UNL1       -0.1666
@<TRIPOS>UNITY_ATOM_ATTR
34 1
charge -1
@<TRIPOS>BOND
     1    27    26    1
     2    27    28    1
     3    28    29    1
     4    29    33    1
     5    33    34   ar
     6    33    35   ar
     7    29    30    1
     8    30    31    1
     9    31    32    1
    10    32    24    1
    11    24     1    1
    12     1     2    1
    13     2     3    1
    14     3     4    1
    15     4    14    1
    16    14    15    2
    17    14    16    2
    18    14    17    1
    19    17    18   ar
    20    18    19   ar
    21    19    20   ar
    22    20    21    1
    23    20    22   ar
    24    22    23   ar
    25     4     5    1
    26     5     6   ar
    27     6     7   ar
    28     7     8   ar
    29     8    36    1
    30    36    37    1
    31    36    38    1
    32    38    39    1
    33    38    40    1
    34    38    41    1
    35    36    42    1
    36    42    43    1
    37    42    44    1
    38    42    45    1
    39     8     9   ar
    40     9    10   ar
    41    10    11    1
    42    11    12    1
    43    13    12    1
    44    32    27    1
    45    13     1    1
    46    13     4    1
    47    23    17   ar
    48    10     5   ar
    49    24    25    1
