@<TRIPOS>MOLECULE
*****
 23 26 0 0 0
SMALL
GASTEIGER

@<TRIPOS>ATOM
      1 O          -8.4424  -19.4780   20.6352 O.2     1  UNL1       -0.2448
      2 C          -8.8506  -18.1341   21.1617 C.2     1  UNL1        0.3428
      3 C         -10.3045  -17.7999   21.3182 C.2     1  UNL1        0.0963
      4 C         -11.1618  -17.0985   20.3066 C.2     1  UNL1        0.1049
      5 N         -12.5435  -16.9735   20.8769 N.2     1  UNL1       -0.2475
      6 C         -12.5402  -17.5976   22.2409 C.2     1  UNL1        0.0665
      7 C         -13.6184  -17.7669   23.2698 C.3     1  UNL1        0.1022
      8 C         -13.3129  -18.4469   24.5715 C.2     1  UNL1        0.1241
      9 F         -14.3912  -18.6161   25.6005 F       1  UNL1       -0.2084
     10 C         -11.9292  -18.9576   24.8442 C.2     1  UNL1        0.0323
     11 C         -10.8509  -18.7883   23.8152 C.2     1  UNL1        0.0379
     12 BR         -9.4671  -19.2991   24.0879 Br      1  UNL1       -0.0489
     13 C         -11.1564  -18.1084   22.5136 C.2     1  UNL1        0.0280
     14 O          -7.8049  -17.1244   21.5318 O.3     1  UNL1       -0.4454
     15 C          -8.1878  -15.8964   22.3035 C.3     1  UNL1        0.2087
     16 C          -7.7491  -15.7395   23.7293 C.3     1  UNL1        0.0445
     17 C          -6.2919  -15.5947   24.0541 C.3     1  UNL1        0.0210
     18 C          -5.8533  -15.4378   25.4800 C.3     1  UNL1        0.0722
     19 N          -6.8720  -15.4258   26.5810 N.3     1  UNL1       -0.2727
     20 C          -8.3292  -15.5707   26.2561 C.3     1  UNL1        0.0722
     21 C          -8.7678  -15.7276   24.8303 C.3     1  UNL1        0.0210
     22 C          -7.1603  -15.5144   25.8149 C.3     1  UNL1        0.0722
     23 C          -7.5570  -15.6562   24.5256 C.3     1  UNL1        0.0210
@<TRIPOS>BOND
     1     1     2    2
     2     2    14    1
     3    14    15    1
     4    15    16    1
     5    16    17    1
     6    17    18    1
     7    18    19    1
     8    19    20    1
     9    20    21    1
    10    19    22    1
    11    22    23    1
    12     2     3    1
    13     3     4    2
    14     4     5    1
    15     5     6    2
    16     6     7    1
    17     7     8    1
    18     8     9    1
    19     8    10    2
    20    10    11    1
    21    11    12    1
    22    11    13    2
    23    21    16    1
    24    13     3    1
    25    23    16    1
    26    13     6    1
@<TRIPOS>MOLECULE
*****
 23 26 0 0 0
SMALL
GASTEIGER

@<TRIPOS>ATOM
      1 O          -8.1477  -18.5653   20.3351 O.2     1  UNL1       -0.2448
      2 C          -8.2467  -17.8598   21.6552 C.2     1  UNL1        0.3428
      3 C          -9.0895  -18.4378   22.7531 C.2     1  UNL1        0.0963
      4 C          -8.6204  -19.3801   23.8217 C.2     1  UNL1        0.1049
      5 N          -9.7905  -19.6996   24.7043 N.2     1  UNL1       -0.2475
      6 C         -10.9827  -18.9547   24.1811 C.2     1  UNL1        0.0665
      7 C         -12.4069  -18.8858   24.6470 C.3     1  UNL1        0.1022
      8 C         -13.3979  -18.0370   23.9070 C.2     1  UNL1        0.1241
      9 F         -14.8220  -17.9681   24.3728 F       1  UNL1       -0.2084
     10 C         -12.9646  -17.2572   22.7011 C.2     1  UNL1        0.0323
     11 C         -11.5404  -17.3261   22.2352 C.2     1  UNL1        0.0379
     12 BR        -11.1072  -16.5463   21.0293 Br      1  UNL1       -0.0489
     13 C         -10.5495  -18.1749   22.9752 C.2     1  UNL1        0.0280
     14 O          -7.5028  -16.5764   21.8772 O.3     1  UNL1       -0.4454
     15 C          -8.0401  -15.5538   22.8341 C.3     1  UNL1        0.2087
     16 C          -7.5957  -15.5607   24.2667 C.3     1  UNL1        0.0445
     17 C          -6.1621  -15.2815   24.6086 C.3     1  UNL1        0.0210
     18 C          -5.7177  -15.2884   26.0412 C.3     1  UNL1        0.0722
     19 N          -6.7069  -15.5744   27.1320 N.3     1  UNL1       -0.2727
     20 C          -8.1404  -15.8535   26.7901 C.3     1  UNL1        0.0722
     21 C          -8.5848  -15.8467   25.3575 C.3     1  UNL1        0.0210
     22 C          -6.9973  -15.5816   26.3616 C.3     1  UNL1        0.0722
     23 C          -7.3993  -15.5754   25.0662 C.3     1  UNL1        0.0210
@<TRIPOS>BOND
     1     1     2    2
     2     2    14    1
     3    14    15    1
     4    15    16    1
     5    16    17    1
     6    17    18    1
     7    18    19    1
     8    19    20    1
     9    20    21    1
    10    19    22    1
    11    22    23    1
    12     2     3    1
    13     3     4    2
    14     4     5    1
    15     5     6    2
    16     6     7    1
    17     7     8    1
    18     8     9    1
    19     8    10    2
    20    10    11    1
    21    11    12    1
    22    11    13    2
    23    21    16    1
    24    13     3    1
    25    23    16    1
    26    13     6    1
@<TRIPOS>MOLECULE
*****
 23 26 0 0 0
SMALL
GASTEIGER

@<TRIPOS>ATOM
      1 O          -6.2623  -17.2175   22.7600 O.2     1  UNL1       -0.2448
      2 C          -7.1563  -18.1054   21.9463 C.2     1  UNL1        0.3428
      3 C          -8.3035  -18.8169   22.6005 C.2     1  UNL1        0.0963
      4 C          -8.2722  -20.2056   23.1666 C.2     1  UNL1        0.1049
      5 N          -9.6327  -20.5114   23.7193 N.2     1  UNL1       -0.2475
      6 C         -10.5047  -19.3118   23.4949 C.2     1  UNL1        0.0665
      7 C         -11.9407  -19.0378   23.8308 C.3     1  UNL1        0.1022
      8 C         -12.5552  -17.7164   23.4752 C.2     1  UNL1        0.1241
      9 F         -13.9912  -17.4423   23.8111 F       1  UNL1       -0.2084
     10 C         -11.7337  -16.6690   22.7837 C.2     1  UNL1        0.0323
     11 C         -10.2976  -16.9431   22.4477 C.2     1  UNL1        0.0379
     12 BR         -9.4761  -15.8958   21.7562 Br      1  UNL1       -0.0489
     13 C          -9.6832  -18.2645   22.8033 C.2     1  UNL1        0.0280
     14 O          -6.9032  -18.2820   20.4784 O.3     1  UNL1       -0.4454
     15 C          -5.9820  -19.3652   20.0010 C.3     1  UNL1        0.2087
     16 C          -4.5026  -19.2396   20.2143 C.3     1  UNL1        0.0445
     17 C          -3.8787  -19.7672   21.4723 C.3     1  UNL1        0.0210
     18 C          -2.3993  -19.6415   21.6856 C.3     1  UNL1        0.0722
     19 N          -1.5437  -18.9883   20.6409 N.3     1  UNL1       -0.2727
     20 C          -2.1676  -18.4608   19.3829 C.3     1  UNL1        0.0722
     21 C          -3.6470  -18.5864   19.1697 C.3     1  UNL1        0.0210
     22 C          -2.3498  -19.0343   20.4794 C.3     1  UNL1        0.0722
     23 C          -3.6875  -19.1478   20.2864 C.3     1  UNL1        0.0210
@<TRIPOS>BOND
     1     1     2    2
     2     2    14    1
     3    14    15    1
     4    15    16    1
     5    16    17    1
     6    17    18    1
     7    18    19    1
     8    19    20    1
     9    20    21    1
    10    19    22    1
    11    22    23    1
    12     2     3    1
    13     3     4    2
    14     4     5    1
    15     5     6    2
    16     6     7    1
    17     7     8    1
    18     8     9    1
    19     8    10    2
    20    10    11    1
    21    11    12    1
    22    11    13    2
    23    21    16    1
    24    13     3    1
    25    23    16    1
    26    13     6    1
@<TRIPOS>MOLECULE
*****
 23 26 0 0 0
SMALL
GASTEIGER

@<TRIPOS>ATOM
      1 O          -6.8885  -20.2261   21.9594 O.2     1  UNL1       -0.2448
      2 C          -7.2709  -19.2292   20.9059 C.2     1  UNL1        0.3428
      3 C          -8.7163  -19.0093   20.5708 C.2     1  UNL1        0.0963
      4 C          -9.4747  -19.6731   19.4599 C.2     1  UNL1        0.1049
      5 N         -10.8842  -19.1610   19.4903 N.2     1  UNL1       -0.2475
      6 C         -10.9970  -18.1806   20.6200 C.2     1  UNL1        0.0665
      7 C         -12.1466  -17.3612   21.1268 C.3     1  UNL1        0.1022
      8 C         -11.9564  -16.4480   22.3016 C.2     1  UNL1        0.1241
      9 F         -13.1060  -15.6286   22.8084 F       1  UNL1       -0.2084
     10 C         -10.6165  -16.3542   22.9694 C.2     1  UNL1        0.0323
     11 C          -9.4669  -17.1737   22.4624 C.2     1  UNL1        0.0379
     12 BR         -8.1270  -17.0799   23.1302 Br      1  UNL1       -0.0489
     13 C          -9.6571  -18.0869   21.2878 C.2     1  UNL1        0.0280
     14 O          -6.2078  -18.4521   20.1876 O.3     1  UNL1       -0.4454
     15 C          -5.0794  -19.1730   19.5114 C.3     1  UNL1        0.2087
     16 C          -3.6651  -18.9289   19.9476 C.3     1  UNL1        0.0445
     17 C          -3.2066  -19.3911   21.2989 C.3     1  UNL1        0.0210
     18 C          -1.7923  -19.1469   21.7350 C.3     1  UNL1        0.0722
     19 N          -0.8365  -18.4407   20.8197 N.3     1  UNL1       -0.2727
     20 C          -1.2951  -17.9785   19.4684 C.3     1  UNL1        0.0722
     21 C          -2.7094  -18.2226   19.0323 C.3     1  UNL1        0.0210
     22 C          -1.6017  -18.5517   20.5369 C.3     1  UNL1        0.0722
     23 C          -2.8805  -18.7724   20.1424 C.3     1  UNL1        0.0210
@<TRIPOS>BOND
     1     1     2    2
     2     2    14    1
     3    14    15    1
     4    15    16    1
     5    16    17    1
     6    17    18    1
     7    18    19    1
     8    19    20    1
     9    20    21    1
    10    19    22    1
    11    22    23    1
    12     2     3    1
    13     3     4    2
    14     4     5    1
    15     5     6    2
    16     6     7    1
    17     7     8    1
    18     8     9    1
    19     8    10    2
    20    10    11    1
    21    11    12    1
    22    11    13    2
    23    21    16    1
    24    13     3    1
    25    23    16    1
    26    13     6    1
@<TRIPOS>MOLECULE
*****
 23 26 0 0 0
SMALL
GASTEIGER

@<TRIPOS>ATOM
      1 O          -7.2587  -16.9467   23.1363 O.2     1  UNL1       -0.2448
      2 C          -8.2285  -17.6626   22.2437 C.2     1  UNL1        0.3428
      3 C          -9.6396  -17.1690   22.1205 C.2     1  UNL1        0.0963
      4 C         -10.1232  -16.1075   21.1775 C.2     1  UNL1        0.1049
      5 N         -11.5974  -15.9328   21.3930 N.2     1  UNL1       -0.2475
      6 C         -12.0248  -16.8862   22.4692 C.2     1  UNL1        0.0665
      7 C         -13.3594  -17.1574   23.0978 C.3     1  UNL1        0.1022
      8 C         -13.4841  -18.1926   24.1762 C.2     1  UNL1        0.1241
      9 F         -14.8187  -18.4638   24.8048 F       1  UNL1       -0.2084
     10 C         -12.2741  -18.9567   24.6258 C.2     1  UNL1        0.0323
     11 C         -10.9395  -18.6855   23.9972 C.2     1  UNL1        0.0379
     12 BR         -9.7295  -19.4495   24.4468 Br      1  UNL1       -0.0489
     13 C         -10.8148  -17.6503   22.9189 C.2     1  UNL1        0.0280
     14 O          -7.7872  -18.8722   21.4741 O.3     1  UNL1       -0.4454
     15 C          -6.7804  -19.8126   22.0675 C.3     1  UNL1        0.2087
     16 C          -5.3446  -19.7419   21.6394 C.3     1  UNL1        0.0445
     17 C          -4.9273  -20.3135   20.3168 C.3     1  UNL1        0.0210
     18 C          -3.4915  -20.2428   19.8887 C.3     1  UNL1        0.0722
     19 N          -2.4729  -19.6005   20.7831 N.3     1  UNL1       -0.2727
     20 C          -2.8902  -19.0289   22.1057 C.3     1  UNL1        0.0722
     21 C          -4.3261  -19.0996   22.5338 C.3     1  UNL1        0.0210
     22 C          -3.2479  -19.6157   21.0607 C.3     1  UNL1        0.0722
     23 C          -4.5462  -19.6796   21.4479 C.3     1  UNL1        0.0210
@<TRIPOS>BOND
     1     1     2    2
     2     2    14    1
     3    14    15    1
     4    15    16    1
     5    16    17    1
     6    17    18    1
     7    18    19    1
     8    19    20    1
     9    20    21    1
    10    19    22    1
    11    22    23    1
    12     2     3    1
    13     3     4    2
    14     4     5    1
    15     5     6    2
    16     6     7    1
    17     7     8    1
    18     8     9    1
    19     8    10    2
    20    10    11    1
    21    11    12    1
    22    11    13    2
    23    21    16    1
    24    13     3    1
    25    23    16    1
    26    13     6    1
@<TRIPOS>MOLECULE
*****
 23 26 0 0 0
SMALL
GASTEIGER

@<TRIPOS>ATOM
      1 O          -6.5560  -20.1867   22.0165 O.2     1  UNL1       -0.2448
      2 C          -6.8331  -18.8600   21.3738 C.2     1  UNL1        0.3428
      3 C          -7.8096  -17.9111   22.0031 C.2     1  UNL1        0.0963
      4 C          -7.5197  -16.9683   23.1331 C.2     1  UNL1        0.1049
      5 N          -8.7785  -16.2130   23.4411 N.2     1  UNL1       -0.2475
      6 C          -9.8464  -16.6891   22.5015 C.2     1  UNL1        0.0665
      7 C         -11.2868  -16.3025   22.3404 C.3     1  UNL1        0.1022
      8 C         -12.1284  -16.9654   21.2905 C.2     1  UNL1        0.1241
      9 F         -13.5687  -16.5788   21.1294 F       1  UNL1       -0.2084
     10 C         -11.5296  -18.0149   20.4017 C.2     1  UNL1        0.0323
     11 C         -10.0892  -18.4015   20.5628 C.2     1  UNL1        0.0379
     12 BR         -9.4904  -19.4510   19.6741 Br      1  UNL1       -0.0489
     13 C          -9.2477  -17.7386   21.6127 C.2     1  UNL1        0.0280
     14 O          -6.1335  -18.4822   20.1019 O.3     1  UNL1       -0.4454
     15 C          -4.9959  -19.3180   19.5947 C.3     1  UNL1        0.2087
     16 C          -3.5870  -18.9840   19.9864 C.3     1  UNL1        0.0445
     17 C          -2.6852  -18.2809   19.0156 C.3     1  UNL1        0.0210
     18 C          -1.2763  -17.9470   19.4074 C.3     1  UNL1        0.0722
     19 N          -0.7693  -18.3161   20.7700 N.3     1  UNL1       -0.2727
     20 C          -1.6711  -19.0192   21.7408 C.3     1  UNL1        0.0722
     21 C          -3.0799  -19.3532   21.3490 C.3     1  UNL1        0.0210
     22 C          -1.5488  -18.5199   20.6006 C.3     1  UNL1        0.0722
     23 C          -2.8227  -18.8219   20.2464 C.3     1  UNL1        0.0210
@<TRIPOS>BOND
     1     1     2    2
     2     2    14    1
     3    14    15    1
     4    15    16    1
     5    16    17    1
     6    17    18    1
     7    18    19    1
     8    19    20    1
     9    20    21    1
    10    19    22    1
    11    22    23    1
    12     2     3    1
    13     3     4    2
    14     4     5    1
    15     5     6    2
    16     6     7    1
    17     7     8    1
    18     8     9    1
    19     8    10    2
    20    10    11    1
    21    11    12    1
    22    11    13    2
    23    21    16    1
    24    13     3    1
    25    23    16    1
    26    13     6    1
@<TRIPOS>MOLECULE
*****
 23 26 0 0 0
SMALL
GASTEIGER

@<TRIPOS>ATOM
      1 O          -8.8496  -20.0561   22.5263 O.2     1  UNL1       -0.2448
      2 C          -8.0397  -19.1581   21.6388 C.2     1  UNL1        0.3428
      3 C          -6.8976  -18.3711   22.2099 C.2     1  UNL1        0.0963
      4 C          -7.0129  -17.1519   23.0761 C.2     1  UNL1        0.1049
      5 N          -5.6262  -16.6924   23.4166 N.2     1  UNL1       -0.2475
      6 C          -4.6538  -17.6276   22.7608 C.2     1  UNL1        0.0665
      7 C          -3.1545  -17.6685   22.7464 C.3     1  UNL1        0.1022
      8 C          -2.4409  -18.7469   21.9862 C.2     1  UNL1        0.1241
      9 F          -0.9415  -18.7877   21.9718 F       1  UNL1       -0.2084
     10 C          -3.2266  -19.7844   21.2405 C.2     1  UNL1        0.0323
     11 C          -4.7261  -19.7434   21.2549 C.2     1  UNL1        0.0379
     12 BR         -5.5118  -20.7809   20.5091 Br      1  UNL1       -0.0489
     13 C          -5.4396  -18.6651   22.0151 C.2     1  UNL1        0.0280
     14 O          -8.3719  -19.0471   20.1803 O.3     1  UNL1       -0.4454
     15 C          -9.7864  -19.2328   19.7169 C.3     1  UNL1        0.2087
     16 C         -10.8585  -18.2942   20.1855 C.3     1  UNL1        0.0445
     17 C         -11.7571  -18.6883   21.3200 C.3     1  UNL1        0.0210
     18 C         -12.8292  -17.7496   21.7886 C.3     1  UNL1        0.0722
     19 N         -13.0026  -16.4168   21.1226 N.3     1  UNL1       -0.2727
     20 C         -12.1039  -16.0227   19.9881 C.3     1  UNL1        0.0722
     21 C         -11.0319  -16.9614   19.5196 C.3     1  UNL1        0.0210
     22 C         -12.4012  -16.8976   20.8310 C.3     1  UNL1        0.0722
     23 C         -11.4318  -17.7463   20.4073 C.3     1  UNL1        0.0210
@<TRIPOS>BOND
     1     1     2    2
     2     2    14    1
     3    14    15    1
     4    15    16    1
     5    16    17    1
     6    17    18    1
     7    18    19    1
     8    19    20    1
     9    20    21    1
    10    19    22    1
    11    22    23    1
    12     2     3    1
    13     3     4    2
    14     4     5    1
    15     5     6    2
    16     6     7    1
    17     7     8    1
    18     8     9    1
    19     8    10    2
    20    10    11    1
    21    11    12    1
    22    11    13    2
    23    21    16    1
    24    13     3    1
    25    23    16    1
    26    13     6    1
@<TRIPOS>MOLECULE
*****
 23 26 0 0 0
SMALL
GASTEIGER

@<TRIPOS>ATOM
      1 O          -6.4592  -20.2171   21.9618 O.2     1  UNL1       -0.2448
      2 C          -6.7508  -18.8158   21.5132 C.2     1  UNL1        0.3428
      3 C          -7.4886  -17.8761   22.4201 C.2     1  UNL1        0.0963
      4 C          -8.9701  -17.6417   22.4303 C.2     1  UNL1        0.1049
      5 N          -9.2715  -16.6265   23.4926 N.2     1  UNL1       -0.2475
      6 C          -7.9762  -16.2335   24.1391 C.2     1  UNL1        0.0665
      7 C          -7.6578  -15.2722   25.2456 C.3     1  UNL1        0.1022
      8 C          -6.2374  -15.0832   25.6894 C.2     1  UNL1        0.1241
      9 F          -5.9190  -14.1219   26.7959 F       1  UNL1       -0.2084
     10 C          -5.1355  -15.8554   25.0265 C.2     1  UNL1        0.0323
     11 C          -5.4540  -16.8168   23.9199 C.2     1  UNL1        0.0379
     12 BR         -4.3521  -17.5891   23.2571 Br      1  UNL1       -0.0489
     13 C          -6.8743  -17.0058   23.4762 C.2     1  UNL1        0.0280
     14 O          -6.3045  -18.3542   20.1575 O.3     1  UNL1       -0.4454
     15 C          -5.2657  -19.1316   19.4048 C.3     1  UNL1        0.2087
     16 C          -3.8150  -18.9777   19.7534 C.3     1  UNL1        0.0445
     17 C          -2.9863  -17.9308   19.0699 C.3     1  UNL1        0.0210
     18 C          -1.5355  -17.7769   19.4185 C.3     1  UNL1        0.0722
     19 N          -0.9134  -18.6701   20.4507 N.3     1  UNL1       -0.2727
     20 C          -1.7421  -19.7170   21.1342 C.3     1  UNL1        0.0722
     21 C          -3.1929  -19.8709   20.7855 C.3     1  UNL1        0.0210
     22 C          -1.7123  -18.7920   20.2929 C.3     1  UNL1        0.0722
     23 C          -3.0241  -18.9312   19.9778 C.3     1  UNL1        0.0210
@<TRIPOS>BOND
     1     1     2    2
     2     2    14    1
     3    14    15    1
     4    15    16    1
     5    16    17    1
     6    17    18    1
     7    18    19    1
     8    19    20    1
     9    20    21    1
    10    19    22    1
    11    22    23    1
    12     2     3    1
    13     3     4    2
    14     4     5    1
    15     5     6    2
    16     6     7    1
    17     7     8    1
    18     8     9    1
    19     8    10    2
    20    10    11    1
    21    11    12    1
    22    11    13    2
    23    21    16    1
    24    13     3    1
    25    23    16    1
    26    13     6    1
@<TRIPOS>MOLECULE
*****
 23 26 0 0 0
SMALL
GASTEIGER

@<TRIPOS>ATOM
      1 O          -7.3284  -15.7624   24.9186 O.2     1  UNL1       -0.2448
      2 C          -7.2990  -16.3634   23.5446 C.2     1  UNL1        0.3428
      3 C          -8.3805  -16.0340   22.5586 C.2     1  UNL1        0.0963
      4 C          -8.3018  -14.9975   21.4773 C.2     1  UNL1        0.1049
      5 N          -9.6032  -15.0063   20.7313 N.2     1  UNL1       -0.2475
      6 C         -10.4861  -16.0483   21.3517 C.2     1  UNL1        0.0665
      7 C         -11.8805  -16.5007   21.0341 C.3     1  UNL1        0.1022
      8 C         -12.5192  -17.5885   21.8459 C.2     1  UNL1        0.1241
      9 F         -13.9136  -18.0409   21.5283 F       1  UNL1       -0.2084
     10 C         -11.7635  -18.2236   22.9752 C.2     1  UNL1        0.0323
     11 C         -10.3691  -17.7711   23.2928 C.2     1  UNL1        0.0379
     12 BR         -9.6134  -18.4063   24.4222 Br      1  UNL1       -0.0489
     13 C          -9.7304  -16.6835   22.4810 C.2     1  UNL1        0.0280
     14 O          -6.1883  -17.2937   23.1565 O.3     1  UNL1       -0.4454
     15 C          -4.7666  -16.9404   23.4793 C.3     1  UNL1        0.2087
     16 C          -3.6449  -17.5504   22.6922 C.3     1  UNL1        0.0445
     17 C          -2.5837  -16.6738   22.0960 C.3     1  UNL1        0.0210
     18 C          -1.4620  -17.2839   21.3088 C.3     1  UNL1        0.0722
     19 N          -1.4016  -18.7705   21.1178 N.3     1  UNL1       -0.2727
     20 C          -2.4629  -19.6470   21.7140 C.3     1  UNL1        0.0722
     21 C          -3.5845  -19.0369   22.5012 C.3     1  UNL1        0.0210
     22 C          -2.0355  -18.4821   21.5569 C.3     1  UNL1        0.0722
     23 C          -3.0498  -17.9306   22.2687 C.3     1  UNL1        0.0210
@<TRIPOS>BOND
     1     1     2    2
     2     2    14    1
     3    14    15    1
     4    15    16    1
     5    16    17    1
     6    17    18    1
     7    18    19    1
     8    19    20    1
     9    20    21    1
    10    19    22    1
    11    22    23    1
    12     2     3    1
    13     3     4    2
    14     4     5    1
    15     5     6    2
    16     6     7    1
    17     7     8    1
    18     8     9    1
    19     8    10    2
    20    10    11    1
    21    11    12    1
    22    11    13    2
    23    21    16    1
    24    13     3    1
    25    23    16    1
    26    13     6    1
