@<TRIPOS>MOLECULE
*****
 39 43 0 0 0
SMALL
GASTEIGER

@<TRIPOS>ATOM
      1 C           5.8537   -2.4772   22.3922 C.3     1  UNL1        0.1533
      2 C           7.7180   -6.3436   27.2065 C.2     1  UNL1        0.1525
      3 C           6.9878   -5.0694   26.9008 C.2     1  UNL1        0.0845
      4 C           6.8432   -4.6103   25.4802 C.2     1  UNL1        0.2268
      5 N           6.1819   -3.4067   24.8768 N.2     1  UNL1       -0.0382
      6 C           6.3587   -3.4779   23.3889 C.2     1  UNL1        0.3519
      7 N           7.1292   -4.7254   23.0728 N.2     1  UNL1       -0.0548
      8 C           7.4287   -5.4253   24.3653 C.3     1  UNL1        0.3022
      9 C           8.1588   -6.6994   24.6710 C.2     1  UNL1        0.0492
     10 C           8.3035   -7.1586   26.0917 C.2     1  UNL1        0.0920
     11 CL          9.0336   -8.4327   26.3974 Cl      1  UNL1       -0.0793
     12 C           7.4404   -5.9050   29.7523 C.3     1  UNL1        0.2525
     13 O           7.8627   -6.8028   28.6273 O.2     1  UNL1       -0.4705
     14 C           5.5401   -2.9079   20.9900 C.ar    1  UNL1       -0.0068
     15 C           6.4461   -2.5099   19.8627 C.ar    1  UNL1       -0.0035
     16 C           6.1325   -2.9406   18.4606 C.ar    1  UNL1        0.0020
     17 C           4.9128   -3.7694   18.1856 C.ar    1  UNL1        0.0296
     18 C           4.0068   -4.1674   19.3129 C.ar    1  UNL1        0.1398
     19 F           2.7871   -4.9961   19.0379 F       1  UNL1       -0.2042
     20 C           4.3203   -3.7367   20.7151 C.ar    1  UNL1        0.0260
     21 C           5.6622   -1.0458   22.7976 C.3     1  UNL1        0.1065
     22 N           4.5383   -0.2440   22.2111 N.am    1  UNL1       -0.2999
     23 C           3.1546   -0.3664   22.7771 C.2     1  UNL1        0.2475
     24 O           2.8947   -1.2906   23.9296 O.2     1  UNL1       -0.2701
     25 H           4.7088    0.3626   21.4546 H       1  UNL1        0.1498
     26 C           2.0307    0.4354   22.1905 C.ar    1  UNL1        0.0745
     27 C           1.4269    0.0321   20.8781 C.ar    1  UNL1        0.0643
     28 CL          1.9468   -1.1731   20.1520 Cl      1  UNL1       -0.0820
     29 C           0.3031    0.8339   20.2915 C.ar    1  UNL1        0.0308
     30 C          -0.2170    2.0392   21.0175 C.ar    1  UNL1        0.0863
     31 C           0.3869    2.4426   22.3300 C.ar    1  UNL1        0.0308
     32 C           1.5107    1.6407   22.9165 C.ar    1  UNL1        0.0643
     33 CL          2.1146    2.0440   24.2290 Cl      1  UNL1       -0.0820
     34 N          -1.3408    2.8410   20.4310 N.ar    1  UNL1       -0.2083
     35 C          -1.2202    3.8569   19.3339 C.ar    1  UNL1        0.2013
     36 N          -2.5874    4.4115   19.0634 N.ar    1  UNL1       -0.2073
     37 C          -3.5529    3.7384   19.9933 C.ar    1  UNL1        0.1613
     38 C          -5.0297    3.9915   20.0653 C.3     1  UNL1        0.0756
     39 N          -2.7825    2.7678   20.8385 N.ar    1  UNL1       -0.1487
@<TRIPOS>BOND
     1    12    13    1
     2    13     2    1
     3     2     3    2
     4     3     4    1
     5     4     5    2
     6     5     6    1
     7     6     1    1
     8     1    21    1
     9    21    22    1
    10    22    23   am
    11    23    24    2
    12    23    26    1
    13    26    27   ar
    14    27    28    1
    15    27    29   ar
    16    29    30   ar
    17    30    34    1
    18    34    35   ar
    19    35    36   ar
    20    36    37   ar
    21    37    38    1
    22    37    39   ar
    23    30    31   ar
    24    31    32   ar
    25    32    33    1
    26     1    14    1
    27    14    15   ar
    28    15    16   ar
    29    16    17   ar
    30    17    18   ar
    31    18    19    1
    32    18    20   ar
    33     6     7    2
    34     7     8    1
    35     8     9    1
    36     9    10    2
    37    10    11    1
    38    10     2    1
    39     8     4    1
    40    32    26   ar
    41    20    14   ar
    42    39    34   ar
    43    22    25    1
@<TRIPOS>MOLECULE
*****
 39 43 0 0 0
SMALL
GASTEIGER

@<TRIPOS>ATOM
      1 C           2.6544    0.4168   30.2411 C.3     1  UNL1        0.1533
      2 C           3.5639    2.1595   36.3843 C.2     1  UNL1        0.1525
      3 C           4.0003    1.1814   35.3341 C.2     1  UNL1        0.0845
      4 C           3.4044    1.2421   33.9589 C.2     1  UNL1        0.2268
      5 N           3.6358    0.4174   32.7275 N.2     1  UNL1       -0.0382
      6 C           2.7465    0.9464   31.6415 C.2     1  UNL1        0.3519
      7 N           1.9656    2.0980   32.2017 N.2     1  UNL1       -0.0548
      8 C           2.3721    2.2808   33.6339 C.3     1  UNL1        0.3022
      9 C           1.9358    3.2588   34.6842 C.2     1  UNL1        0.0492
     10 C           2.5317    3.1981   36.0594 C.2     1  UNL1        0.0920
     11 CL          2.0953    4.1762   37.1097 Cl      1  UNL1       -0.0793
     12 C           3.5586    1.1992   38.7985 C.3     1  UNL1        0.2525
     13 O           4.1598    2.0988   37.7596 O.2     1  UNL1       -0.4705
     14 C           1.4349    0.6944   29.4130 C.ar    1  UNL1       -0.0068
     15 C           1.3332    1.9711   28.6322 C.ar    1  UNL1       -0.0035
     16 C           0.1138    2.2487   27.8041 C.ar    1  UNL1        0.0020
     17 C          -1.0041    1.2496   27.7567 C.ar    1  UNL1        0.0296
     18 C          -0.9023   -0.0271   28.5376 C.ar    1  UNL1        0.1398
     19 F          -2.0202   -1.0262   28.4902 F       1  UNL1       -0.2042
     20 C           0.3171   -0.3048   29.3657 C.ar    1  UNL1        0.0260
     21 C           3.7817   -0.3904   29.6689 C.3     1  UNL1        0.1065
     22 N           3.6770   -0.9454   28.2792 N.am    1  UNL1       -0.2999
     23 C           4.3959   -0.2733   27.1471 C.2     1  UNL1        0.2475
     24 O           5.2195    0.9536   27.4046 O.2     1  UNL1       -0.2701
     25 H           3.1365   -1.7506   28.1102 H       1  UNL1        0.1498
     26 C           4.2911   -0.8283   25.7575 C.ar    1  UNL1        0.0745
     27 C           5.2246   -1.9143   25.3113 C.ar    1  UNL1        0.0643
     28 CL          6.2629   -2.4454   26.2546 Cl      1  UNL1       -0.0820
     29 C           5.1199   -2.4693   23.9217 C.ar    1  UNL1        0.0308
     30 C           4.0815   -1.9383   22.9783 C.ar    1  UNL1        0.0863
     31 C           3.1480   -0.8523   23.4245 C.ar    1  UNL1        0.0308
     32 C           3.2528   -0.2973   24.8142 C.ar    1  UNL1        0.0643
     33 CL          2.3193    0.7887   25.2604 Cl      1  UNL1       -0.0820
     34 N           3.9768   -2.4933   21.5887 N.ar    1  UNL1       -0.2083
     35 C           3.3093   -1.8281   20.4216 C.ar    1  UNL1        0.2013
     36 N           3.4411   -2.7346   19.2338 N.ar    1  UNL1       -0.2073
     37 C           4.1900   -3.9600   19.6668 C.ar    1  UNL1        0.1613
     38 C           4.5454   -5.1292   18.7970 C.3     1  UNL1        0.0756
     39 N           4.5211   -3.8109   21.1221 N.ar    1  UNL1       -0.1487
@<TRIPOS>BOND
     1    12    13    1
     2    13     2    1
     3     2     3    2
     4     3     4    1
     5     4     5    2
     6     5     6    1
     7     6     1    1
     8     1    21    1
     9    21    22    1
    10    22    23   am
    11    23    24    2
    12    23    26    1
    13    26    27   ar
    14    27    28    1
    15    27    29   ar
    16    29    30   ar
    17    30    34    1
    18    34    35   ar
    19    35    36   ar
    20    36    37   ar
    21    37    38    1
    22    37    39   ar
    23    30    31   ar
    24    31    32   ar
    25    32    33    1
    26     1    14    1
    27    14    15   ar
    28    15    16   ar
    29    16    17   ar
    30    17    18   ar
    31    18    19    1
    32    18    20   ar
    33     6     7    2
    34     7     8    1
    35     8     9    1
    36     9    10    2
    37    10    11    1
    38    10     2    1
    39     8     4    1
    40    32    26   ar
    41    20    14   ar
    42    39    34   ar
    43    22    25    1
@<TRIPOS>MOLECULE
*****
 39 43 0 0 0
SMALL
GASTEIGER

@<TRIPOS>ATOM
      1 C           5.9032   -2.6128   22.6046 C.3     1  UNL1        0.1533
      2 C           7.7208   -6.3235   27.5574 C.2     1  UNL1        0.1525
      3 C           7.0465   -5.0301   27.2071 C.2     1  UNL1        0.0845
      4 C           6.8806   -4.6362   25.7693 C.2     1  UNL1        0.2268
      5 N           6.2622   -3.4318   25.1236 N.2     1  UNL1       -0.0382
      6 C           6.3883   -3.5869   23.6370 C.2     1  UNL1        0.3519
      7 N           7.0847   -4.8871   23.3639 N.2     1  UNL1       -0.0548
      8 C           7.3890   -5.5356   24.6818 C.3     1  UNL1        0.3022
      9 C           8.0632   -6.8289   25.0322 C.2     1  UNL1        0.0492
     10 C           8.2291   -7.2228   26.4700 C.2     1  UNL1        0.0920
     11 CL          8.9034   -8.5162   26.8202 Cl      1  UNL1       -0.0793
     12 C           7.2919   -5.8679   30.0791 C.3     1  UNL1        0.2525
     13 O           7.8868   -6.7174   28.9953 O.2     1  UNL1       -0.4705
     14 C           5.5009   -3.1000   21.2442 C.ar    1  UNL1       -0.0068
     15 C           4.3646   -4.0686   21.1002 C.ar    1  UNL1       -0.0035
     16 C           3.9622   -4.5558   19.7398 C.ar    1  UNL1        0.0020
     17 C           4.6961   -4.0745   18.5233 C.ar    1  UNL1        0.0296
     18 C           5.8325   -3.1059   18.6674 C.ar    1  UNL1        0.1398
     19 F           6.5664   -2.6246   17.4509 F       1  UNL1       -0.2042
     20 C           6.2349   -2.6187   20.0278 C.ar    1  UNL1        0.0260
     21 C           5.8205   -1.1515   22.9326 C.3     1  UNL1        0.1065
     22 N           4.7262   -0.3113   22.3438 N.am    1  UNL1       -0.2999
     23 C           3.3265   -0.4264   22.8706 C.2     1  UNL1        0.2475
     24 O           3.0210   -1.3815   23.9861 O.2     1  UNL1       -0.2701
     25 H           4.9266    0.3156   21.6117 H       1  UNL1        0.1498
     26 C           2.2322    0.4138   22.2819 C.ar    1  UNL1        0.0745
     27 C           1.8005    1.6740   22.9715 C.ar    1  UNL1        0.0643
     28 CL          2.4631    2.0940   24.2500 Cl      1  UNL1       -0.0820
     29 C           0.7062    2.5141   22.3828 C.ar    1  UNL1        0.0308
     30 C           0.0436    2.0941   21.1042 C.ar    1  UNL1        0.0863
     31 C           0.4752    0.8340   20.4145 C.ar    1  UNL1        0.0308
     32 C           1.5695   -0.0062   21.0034 C.ar    1  UNL1        0.0643
     33 CL          2.0012   -1.2663   20.3137 Cl      1  UNL1       -0.0820
     34 N          -1.0507    2.9343   20.5154 N.ar    1  UNL1       -0.2083
     35 C          -0.8639    4.1536   19.6620 C.ar    1  UNL1        0.2013
     36 N          -2.2216    4.6756   19.2958 N.ar    1  UNL1       -0.2073
     37 C          -3.2476    3.7788   19.9230 C.ar    1  UNL1        0.1613
     38 C          -4.7359    3.9314   19.8152 C.3     1  UNL1        0.0756
     39 N          -2.5239    2.7026   20.6767 N.ar    1  UNL1       -0.1487
@<TRIPOS>BOND
     1    12    13    1
     2    13     2    1
     3     2     3    2
     4     3     4    1
     5     4     5    2
     6     5     6    1
     7     6     1    1
     8     1    21    1
     9    21    22    1
    10    22    23   am
    11    23    24    2
    12    23    26    1
    13    26    27   ar
    14    27    28    1
    15    27    29   ar
    16    29    30   ar
    17    30    34    1
    18    34    35   ar
    19    35    36   ar
    20    36    37   ar
    21    37    38    1
    22    37    39   ar
    23    30    31   ar
    24    31    32   ar
    25    32    33    1
    26     1    14    1
    27    14    15   ar
    28    15    16   ar
    29    16    17   ar
    30    17    18   ar
    31    18    19    1
    32    18    20   ar
    33     6     7    2
    34     7     8    1
    35     8     9    1
    36     9    10    2
    37    10    11    1
    38    10     2    1
    39     8     4    1
    40    32    26   ar
    41    20    14   ar
    42    39    34   ar
    43    22    25    1
@<TRIPOS>MOLECULE
*****
 39 43 0 0 0
SMALL
GASTEIGER

@<TRIPOS>ATOM
      1 C          -1.4594    3.4662   20.8167 C.3     1  UNL1        0.1533
      2 C           2.6768   -1.2911   19.4516 C.2     1  UNL1        0.1525
      3 C           1.5533   -0.8989   20.3648 C.2     1  UNL1        0.0845
      4 C           0.9034    0.4452   20.2198 C.2     1  UNL1        0.2268
      5 N          -0.2168    1.1044   20.9686 N.2     1  UNL1       -0.0382
      6 C          -0.4355    2.4637   20.3732 C.2     1  UNL1        0.3519
      7 N           0.5495    2.6445   19.2564 N.2     1  UNL1       -0.0548
      8 C           1.3769    1.3970   19.1616 C.3     1  UNL1        0.3022
      9 C           2.5004    1.0047   18.2484 C.2     1  UNL1        0.0492
     10 C           3.1503   -0.3393   18.3935 C.2     1  UNL1        0.0920
     11 CL          4.2739   -0.7315   17.4802 Cl      1  UNL1       -0.0793
     12 C           4.4368   -2.8287   20.5869 C.3     1  UNL1        0.2525
     13 O           3.3268   -2.6353   19.5966 O.2     1  UNL1       -0.4705
     14 C          -2.7834    3.5458   20.1163 C.ar    1  UNL1       -0.0068
     15 C          -4.0461    3.2276   20.8609 C.ar    1  UNL1       -0.0035
     16 C          -5.3702    3.3072   20.1606 C.ar    1  UNL1        0.0020
     17 C          -5.4316    3.7052   18.7156 C.ar    1  UNL1        0.0296
     18 C          -4.1689    4.0235   17.9711 C.ar    1  UNL1        0.1398
     19 F          -4.2304    4.4215   16.5261 F       1  UNL1       -0.2042
     20 C          -2.8448    3.9438   18.6714 C.ar    1  UNL1        0.0260
     21 C          -1.1592    4.3890   21.9605 C.3     1  UNL1        0.1065
     22 N          -0.5020    3.8581   23.2000 N.am    1  UNL1       -0.2999
     23 C          -1.3390    3.2964   24.3108 C.2     1  UNL1        0.2475
     24 O          -2.8332    3.2655   24.1821 O.2     1  UNL1       -0.2701
     25 H           0.4786    3.8784   23.2845 H       1  UNL1        0.1498
     26 C          -0.6818    2.7655   25.5502 C.ar    1  UNL1        0.0745
     27 C           0.2274    1.5755   25.4661 C.ar    1  UNL1        0.0643
     28 CL          0.4794    0.9162   24.1426 Cl      1  UNL1       -0.0820
     29 C           0.8846    1.0446   26.7056 C.ar    1  UNL1        0.0308
     30 C           0.6325    1.7039   28.0293 C.ar    1  UNL1        0.0863
     31 C          -0.2767    2.8940   28.1134 C.ar    1  UNL1        0.0308
     32 C          -0.9338    3.4248   26.8738 C.ar    1  UNL1        0.0643
     33 CL         -1.8430    4.6148   26.9579 Cl      1  UNL1       -0.0820
     34 N           1.2897    1.1731   29.2688 N.ar    1  UNL1       -0.2083
     35 C           1.7168   -0.2459   29.5016 C.ar    1  UNL1        0.2013
     36 N           2.3262   -0.3280   30.8697 N.ar    1  UNL1       -0.2073
     37 C           2.2759    1.0403   31.4824 C.ar    1  UNL1        0.1613
     38 C           2.7780    1.4150   32.8453 C.3     1  UNL1        0.0756
     39 N           1.6353    1.9680   30.4930 N.ar    1  UNL1       -0.1487
@<TRIPOS>BOND
     1    12    13    1
     2    13     2    1
     3     2     3    2
     4     3     4    1
     5     4     5    2
     6     5     6    1
     7     6     1    1
     8     1    21    1
     9    21    22    1
    10    22    23   am
    11    23    24    2
    12    23    26    1
    13    26    27   ar
    14    27    28    1
    15    27    29   ar
    16    29    30   ar
    17    30    34    1
    18    34    35   ar
    19    35    36   ar
    20    36    37   ar
    21    37    38    1
    22    37    39   ar
    23    30    31   ar
    24    31    32   ar
    25    32    33    1
    26     1    14    1
    27    14    15   ar
    28    15    16   ar
    29    16    17   ar
    30    17    18   ar
    31    18    19    1
    32    18    20   ar
    33     6     7    2
    34     7     8    1
    35     8     9    1
    36     9    10    2
    37    10    11    1
    38    10     2    1
    39     8     4    1
    40    32    26   ar
    41    20    14   ar
    42    39    34   ar
    43    22    25    1
@<TRIPOS>MOLECULE
*****
 39 43 0 0 0
SMALL
GASTEIGER

@<TRIPOS>ATOM
      1 C          -1.4641    3.4545   20.7936 C.3     1  UNL1        0.1533
      2 C           2.6717   -1.2677   19.3108 C.2     1  UNL1        0.1525
      3 C           1.5203   -0.9136   20.2048 C.2     1  UNL1        0.0845
      4 C           0.8890    0.4439   20.1122 C.2     1  UNL1        0.2268
      5 N          -0.2506    1.0737   20.8570 N.2     1  UNL1       -0.0382
      6 C          -0.4349    2.4663   20.3309 C.2     1  UNL1        0.3519
      7 N           0.5908    2.6971   19.2610 N.2     1  UNL1       -0.0548
      8 C           1.4090    1.4472   19.1258 C.3     1  UNL1        0.3022
      9 C           2.5603    1.0931   18.2320 C.2     1  UNL1        0.0492
     10 C           3.1916   -0.2644   18.3245 C.2     1  UNL1        0.0920
     11 CL          4.3430   -0.6186   17.4306 Cl      1  UNL1       -0.0793
     12 C           4.3837   -2.8827   20.4114 C.3     1  UNL1        0.2525
     13 O           3.3031   -2.6253   19.4034 O.2     1  UNL1       -0.4705
     14 C          -2.7974    3.5245   20.1098 C.ar    1  UNL1       -0.0068
     15 C          -4.0495    3.2111   20.8738 C.ar    1  UNL1       -0.0035
     16 C          -5.3828    3.2811   20.1900 C.ar    1  UNL1        0.0020
     17 C          -5.4638    3.6645   18.7421 C.ar    1  UNL1        0.0296
     18 C          -4.2115    3.9778   17.9780 C.ar    1  UNL1        0.1398
     19 F          -4.2926    4.3612   16.5301 F       1  UNL1       -0.2042
     20 C          -2.8783    3.9079   18.6618 C.ar    1  UNL1        0.0260
     21 C          -1.1602    4.3728   21.9400 C.3     1  UNL1        0.1065
     22 N          -0.4989    3.8370   23.1752 N.am    1  UNL1       -0.2999
     23 C          -1.3311    3.2556   24.2794 C.2     1  UNL1        0.2475
     24 O          -2.8247    3.2098   24.1484 O.2     1  UNL1       -0.2701
     25 H           0.4814    3.8671   23.2612 H       1  UNL1        0.1498
     26 C          -0.6697    2.7198   25.5145 C.ar    1  UNL1        0.0745
     27 C          -0.9420    3.3541   26.8463 C.ar    1  UNL1        0.0643
     28 CL         -1.8756    4.5242   26.9429 Cl      1  UNL1       -0.0820
     29 C          -0.2806    2.8184   28.0814 C.ar    1  UNL1        0.0308
     30 C           0.6531    1.6483   27.9848 C.ar    1  UNL1        0.0863
     31 C           0.9253    1.0140   26.6531 C.ar    1  UNL1        0.0308
     32 C           0.2639    1.5498   25.4180 C.ar    1  UNL1        0.0643
     33 CL          0.5362    0.9155   24.0862 Cl      1  UNL1       -0.0820
     34 N           1.3144    1.1126   29.2200 N.ar    1  UNL1       -0.2083
     35 C           1.7608   -0.3028   29.4378 C.ar    1  UNL1        0.2013
     36 N           2.3678   -0.3920   30.8066 N.ar    1  UNL1       -0.2073
     37 C           2.2966    0.9683   31.4347 C.ar    1  UNL1        0.1613
     38 C           2.7898    1.3344   32.8032 C.3     1  UNL1        0.0756
     39 N           1.6456    1.8982   30.4541 N.ar    1  UNL1       -0.1487
@<TRIPOS>BOND
     1    12    13    1
     2    13     2    1
     3     2     3    2
     4     3     4    1
     5     4     5    2
     6     5     6    1
     7     6     1    1
     8     1    21    1
     9    21    22    1
    10    22    23   am
    11    23    24    2
    12    23    26    1
    13    26    27   ar
    14    27    28    1
    15    27    29   ar
    16    29    30   ar
    17    30    34    1
    18    34    35   ar
    19    35    36   ar
    20    36    37   ar
    21    37    38    1
    22    37    39   ar
    23    30    31   ar
    24    31    32   ar
    25    32    33    1
    26     1    14    1
    27    14    15   ar
    28    15    16   ar
    29    16    17   ar
    30    17    18   ar
    31    18    19    1
    32    18    20   ar
    33     6     7    2
    34     7     8    1
    35     8     9    1
    36     9    10    2
    37    10    11    1
    38    10     2    1
    39     8     4    1
    40    32    26   ar
    41    20    14   ar
    42    39    34   ar
    43    22    25    1
@<TRIPOS>MOLECULE
*****
 39 43 0 0 0
SMALL
GASTEIGER

@<TRIPOS>ATOM
      1 C           1.4664    1.1395   29.6323 C.3     1  UNL1        0.1533
      2 C           2.4073    3.2060   35.6694 C.2     1  UNL1        0.1525
      3 C           2.7303    2.0957   34.7138 C.2     1  UNL1        0.0845
      4 C           2.1990    2.1348   33.3116 C.2     1  UNL1        0.2268
      5 N           2.3486    1.1915   32.1550 N.2     1  UNL1       -0.0382
      6 C           1.5867    1.7578   30.9936 C.2     1  UNL1        0.3519
      7 N           0.9663    3.0511   31.4324 N.2     1  UNL1       -0.0548
      8 C           1.3447    3.2841   32.8651 C.3     1  UNL1        0.3022
      9 C           1.0218    4.3943   33.8207 C.2     1  UNL1        0.0492
     10 C           1.5531    4.3551   35.2229 C.2     1  UNL1        0.0920
     11 CL          1.2301    5.4654   36.1785 Cl      1  UNL1       -0.0793
     12 C           2.3634    2.2012   38.0651 C.3     1  UNL1        0.2525
     13 O           2.9386    3.1669   37.0717 O.2     1  UNL1       -0.4705
     14 C           0.7637    1.8785   28.5323 C.ar    1  UNL1       -0.0068
     15 C          -0.5930    1.4306   28.0753 C.ar    1  UNL1       -0.0035
     16 C          -1.2957    2.1695   26.9753 C.ar    1  UNL1        0.0020
     17 C          -0.6418    3.3565   26.3322 C.ar    1  UNL1        0.0296
     18 C           0.7149    3.8044   26.7892 C.ar    1  UNL1        0.1398
     19 F           1.3688    4.9914   26.1461 F       1  UNL1       -0.2042
     20 C           1.4177    3.0654   27.8892 C.ar    1  UNL1        0.0260
     21 C           2.0489   -0.2179   29.3710 C.3     1  UNL1        0.1065
     22 N           2.2245   -0.7001   27.9615 N.am    1  UNL1       -0.2999
     23 C           3.3570   -0.1802   27.1266 C.2     1  UNL1        0.2475
     24 O           4.3139    0.8220   27.7010 O.2     1  UNL1       -0.2701
     25 H           1.5965   -1.3578   27.5843 H       1  UNL1        0.1498
     26 C           3.5326   -0.6624   25.7171 C.ar    1  UNL1        0.0745
     27 C           4.5773   -1.6914   25.4011 C.ar    1  UNL1        0.0643
     28 CL          5.4464   -2.2381   26.4945 Cl      1  UNL1       -0.0820
     29 C           4.7528   -2.1736   23.9916 C.ar    1  UNL1        0.0308
     30 C           3.8837   -1.6269   22.8981 C.ar    1  UNL1        0.0863
     31 C           2.8390   -0.5979   23.2141 C.ar    1  UNL1        0.0308
     32 C           2.6635   -0.1157   24.6236 C.ar    1  UNL1        0.0643
     33 CL          1.6188    0.9132   24.9396 Cl      1  UNL1       -0.0820
     34 N           4.0592   -2.1091   21.4886 N.ar    1  UNL1       -0.2083
     35 C           4.0430   -1.2546   20.2559 C.ar    1  UNL1        0.2013
     36 N           4.2556   -2.1478   19.0698 N.ar    1  UNL1       -0.2073
     37 C           4.4032   -3.5545   19.5695 C.ar    1  UNL1        0.1613
     38 C           4.6321   -4.7714   18.7228 C.3     1  UNL1        0.0756
     39 N           4.2819   -3.5305   21.0644 N.ar    1  UNL1       -0.1487
@<TRIPOS>BOND
     1    12    13    1
     2    13     2    1
     3     2     3    2
     4     3     4    1
     5     4     5    2
     6     5     6    1
     7     6     1    1
     8     1    21    1
     9    21    22    1
    10    22    23   am
    11    23    24    2
    12    23    26    1
    13    26    27   ar
    14    27    28    1
    15    27    29   ar
    16    29    30   ar
    17    30    34    1
    18    34    35   ar
    19    35    36   ar
    20    36    37   ar
    21    37    38    1
    22    37    39   ar
    23    30    31   ar
    24    31    32   ar
    25    32    33    1
    26     1    14    1
    27    14    15   ar
    28    15    16   ar
    29    16    17   ar
    30    17    18   ar
    31    18    19    1
    32    18    20   ar
    33     6     7    2
    34     7     8    1
    35     8     9    1
    36     9    10    2
    37    10    11    1
    38    10     2    1
    39     8     4    1
    40    32    26   ar
    41    20    14   ar
    42    39    34   ar
    43    22    25    1
@<TRIPOS>MOLECULE
*****
 39 43 0 0 0
SMALL
GASTEIGER

@<TRIPOS>ATOM
      1 C           2.0870    0.9808   25.9080 C.3     1  UNL1        0.1533
      2 C           3.3845   -1.4090   20.0592 C.2     1  UNL1        0.1525
      3 C           3.5669   -1.6564   21.5275 C.2     1  UNL1        0.0845
      4 C           3.0085   -0.6866   22.5264 C.2     1  UNL1        0.2268
      5 N           3.0309   -0.6661   24.0261 N.2     1  UNL1       -0.0382
      6 C           2.3041    0.5637   24.4836 C.2     1  UNL1        0.3519
      7 N           1.8324    1.3031   23.2668 N.2     1  UNL1       -0.0548
      8 C           2.2678    0.5304   22.0571 C.3     1  UNL1        0.3022
      9 C           2.0854    0.7777   20.5889 C.2     1  UNL1        0.0492
     10 C           2.6438   -0.1920   19.5900 C.2     1  UNL1        0.0920
     11 CL          2.4614    0.0553   18.1218 Cl      1  UNL1       -0.0793
     12 C           3.5207   -3.8178   19.0950 C.3     1  UNL1        0.2525
     13 O           3.9429   -2.3788   19.0603 O.2     1  UNL1       -0.4705
     14 C           1.0440    2.0069   26.2384 C.ar    1  UNL1       -0.0068
     15 C          -0.3571    1.5766   26.5571 C.ar    1  UNL1       -0.0035
     16 C          -1.4001    2.6028   26.8874 C.ar    1  UNL1        0.0020
     17 C          -1.0420    4.0593   26.8991 C.ar    1  UNL1        0.0296
     18 C           0.3592    4.4897   26.5804 C.ar    1  UNL1        0.1398
     19 F           0.7173    5.9463   26.5922 F       1  UNL1       -0.2042
     20 C           1.4022    3.4635   26.2501 C.ar    1  UNL1        0.0260
     21 C           2.9129    0.3718   27.0021 C.3     1  UNL1        0.1065
     22 N           2.9390    1.0034   28.3624 N.am    1  UNL1       -0.2999
     23 C           1.9627    0.5631   29.4126 C.2     1  UNL1        0.2475
     24 O           0.9603   -0.5089   29.1026 O.2     1  UNL1       -0.2701
     25 H           3.5969    1.7069   28.5659 H       1  UNL1        0.1498
     26 C           1.9889    1.1947   30.7729 C.ar    1  UNL1        0.0745
     27 C           2.7893    0.5676   31.8757 C.ar    1  UNL1        0.0643
     28 CL          3.5634   -0.6911   31.6184 Cl      1  UNL1       -0.0820
     29 C           2.8155    1.1993   33.2360 C.ar    1  UNL1        0.0308
     30 C           2.0413    2.4581   33.4934 C.ar    1  UNL1        0.0863
     31 C           1.2409    3.0852   32.3906 C.ar    1  UNL1        0.0308
     32 C           1.2148    2.4534   31.0303 C.ar    1  UNL1        0.0643
     33 CL          0.4145    3.0805   29.9275 Cl      1  UNL1       -0.0820
     34 N           2.0675    3.0898   34.8537 N.ar    1  UNL1       -0.2083
     35 C           1.8057    4.5346   35.1600 C.ar    1  UNL1        0.2013
     36 N           1.9365    4.7253   36.6421 N.ar    1  UNL1       -0.2073
     37 C           2.2790    3.3983   37.2517 C.ar    1  UNL1        0.1613
     38 C           2.5015    3.1294   38.7105 C.3     1  UNL1        0.0756
     39 N           2.3600    2.3874   36.1464 N.ar    1  UNL1       -0.1487
@<TRIPOS>BOND
     1    12    13    1
     2    13     2    1
     3     2     3    2
     4     3     4    1
     5     4     5    2
     6     5     6    1
     7     6     1    1
     8     1    21    1
     9    21    22    1
    10    22    23   am
    11    23    24    2
    12    23    26    1
    13    26    27   ar
    14    27    28    1
    15    27    29   ar
    16    29    30   ar
    17    30    34    1
    18    34    35   ar
    19    35    36   ar
    20    36    37   ar
    21    37    38    1
    22    37    39   ar
    23    30    31   ar
    24    31    32   ar
    25    32    33    1
    26     1    14    1
    27    14    15   ar
    28    15    16   ar
    29    16    17   ar
    30    17    18   ar
    31    18    19    1
    32    18    20   ar
    33     6     7    2
    34     7     8    1
    35     8     9    1
    36     9    10    2
    37    10    11    1
    38    10     2    1
    39     8     4    1
    40    32    26   ar
    41    20    14   ar
    42    39    34   ar
    43    22    25    1
@<TRIPOS>MOLECULE
*****
 39 43 0 0 0
SMALL
GASTEIGER

@<TRIPOS>ATOM
      1 C           2.9041    0.4867   27.0524 C.3     1  UNL1        0.1533
      2 C           4.7648   -3.0739   22.0063 C.2     1  UNL1        0.1525
      3 C           4.9352   -2.9039   23.4870 C.2     1  UNL1        0.0845
      4 C           4.1948   -1.8160   24.2070 C.2     1  UNL1        0.2268
      5 N           4.1633   -1.4090   25.6504 N.2     1  UNL1       -0.0382
      6 C           3.2332   -0.2396   25.7819 C.2     1  UNL1        0.3519
      7 N           2.6898    0.0761   24.4198 N.2     1  UNL1       -0.0548
      8 C           3.2842   -0.8983   23.4465 C.3     1  UNL1        0.3022
      9 C           3.1138   -1.0683   21.9659 C.2     1  UNL1        0.0492
     10 C           3.8541   -2.1562   21.2459 C.2     1  UNL1        0.0920
     11 CL          3.6837   -2.3262   19.7653 Cl      1  UNL1       -0.0793
     12 C           6.8285   -3.8699   20.6434 C.3     1  UNL1        0.2525
     13 O           5.5051   -4.1619   21.2862 O.2     1  UNL1       -0.4705
     14 C           1.4776    0.6051   27.5007 C.ar    1  UNL1       -0.0068
     15 C           0.9222   -0.3662   28.4997 C.ar    1  UNL1       -0.0035
     16 C          -0.5043   -0.2478   28.9480 C.ar    1  UNL1        0.0020
     17 C          -1.3756    0.8420   28.3973 C.ar    1  UNL1        0.0296
     18 C          -0.8202    1.8134   27.3983 C.ar    1  UNL1        0.1398
     19 F          -1.6914    2.9032   26.8476 F       1  UNL1       -0.2042
     20 C           0.6064    1.6950   26.9499 C.ar    1  UNL1        0.0260
     21 C           4.0015    1.0946   27.8746 C.3     1  UNL1        0.1065
     22 N           3.9247    1.0585   29.3723 N.am    1  UNL1       -0.2999
     23 C           3.4890    2.2771   30.1305 C.2     1  UNL1        0.2475
     24 O           3.1301    3.5320   29.3912 O.2     1  UNL1       -0.2701
     25 H           4.1603    0.2349   29.8575 H       1  UNL1        0.1498
     26 C           3.4123    2.2409   31.6281 C.ar    1  UNL1        0.0745
     27 C           4.6667    2.3291   32.4457 C.ar    1  UNL1        0.0643
     28 CL          5.9980    2.4535   31.7659 Cl      1  UNL1       -0.0820
     29 C           4.5900    2.2929   33.9433 C.ar    1  UNL1        0.0308
     30 C           3.2586    2.1685   34.6233 C.ar    1  UNL1        0.0863
     31 C           2.0042    2.0803   33.8057 C.ar    1  UNL1        0.0308
     32 C           2.0810    2.1165   32.3081 C.ar    1  UNL1        0.0643
     33 CL          0.8266    2.0283   31.4904 Cl      1  UNL1       -0.0820
     34 N           3.1819    2.1323   36.1209 N.ar    1  UNL1       -0.2083
     35 C           4.3186    1.8406   37.0552 C.ar    1  UNL1        0.2013
     36 N           3.7942    1.9094   38.4589 N.ar    1  UNL1       -0.2073
     37 C           2.3334    2.2436   38.3921 C.ar    1  UNL1        0.1613
     38 C           1.4128    2.4107   39.5644 C.3     1  UNL1        0.0756
     39 N           1.9550    2.3813   36.9472 N.ar    1  UNL1       -0.1487
@<TRIPOS>BOND
     1    12    13    1
     2    13     2    1
     3     2     3    2
     4     3     4    1
     5     4     5    2
     6     5     6    1
     7     6     1    1
     8     1    21    1
     9    21    22    1
    10    22    23   am
    11    23    24    2
    12    23    26    1
    13    26    27   ar
    14    27    28    1
    15    27    29   ar
    16    29    30   ar
    17    30    34    1
    18    34    35   ar
    19    35    36   ar
    20    36    37   ar
    21    37    38    1
    22    37    39   ar
    23    30    31   ar
    24    31    32   ar
    25    32    33    1
    26     1    14    1
    27    14    15   ar
    28    15    16   ar
    29    16    17   ar
    30    17    18   ar
    31    18    19    1
    32    18    20   ar
    33     6     7    2
    34     7     8    1
    35     8     9    1
    36     9    10    2
    37    10    11    1
    38    10     2    1
    39     8     4    1
    40    32    26   ar
    41    20    14   ar
    42    39    34   ar
    43    22    25    1
@<TRIPOS>MOLECULE
*****
 39 43 0 0 0
SMALL
GASTEIGER

@<TRIPOS>ATOM
      1 C           3.9717    0.1713   20.6755 C.3     1  UNL1        0.1533
      2 C          -0.8939    3.7953   18.4857 C.2     1  UNL1        0.1525
      3 C           0.4562    3.2494   18.1259 C.2     1  UNL1        0.0845
      4 C           1.2019    2.3893   19.1027 C.2     1  UNL1        0.2268
      5 N           2.5394    1.7143   19.0285 N.2     1  UNL1       -0.0382
      6 C           2.7617    0.9831   20.3192 C.2     1  UNL1        0.3519
      7 N           1.5617    1.2061   21.1911 N.2     1  UNL1       -0.0548
      8 C           0.5976    2.0752   20.4392 C.3     1  UNL1        0.3022
      9 C          -0.7524    2.6212   20.7989 C.2     1  UNL1        0.0492
     10 C          -1.4981    3.4813   19.8221 C.2     1  UNL1        0.0920
     11 CL         -2.8482    4.0272   20.1819 Cl      1  UNL1       -0.0793
     12 C          -2.1215    4.0738   16.2128 C.3     1  UNL1        0.2525
     13 O          -1.6397    4.6555   17.5088 O.2     1  UNL1       -0.4705
     14 C           4.3059   -1.0615   19.8891 C.ar    1  UNL1       -0.0068
     15 C           5.5807   -1.1259   19.1012 C.ar    1  UNL1       -0.0035
     16 C           5.9149   -2.3588   18.3148 C.ar    1  UNL1        0.0020
     17 C           4.9744   -3.5273   18.3163 C.ar    1  UNL1        0.0296
     18 C           3.6996   -3.4628   19.1043 C.ar    1  UNL1        0.1398
     19 F           2.7590   -4.6313   19.1057 F       1  UNL1       -0.2042
     20 C           3.3653   -2.2300   19.8907 C.ar    1  UNL1        0.0260
     21 C           4.8474    0.5923   21.8182 C.3     1  UNL1        0.1065
     22 N           5.5931   -0.4396   22.6116 N.am    1  UNL1       -0.2999
     23 C           4.8419   -1.4061   23.4785 C.2     1  UNL1        0.2475
     24 O           3.3452   -1.3408   23.5522 O.2     1  UNL1       -0.2701
     25 H           6.5755   -0.4824   22.5633 H       1  UNL1        0.1498
     26 C           5.5876   -2.4378   24.2718 C.ar    1  UNL1        0.0745
     27 C           6.1116   -3.6698   23.5952 C.ar    1  UNL1        0.0643
     28 CL          5.8899   -3.8700   22.1253 Cl      1  UNL1       -0.0820
     29 C           6.8573   -4.7016   24.3886 C.ar    1  UNL1        0.0308
     30 C           7.0791   -4.5014   25.8586 C.ar    1  UNL1        0.0863
     31 C           6.5551   -3.2695   26.5352 C.ar    1  UNL1        0.0308
     32 C           5.8094   -2.2377   25.7418 C.ar    1  UNL1        0.0643
     33 CL          5.2855   -1.0058   26.4184 Cl      1  UNL1       -0.0820
     34 N           7.8248   -5.5332   26.6519 N.ar    1  UNL1       -0.2083
     35 C           8.8433   -5.2588   27.7183 C.ar    1  UNL1        0.2013
     36 N           9.3309   -6.5765   28.2436 N.ar    1  UNL1       -0.2073
     37 C           8.6137   -7.6652   27.5018 C.ar    1  UNL1        0.1613
     38 C           8.7954   -9.1399   27.7076 C.3     1  UNL1        0.0756
     39 N           7.6828   -7.0204   26.5181 N.ar    1  UNL1       -0.1487
@<TRIPOS>BOND
     1    12    13    1
     2    13     2    1
     3     2     3    2
     4     3     4    1
     5     4     5    2
     6     5     6    1
     7     6     1    1
     8     1    21    1
     9    21    22    1
    10    22    23   am
    11    23    24    2
    12    23    26    1
    13    26    27   ar
    14    27    28    1
    15    27    29   ar
    16    29    30   ar
    17    30    34    1
    18    34    35   ar
    19    35    36   ar
    20    36    37   ar
    21    37    38    1
    22    37    39   ar
    23    30    31   ar
    24    31    32   ar
    25    32    33    1
    26     1    14    1
    27    14    15   ar
    28    15    16   ar
    29    16    17   ar
    30    17    18   ar
    31    18    19    1
    32    18    20   ar
    33     6     7    2
    34     7     8    1
    35     8     9    1
    36     9    10    2
    37    10    11    1
    38    10     2    1
    39     8     4    1
    40    32    26   ar
    41    20    14   ar
    42    39    34   ar
    43    22    25    1
