@<TRIPOS>MOLECULE
*****
 40 43 0 0 0
SMALL
GASTEIGER

@<TRIPOS>ATOM
      1 N          -0.4009    3.0122   24.5605 N.ar    1  UNL1       -0.2464
      2 N          -1.4077    3.4253   23.5282 N.ar    1  UNL1       -0.1690
      3 C          -2.7661    3.3854   24.1635 C.ar    1  UNL1        0.1024
      4 C          -2.5986    2.9476   25.5884 C.ar    1  UNL1        0.0396
      5 C          -1.1369    2.7169   25.8337 C.ar    1  UNL1        0.0798
      6 C          -4.0638    3.7239   23.4918 C.ar    1  UNL1        0.0211
      7 C          -4.2273    3.4967   22.0183 C.ar    1  UNL1        0.0130
      8 C          -5.5250    3.8353   21.3466 C.ar    1  UNL1        0.0586
      9 CL         -5.6885    3.6080   19.8729 Cl      1  UNL1       -0.0822
     10 C          -6.6594    4.4009   22.1485 C.ar    1  UNL1        0.0228
     11 C          -6.4960    4.6281   23.6222 C.ar    1  UNL1        0.0586
     12 CL         -7.6303    5.1939   24.4242 Cl      1  UNL1       -0.0822
     13 C          -5.1982    4.2896   24.2938 C.ar    1  UNL1        0.0130
     14 C          -0.5195    2.2695   27.1255 C.ar    1  UNL1        0.0176
     15 C           0.2631    3.2406   27.9587 C.ar    1  UNL1        0.0046
     16 C           0.8805    2.7931   29.2505 C.ar    1  UNL1        0.0372
     17 C           0.7152    1.3744   29.7090 C.ar    1  UNL1        0.1468
     18 C          -0.0675    0.4033   28.8758 C.ar    1  UNL1        0.0372
     19 C          -0.6848    0.8508   27.5840 C.ar    1  UNL1        0.0046
     20 O           1.3326    0.9270   31.0008 O.3     1  UNL1       -0.4045
     21 C           2.7497    0.4359   31.0241 C.3     1  UNL1        0.5753
     22 F           4.1668   -0.0553   31.0475 F       1  UNL1       -0.1328
     23 F           2.2779   -0.9425   30.6669 F       1  UNL1       -0.1328
     24 F           3.2215    1.8142   31.3814 F       1  UNL1       -0.1328
     25 C           1.0816    2.9119   24.3555 C.3     1  UNL1        0.1538
     26 C           2.8287   -0.6815   22.2855 C.ar    1  UNL1        0.0533
     27 C           2.8865   -0.5755   23.7806 C.ar    1  UNL1        0.0042
     28 C           2.3041    0.6222   24.4706 C.ar    1  UNL1       -0.0022
     29 C           1.6640    1.7141   23.6655 C.ar    1  UNL1        0.0021
     30 C           1.6062    1.6081   22.1703 C.ar    1  UNL1       -0.0022
     31 C           2.1886    0.4102   21.4803 C.ar    1  UNL1        0.0042
     32 N           3.1525   -2.1030   20.1350 N.am    1  UNL1       -0.3005
     33 C           3.4111   -1.8794   21.5954 C.2     1  UNL1        0.2459
     34 O           4.2521   -2.8536   22.3660 O.2     1  UNL1       -0.2701
     35 H           2.6006   -1.4637   19.6292 H       1  UNL1        0.1498
     36 C           3.7349   -3.3009   19.4450 C.3     1  UNL1        0.0956
     37 C           5.1499   -3.2660   18.9483 C.3     1  UNL1        0.0629
     38 O           6.9865   -2.1454   17.4919 O.co2   1  UNL1       -0.5491
     39 C           5.5438   -2.2965   17.8737 C.2     1  UNL1        0.0520
     40 O           4.4950   -1.4780   17.1808 O.co2   1  UNL1       -0.5491
@<TRIPOS>UNITY_ATOM_ATTR
38 1
charge -1
@<TRIPOS>BOND
     1    38    39   ar
     2    39    40   ar
     3    39    37    1
     4    37    36    1
     5    36    32    1
     6    32    33   am
     7    33    34    2
     8    33    26    1
     9    26    27   ar
    10    27    28   ar
    11    28    29   ar
    12    29    25    1
    13    25     1    1
    14     1     2   ar
    15     2     3   ar
    16     3     6    1
    17     6     7   ar
    18     7     8   ar
    19     8     9    1
    20     8    10   ar
    21    10    11   ar
    22    11    12    1
    23    11    13   ar
    24     3     4   ar
    25     4     5   ar
    26     5    14    1
    27    14    15   ar
    28    15    16   ar
    29    16    17   ar
    30    17    20    1
    31    20    21    1
    32    21    22    1
    33    21    23    1
    34    21    24    1
    35    17    18   ar
    36    18    19   ar
    37    29    30   ar
    38    30    31   ar
    39    31    26   ar
    40     5     1   ar
    41    19    14   ar
    42    13     6   ar
    43    32    35    1
@<TRIPOS>MOLECULE
*****
 40 43 0 0 0
SMALL
GASTEIGER

@<TRIPOS>ATOM
      1 N           6.3348   -1.8691   25.5063 N.ar    1  UNL1       -0.2464
      2 N           6.6531   -2.1934   26.9359 N.ar    1  UNL1       -0.1690
      3 C           6.8977   -3.6703   27.0327 C.ar    1  UNL1        0.1024
      4 C           6.7306   -4.2586   25.6630 C.ar    1  UNL1        0.0396
      5 C           6.3827   -3.1454   24.7197 C.ar    1  UNL1        0.0798
      6 C           7.2479   -4.4260   28.2802 C.ar    1  UNL1        0.0211
      7 C           6.7390   -3.9550   29.6102 C.ar    1  UNL1        0.0130
      8 C           7.0892   -4.7107   30.8577 C.ar    1  UNL1        0.0586
      9 CL          6.5803   -4.2396   32.1877 Cl      1  UNL1       -0.0822
     10 C           7.9482   -5.9375   30.7751 C.ar    1  UNL1        0.0228
     11 C           8.4572   -6.4086   29.4450 C.ar    1  UNL1        0.0586
     12 CL          9.3163   -7.6354   29.3624 Cl      1  UNL1       -0.0822
     13 C           8.1070   -5.6528   28.1976 C.ar    1  UNL1        0.0130
     14 C           6.1276   -3.2841   23.2481 C.ar    1  UNL1        0.0176
     15 C           7.2348   -3.0327   22.2679 C.ar    1  UNL1        0.0046
     16 C           6.9796   -3.1715   20.7963 C.ar    1  UNL1        0.0372
     17 C           5.6171   -3.5616   20.3048 C.ar    1  UNL1        0.1468
     18 C           4.5099   -3.8130   21.2850 C.ar    1  UNL1        0.0372
     19 C           4.7651   -3.6742   22.7566 C.ar    1  UNL1        0.0046
     20 O           5.3620   -3.7003   18.8332 O.3     1  UNL1       -0.4045
     21 C           5.1303   -2.4789   17.9939 C.3     1  UNL1        0.5753
     22 F           4.8987   -1.2574   17.1545 F       1  UNL1       -0.1328
     23 F           3.7014   -2.4376   18.4483 F       1  UNL1       -0.1328
     24 F           6.5593   -2.5201   17.5395 F       1  UNL1       -0.1328
     25 C           6.0233   -0.5075   24.9595 C.3     1  UNL1        0.1538
     26 C           3.0819   -0.0576   21.5837 C.ar    1  UNL1        0.0533
     27 C           4.5384    0.2153   21.3508 C.ar    1  UNL1        0.0042
     28 C           5.5189    0.0653   22.4760 C.ar    1  UNL1       -0.0022
     29 C           5.0429   -0.3575   23.8343 C.ar    1  UNL1        0.0021
     30 C           3.5864   -0.6304   24.0672 C.ar    1  UNL1       -0.0022
     31 C           2.6059   -0.4804   22.9419 C.ar    1  UNL1        0.0042
     32 N           2.1045    1.3375   19.6220 N.am    1  UNL1       -0.3005
     33 C           2.1015    0.0924   20.4584 C.2     1  UNL1        0.2459
     34 O           1.1180   -1.0028   20.1696 O.2     1  UNL1       -0.2701
     35 H           2.7500    2.0563   19.8115 H       1  UNL1        0.1498
     36 C           1.1241    1.4874   18.4967 C.3     1  UNL1        0.0956
     37 C           0.2309    2.6910   18.4355 C.3     1  UNL1        0.0629
     38 O          -0.8422    2.0249   20.7059 O.co2   1  UNL1       -0.5491
     39 C          -0.6825    3.0062   19.5827 C.2     1  UNL1        0.0520
     40 O          -1.4363    4.3029   19.6069 O.co2   1  UNL1       -0.5491
@<TRIPOS>UNITY_ATOM_ATTR
38 1
charge -1
@<TRIPOS>BOND
     1    38    39   ar
     2    39    40   ar
     3    39    37    1
     4    37    36    1
     5    36    32    1
     6    32    33   am
     7    33    34    2
     8    33    26    1
     9    26    27   ar
    10    27    28   ar
    11    28    29   ar
    12    29    25    1
    13    25     1    1
    14     1     2   ar
    15     2     3   ar
    16     3     6    1
    17     6     7   ar
    18     7     8   ar
    19     8     9    1
    20     8    10   ar
    21    10    11   ar
    22    11    12    1
    23    11    13   ar
    24     3     4   ar
    25     4     5   ar
    26     5    14    1
    27    14    15   ar
    28    15    16   ar
    29    16    17   ar
    30    17    20    1
    31    20    21    1
    32    21    22    1
    33    21    23    1
    34    21    24    1
    35    17    18   ar
    36    18    19   ar
    37    29    30   ar
    38    30    31   ar
    39    31    26   ar
    40     5     1   ar
    41    19    14   ar
    42    13     6   ar
    43    32    35    1
@<TRIPOS>MOLECULE
*****
 40 43 0 0 0
SMALL
GASTEIGER

@<TRIPOS>ATOM
      1 N           2.4607    0.2037   31.2305 N.ar    1  UNL1       -0.2464
      2 N           1.7060    1.3494   31.8371 N.ar    1  UNL1       -0.1690
      3 C           2.4417    1.7890   33.0683 C.ar    1  UNL1        0.1024
      4 C           3.6510    0.9150   33.2225 C.ar    1  UNL1        0.0396
      5 C           3.6628   -0.0647   32.0867 C.ar    1  UNL1        0.0798
      6 C           2.0387    2.9063   33.9843 C.ar    1  UNL1        0.0211
      7 C           1.2417    4.0608   33.4536 C.ar    1  UNL1        0.0130
      8 C           0.8388    5.1782   34.3697 C.ar    1  UNL1        0.0586
      9 CL          0.0417    6.3327   33.8389 Cl      1  UNL1       -0.0822
     10 C           1.2328    5.1410   35.8164 C.ar    1  UNL1        0.0228
     11 C           2.0299    3.9864   36.3472 C.ar    1  UNL1        0.0586
     12 CL          2.4240    3.9492   37.7940 Cl      1  UNL1       -0.0822
     13 C           2.4328    2.8691   35.4312 C.ar    1  UNL1        0.0130
     14 C           4.6952   -1.1265   31.8488 C.ar    1  UNL1        0.0176
     15 C           5.5736   -1.0600   30.6348 C.ar    1  UNL1        0.0046
     16 C           6.6060   -2.1218   30.3970 C.ar    1  UNL1        0.0372
     17 C           6.7602   -3.2502   31.3732 C.ar    1  UNL1        0.1468
     18 C           5.8818   -3.3167   32.5873 C.ar    1  UNL1        0.0372
     19 C           4.8494   -2.2549   32.8251 C.ar    1  UNL1        0.0046
     20 O           7.7927   -4.3120   31.1353 O.3     1  UNL1       -0.4045
     21 C           7.5603   -5.3634   30.0910 C.3     1  UNL1        0.5753
     22 F           7.3279   -6.4148   29.0467 F       1  UNL1       -0.1328
     23 F           6.6537   -6.0987   31.0331 F       1  UNL1       -0.1328
     24 F           8.4669   -4.6280   29.1490 F       1  UNL1       -0.1328
     25 C           2.0802   -0.5424   29.9861 C.3     1  UNL1        0.1538
     26 C          -0.1179    1.5727   26.6779 C.ar    1  UNL1        0.0533
     27 C          -0.8816    0.9648   27.8168 C.ar    1  UNL1        0.0042
     28 C          -0.1489    0.2598   28.9195 C.ar    1  UNL1       -0.0022
     29 C           1.3475    0.1626   28.8834 C.ar    1  UNL1        0.0021
     30 C           2.1113    0.7705   27.7444 C.ar    1  UNL1       -0.0022
     31 C           1.3785    1.4756   26.6417 C.ar    1  UNL1        0.0042
     32 N          -2.1407    2.9859   25.8649 N.am    1  UNL1       -0.3005
     33 C          -0.8506    2.2778   25.5751 C.2     1  UNL1        0.2459
     34 O          -0.2931    2.2746   24.1825 O.2     1  UNL1       -0.2701
     35 H          -2.5066    2.9880   26.7789 H       1  UNL1        0.1498
     36 C          -2.8734    3.6909   24.7621 C.3     1  UNL1        0.0956
     37 C          -4.3696    3.7919   24.8005 C.3     1  UNL1        0.0629
     38 O          -6.3496    5.1736   25.7598 O.co2   1  UNL1       -0.5491
     39 C          -5.0468    4.4581   25.9613 C.2     1  UNL1        0.0520
     40 O          -4.4211    4.4088   27.3237 O.co2   1  UNL1       -0.5491
@<TRIPOS>UNITY_ATOM_ATTR
38 1
charge -1
@<TRIPOS>BOND
     1    38    39   ar
     2    39    40   ar
     3    39    37    1
     4    37    36    1
     5    36    32    1
     6    32    33   am
     7    33    34    2
     8    33    26    1
     9    26    27   ar
    10    27    28   ar
    11    28    29   ar
    12    29    25    1
    13    25     1    1
    14     1     2   ar
    15     2     3   ar
    16     3     6    1
    17     6     7   ar
    18     7     8   ar
    19     8     9    1
    20     8    10   ar
    21    10    11   ar
    22    11    12    1
    23    11    13   ar
    24     3     4   ar
    25     4     5   ar
    26     5    14    1
    27    14    15   ar
    28    15    16   ar
    29    16    17   ar
    30    17    20    1
    31    20    21    1
    32    21    22    1
    33    21    23    1
    34    21    24    1
    35    17    18   ar
    36    18    19   ar
    37    29    30   ar
    38    30    31   ar
    39    31    26   ar
    40     5     1   ar
    41    19    14   ar
    42    13     6   ar
    43    32    35    1
@<TRIPOS>MOLECULE
*****
 40 43 0 0 0
SMALL
GASTEIGER

@<TRIPOS>ATOM
      1 N          -0.3552    3.6029   21.0917 N.ar    1  UNL1       -0.2464
      2 N          -1.7620    4.0416   21.3717 N.ar    1  UNL1       -0.1690
      3 C          -2.0796    3.6987   22.7971 C.ar    1  UNL1        0.1024
      4 C          -0.8689    3.0481   23.3981 C.ar    1  UNL1        0.0396
      5 C           0.1968    2.9890   22.3441 C.ar    1  UNL1        0.0798
      6 C          -3.3794    3.9604   23.4984 C.ar    1  UNL1        0.0211
      7 C          -4.6629    3.9638   22.7222 C.ar    1  UNL1        0.0130
      8 C          -5.9628    4.2255   23.4234 C.ar    1  UNL1        0.0586
      9 CL         -7.2464    4.2288   22.6472 Cl      1  UNL1       -0.0822
     10 C          -5.9792    4.4839   24.9008 C.ar    1  UNL1        0.0228
     11 C          -4.6956    4.4806   25.6771 C.ar    1  UNL1        0.0586
     12 CL         -4.7120    4.7390   27.1546 Cl      1  UNL1       -0.0822
     13 C          -3.3958    4.2189   24.9758 C.ar    1  UNL1        0.0130
     14 C           1.5729    2.4164   22.5129 C.ar    1  UNL1        0.0176
     15 C           1.7848    0.9342   22.4225 C.ar    1  UNL1        0.0046
     16 C           3.1609    0.3616   22.5913 C.ar    1  UNL1        0.0372
     17 C           4.3252    1.2713   22.8504 C.ar    1  UNL1        0.1468
     18 C           4.1133    2.7535   22.9407 C.ar    1  UNL1        0.0372
     19 C           2.7372    3.3260   22.7720 C.ar    1  UNL1        0.0046
     20 O           5.7013    0.6987   23.0191 O.3     1  UNL1       -0.4045
     21 C           6.2041   -0.3399   22.0607 C.3     1  UNL1        0.5753
     22 F           6.7068   -1.3785   21.1023 F       1  UNL1       -0.1328
     23 F           6.3597   -1.3103   23.1939 F       1  UNL1       -0.1328
     24 F           6.0484    0.6304   20.9274 F       1  UNL1       -0.1328
     25 C           0.3720    3.7521   19.7883 C.3     1  UNL1        0.1538
     26 C           2.9609    0.4034   18.2604 C.ar    1  UNL1        0.0533
     27 C           1.4898    0.1849   18.4557 C.ar    1  UNL1        0.0042
     28 C           0.6268    1.3011   18.9649 C.ar    1  UNL1       -0.0022
     29 C           1.2350    2.6359   19.2790 C.ar    1  UNL1        0.0021
     30 C           2.7061    2.8544   19.0838 C.ar    1  UNL1       -0.0022
     31 C           3.5690    1.7381   18.5745 C.ar    1  UNL1        0.0042
     32 N           4.5567   -1.5952   18.7177 N.am    1  UNL1       -0.3005
     33 C           3.8239   -0.7128   17.7511 C.2     1  UNL1        0.2459
     34 O           3.9539   -0.9467   16.2752 O.2     1  UNL1       -0.2701
     35 H           4.4713   -1.4417   19.6864 H       1  UNL1        0.1498
     36 C           5.4196   -2.7114   18.2084 C.3     1  UNL1        0.0956
     37 C           4.9883   -4.1363   18.3916 C.3     1  UNL1        0.0629
     38 O           5.5312   -4.2434   20.9300 O.co2   1  UNL1       -0.5491
     39 C           4.6819   -4.6565   19.7647 C.2     1  UNL1        0.0520
     40 O           3.5262   -5.5899   19.9725 O.co2   1  UNL1       -0.5491
@<TRIPOS>UNITY_ATOM_ATTR
38 1
charge -1
@<TRIPOS>BOND
     1    38    39   ar
     2    39    40   ar
     3    39    37    1
     4    37    36    1
     5    36    32    1
     6    32    33   am
     7    33    34    2
     8    33    26    1
     9    26    27   ar
    10    27    28   ar
    11    28    29   ar
    12    29    25    1
    13    25     1    1
    14     1     2   ar
    15     2     3   ar
    16     3     6    1
    17     6     7   ar
    18     7     8   ar
    19     8     9    1
    20     8    10   ar
    21    10    11   ar
    22    11    12    1
    23    11    13   ar
    24     3     4   ar
    25     4     5   ar
    26     5    14    1
    27    14    15   ar
    28    15    16   ar
    29    16    17   ar
    30    17    20    1
    31    20    21    1
    32    21    22    1
    33    21    23    1
    34    21    24    1
    35    17    18   ar
    36    18    19   ar
    37    29    30   ar
    38    30    31   ar
    39    31    26   ar
    40     5     1   ar
    41    19    14   ar
    42    13     6   ar
    43    32    35    1
@<TRIPOS>MOLECULE
*****
 40 43 0 0 0
SMALL
GASTEIGER

@<TRIPOS>ATOM
      1 N           1.4171    2.2864   21.9380 N.ar    1  UNL1       -0.2464
      2 N           0.2163    3.1249   22.2621 N.ar    1  UNL1       -0.1690
      3 C          -0.8599    2.7964   21.2701 C.ar    1  UNL1        0.1024
      4 C          -0.3242    1.7548   20.3329 C.ar    1  UNL1        0.0396
      5 C           1.0830    1.4396   20.7457 C.ar    1  UNL1        0.0798
      6 C          -2.2310    3.4029   21.2234 C.ar    1  UNL1        0.0211
      7 C          -2.8603    3.9316   22.4781 C.ar    1  UNL1        0.0130
      8 C          -4.2314    4.5381   22.4315 C.ar    1  UNL1        0.0586
      9 CL         -4.8607    5.0668   23.6863 Cl      1  UNL1       -0.0822
     10 C          -4.9732    4.6160   21.1302 C.ar    1  UNL1        0.0228
     11 C          -4.3439    4.0874   19.8754 C.ar    1  UNL1        0.0586
     12 CL         -5.0856    4.1652   18.5739 Cl      1  UNL1       -0.0822
     13 C          -2.9728    3.4808   19.9220 C.ar    1  UNL1        0.0130
     14 C           1.9959    0.4512   20.0827 C.ar    1  UNL1        0.0176
     15 C           2.9435    0.9060   19.0126 C.ar    1  UNL1        0.0046
     16 C           3.8564   -0.0825   18.3496 C.ar    1  UNL1        0.0372
     17 C           3.8218   -1.5258   18.7568 C.ar    1  UNL1        0.1468
     18 C           2.8742   -1.9806   19.8270 C.ar    1  UNL1        0.0372
     19 C           1.9613   -0.9921   20.4899 C.ar    1  UNL1        0.0046
     20 O           4.7347   -2.5142   18.0938 O.3     1  UNL1       -0.4045
     21 C           5.4152   -3.5720   18.9112 C.3     1  UNL1        0.5753
     22 F           6.0957   -4.6298   19.7285 F       1  UNL1       -0.1328
     23 F           6.2526   -2.5198   19.5757 F       1  UNL1       -0.1328
     24 F           4.5777   -4.6242   18.2467 F       1  UNL1       -0.1328
     25 C           2.7226    2.2933   22.6765 C.3     1  UNL1        0.1538
     26 C           4.8306   -1.5838   23.5563 C.ar    1  UNL1        0.0533
     27 C           3.5138   -1.2814   24.2078 C.ar    1  UNL1        0.0042
     28 C           2.8111    0.0109   23.9146 C.ar    1  UNL1       -0.0022
     29 C           3.4253    1.0010   22.9697 C.ar    1  UNL1        0.0021
     30 C           4.7421    0.6986   22.3182 C.ar    1  UNL1       -0.0022
     31 C           5.4448   -0.5938   22.6115 C.ar    1  UNL1        0.0042
     32 N           5.9888   -3.1823   25.2455 N.am    1  UNL1       -0.3005
     33 C           5.5333   -2.8762   23.8496 C.2     1  UNL1        0.2459
     34 O           5.7804   -3.8626   22.7468 O.2     1  UNL1       -0.2701
     35 H           5.8267   -2.5349   25.9693 H       1  UNL1        0.1498
     36 C           6.6914   -4.4747   25.5388 C.3     1  UNL1        0.0956
     37 C           7.3365   -4.6912   26.8756 C.3     1  UNL1        0.0629
     38 O           6.4545   -5.4616   29.1948 O.co2   1  UNL1       -0.5491
     39 C           6.5694   -4.4082   28.1331 C.2     1  UNL1        0.0520
     40 O           5.9171   -3.0717   28.3290 O.co2   1  UNL1       -0.5491
@<TRIPOS>UNITY_ATOM_ATTR
38 1
charge -1
@<TRIPOS>BOND
     1    38    39   ar
     2    39    40   ar
     3    39    37    1
     4    37    36    1
     5    36    32    1
     6    32    33   am
     7    33    34    2
     8    33    26    1
     9    26    27   ar
    10    27    28   ar
    11    28    29   ar
    12    29    25    1
    13    25     1    1
    14     1     2   ar
    15     2     3   ar
    16     3     6    1
    17     6     7   ar
    18     7     8   ar
    19     8     9    1
    20     8    10   ar
    21    10    11   ar
    22    11    12    1
    23    11    13   ar
    24     3     4   ar
    25     4     5   ar
    26     5    14    1
    27    14    15   ar
    28    15    16   ar
    29    16    17   ar
    30    17    20    1
    31    20    21    1
    32    21    22    1
    33    21    23    1
    34    21    24    1
    35    17    18   ar
    36    18    19   ar
    37    29    30   ar
    38    30    31   ar
    39    31    26   ar
    40     5     1   ar
    41    19    14   ar
    42    13     6   ar
    43    32    35    1
@<TRIPOS>MOLECULE
*****
 40 43 0 0 0
SMALL
GASTEIGER

@<TRIPOS>ATOM
      1 N           2.4832    1.9629   21.9504 N.ar    1  UNL1       -0.2464
      2 N           3.1398    1.3676   20.7402 N.ar    1  UNL1       -0.1690
      3 C           3.4151   -0.0790   21.0266 C.ar    1  UNL1        0.1024
      4 C           2.9286   -0.3776   22.4138 C.ar    1  UNL1        0.0396
      5 C           2.3528    0.8843   22.9847 C.ar    1  UNL1        0.0798
      6 C           4.0630   -1.0554   20.0902 C.ar    1  UNL1        0.0211
      7 C           3.5394   -2.4572   19.9882 C.ar    1  UNL1        0.0130
      8 C           4.1873   -3.4336   19.0518 C.ar    1  UNL1        0.0586
      9 CL          3.6637   -4.8355   18.9499 Cl      1  UNL1       -0.0822
     10 C           5.3589   -3.0081   18.2174 C.ar    1  UNL1        0.0228
     11 C           5.8825   -1.6062   18.3193 C.ar    1  UNL1        0.0586
     12 CL          7.0541   -1.1806   17.4849 Cl      1  UNL1       -0.0822
     13 C           5.2346   -0.6298   19.2557 C.ar    1  UNL1        0.0130
     14 C           1.7519    1.0403   24.3502 C.ar    1  UNL1        0.0176
     15 C           0.2667    1.1835   24.5042 C.ar    1  UNL1        0.0046
     16 C          -0.3341    1.3395   25.8697 C.ar    1  UNL1        0.0372
     17 C           0.5502    1.3523   27.0813 C.ar    1  UNL1        0.1468
     18 C           2.0354    1.2092   26.9273 C.ar    1  UNL1        0.0372
     19 C           2.6362    1.0531   25.5618 C.ar    1  UNL1        0.0046
     20 O          -0.0507    1.5084   28.4468 O.3     1  UNL1       -0.4045
     21 C          -1.0243    0.4885   28.9586 C.3     1  UNL1        0.5753
     22 F          -1.9979   -0.5313   29.4705 F       1  UNL1       -0.1328
     23 F          -2.1645    1.3313   28.4691 F       1  UNL1       -0.1328
     24 F           0.1159   -0.3543   29.4482 F       1  UNL1       -0.1328
     25 C           2.0358    3.3867   22.1001 C.3     1  UNL1        0.1538
     26 C          -2.3551    4.3665   22.2001 C.ar    1  UNL1        0.0533
     27 C          -1.3975    5.1245   23.0709 C.ar    1  UNL1        0.0042
     28 C           0.0661    4.7979   23.0376 C.ar    1  UNL1       -0.0022
     29 C           0.5722    3.7133   22.1334 C.ar    1  UNL1        0.0021
     30 C          -0.3855    2.9552   21.2626 C.ar    1  UNL1       -0.0022
     31 C          -1.8492    3.2819   21.2960 C.ar    1  UNL1        0.0042
     32 N          -4.8152    3.6346   22.6030 N.am    1  UNL1       -0.3005
     33 C          -3.8188    4.6931   22.2335 C.2     1  UNL1        0.2459
     34 O          -4.2860    6.0783   21.8973 O.2     1  UNL1       -0.2701
     35 H          -4.5086    2.7254   22.8237 H       1  UNL1        0.1498
     36 C          -6.2788    3.9612   22.6364 C.3     1  UNL1        0.0956
     37 C          -6.8680    4.6428   23.8357 C.3     1  UNL1        0.0629
     38 O          -6.3686    5.6714   26.1686 O.co2   1  UNL1       -0.5491
     39 C          -6.1573    4.5857   25.1554 C.2     1  UNL1        0.0520
     40 O          -5.2353    3.4429   25.4618 O.co2   1  UNL1       -0.5491
@<TRIPOS>UNITY_ATOM_ATTR
38 1
charge -1
@<TRIPOS>BOND
     1    38    39   ar
     2    39    40   ar
     3    39    37    1
     4    37    36    1
     5    36    32    1
     6    32    33   am
     7    33    34    2
     8    33    26    1
     9    26    27   ar
    10    27    28   ar
    11    28    29   ar
    12    29    25    1
    13    25     1    1
    14     1     2   ar
    15     2     3   ar
    16     3     6    1
    17     6     7   ar
    18     7     8   ar
    19     8     9    1
    20     8    10   ar
    21    10    11   ar
    22    11    12    1
    23    11    13   ar
    24     3     4   ar
    25     4     5   ar
    26     5    14    1
    27    14    15   ar
    28    15    16   ar
    29    16    17   ar
    30    17    20    1
    31    20    21    1
    32    21    22    1
    33    21    23    1
    34    21    24    1
    35    17    18   ar
    36    18    19   ar
    37    29    30   ar
    38    30    31   ar
    39    31    26   ar
    40     5     1   ar
    41    19    14   ar
    42    13     6   ar
    43    32    35    1
@<TRIPOS>MOLECULE
*****
 40 43 0 0 0
SMALL
GASTEIGER

@<TRIPOS>ATOM
      1 N           1.4986    2.2012   22.1040 N.ar    1  UNL1       -0.2464
      2 N           0.3201    3.0515   22.4760 N.ar    1  UNL1       -0.1690
      3 C          -0.7708    2.7932   21.4793 C.ar    1  UNL1        0.1024
      4 C          -0.2665    1.7833   20.4914 C.ar    1  UNL1        0.0396
      5 C           1.1360    1.4175   20.8775 C.ar    1  UNL1        0.0798
      6 C          -2.1277    3.4325   21.4719 C.ar    1  UNL1        0.0211
      7 C          -3.0491    3.2230   20.3070 C.ar    1  UNL1        0.0130
      8 C          -4.4060    3.8623   20.2996 C.ar    1  UNL1        0.0586
      9 CL         -5.3275    3.6528   19.1347 Cl      1  UNL1       -0.0822
     10 C          -4.8415    4.7111   21.4571 C.ar    1  UNL1        0.0228
     11 C          -3.9201    4.9205   22.6221 C.ar    1  UNL1        0.0586
     12 CL         -4.3556    5.7693   23.7796 Cl      1  UNL1       -0.0822
     13 C          -2.5632    4.2812   22.6295 C.ar    1  UNL1        0.0130
     14 C           2.0207    0.4396   20.1626 C.ar    1  UNL1        0.0176
     15 C           1.9705   -1.0166   20.5187 C.ar    1  UNL1        0.0046
     16 C           2.8553   -1.9944   19.8038 C.ar    1  UNL1        0.0372
     17 C           3.7902   -1.5161   18.7327 C.ar    1  UNL1        0.1468
     18 C           3.8403   -0.0598   18.3766 C.ar    1  UNL1        0.0372
     19 C           2.9556    0.9180   19.0915 C.ar    1  UNL1        0.0046
     20 O           4.6749   -2.4939   18.0178 O.3     1  UNL1       -0.4045
     21 C           5.3819   -3.5686   18.7893 C.3     1  UNL1        0.5753
     22 F           6.0889   -4.6433   19.5608 F       1  UNL1       -0.1328
     23 F           6.2829   -2.5370   19.4007 F       1  UNL1       -0.1328
     24 F           4.4808   -4.6003   18.1780 F       1  UNL1       -0.1328
     25 C           2.8095    2.1447   22.8309 C.3     1  UNL1        0.1538
     26 C           4.8559   -1.8109   23.4754 C.ar    1  UNL1        0.0533
     27 C           3.5558   -1.5181   24.1639 C.ar    1  UNL1        0.0042
     28 C           2.8736   -0.1996   23.9490 C.ar    1  UNL1       -0.0022
     29 C           3.4916    0.8262   23.0457 C.ar    1  UNL1        0.0021
     30 C           4.7918    0.5334   22.3573 C.ar    1  UNL1       -0.0022
     31 C           5.4739   -0.7852   22.5722 C.ar    1  UNL1        0.0042
     32 N           6.1011   -3.4718   25.0378 N.am    1  UNL1       -0.3005
     33 C           5.5380   -3.1295   23.6903 C.2     1  UNL1        0.2459
     34 O           5.6571   -4.1057   22.5577 O.2     1  UNL1       -0.2701
     35 H           6.0230   -2.8311   25.7812 H       1  UNL1        0.1498
     36 C           6.7832   -4.7903   25.2526 C.3     1  UNL1        0.0956
     37 C           6.9079   -5.3534   26.6374 C.3     1  UNL1        0.0629
     38 O           7.1831   -2.9986   27.7000 O.co2   1  UNL1       -0.5491
     39 C           6.8101   -4.4459   27.8277 C.2     1  UNL1        0.0520
     40 O           6.3394   -4.9857   29.1456 O.co2   1  UNL1       -0.5491
@<TRIPOS>UNITY_ATOM_ATTR
38 1
charge -1
@<TRIPOS>BOND
     1    38    39   ar
     2    39    40   ar
     3    39    37    1
     4    37    36    1
     5    36    32    1
     6    32    33   am
     7    33    34    2
     8    33    26    1
     9    26    27   ar
    10    27    28   ar
    11    28    29   ar
    12    29    25    1
    13    25     1    1
    14     1     2   ar
    15     2     3   ar
    16     3     6    1
    17     6     7   ar
    18     7     8   ar
    19     8     9    1
    20     8    10   ar
    21    10    11   ar
    22    11    12    1
    23    11    13   ar
    24     3     4   ar
    25     4     5   ar
    26     5    14    1
    27    14    15   ar
    28    15    16   ar
    29    16    17   ar
    30    17    20    1
    31    20    21    1
    32    21    22    1
    33    21    23    1
    34    21    24    1
    35    17    18   ar
    36    18    19   ar
    37    29    30   ar
    38    30    31   ar
    39    31    26   ar
    40     5     1   ar
    41    19    14   ar
    42    13     6   ar
    43    32    35    1
@<TRIPOS>MOLECULE
*****
 40 43 0 0 0
SMALL
GASTEIGER

@<TRIPOS>ATOM
      1 N          -0.2875    3.1257   22.3128 N.ar    1  UNL1       -0.2464
      2 N          -1.6442    3.5936   22.7492 N.ar    1  UNL1       -0.1690
      3 C          -2.5890    3.4138   21.5980 C.ar    1  UNL1        0.1024
      4 C          -1.8161    2.8348   20.4501 C.ar    1  UNL1        0.0396
      5 C          -0.3937    2.6568   20.8919 C.ar    1  UNL1        0.0798
      6 C          -4.0500    3.7534   21.5952 C.ar    1  UNL1        0.0211
      7 C          -4.7533    4.0510   22.8861 C.ar    1  UNL1        0.0130
      8 C          -6.2144    4.3905   22.8833 C.ar    1  UNL1        0.0586
      9 CL         -6.9177    4.6882   24.1743 Cl      1  UNL1       -0.0822
     10 C          -6.9721    4.4325   21.5895 C.ar    1  UNL1        0.0228
     11 C          -6.2688    4.1349   20.2984 C.ar    1  UNL1        0.0586
     12 CL         -7.0264    4.1768   19.0046 Cl      1  UNL1       -0.0822
     13 C          -4.8077    3.7953   20.3013 C.ar    1  UNL1        0.0130
     14 C           0.7259    2.1065   20.0591 C.ar    1  UNL1        0.0176
     15 C           0.8681    0.6242   19.8789 C.ar    1  UNL1        0.0046
     16 C           1.9878    0.0739   19.0461 C.ar    1  UNL1        0.0372
     17 C           2.9652    1.0060   18.3934 C.ar    1  UNL1        0.1468
     18 C           2.8230    2.4883   18.5736 C.ar    1  UNL1        0.0372
     19 C           1.7034    3.0385   19.4064 C.ar    1  UNL1        0.0046
     20 O           4.0848    0.4556   17.5606 O.3     1  UNL1       -0.4045
     21 C           4.4054   -1.0089   17.6086 C.3     1  UNL1        0.5753
     22 F           4.7259   -2.4735   17.6566 F       1  UNL1       -0.1328
     23 F           3.6120   -1.2237   16.3538 F       1  UNL1       -0.1328
     24 F           5.1987   -0.7942   18.8634 F       1  UNL1       -0.1328
     25 C           0.9570    3.1266   23.1503 C.3     1  UNL1        0.1538
     26 C           3.9220   -0.2379   22.7778 C.ar    1  UNL1        0.0533
     27 C           4.2737    1.1308   22.2751 C.ar    1  UNL1        0.0042
     28 C           3.2854    2.2523   22.3992 C.ar    1  UNL1       -0.0022
     29 C           1.9453    2.0051   23.0261 C.ar    1  UNL1        0.0021
     30 C           1.5935    0.6363   23.5288 C.ar    1  UNL1       -0.0022
     31 C           2.5819   -0.4852   23.4047 C.ar    1  UNL1        0.0042
     32 N           6.3676   -1.0576   22.4664 N.am    1  UNL1       -0.3005
     33 C           4.9103   -1.3595   22.6536 C.2     1  UNL1        0.2459
     34 O           4.4413   -2.7829   22.7167 O.2     1  UNL1       -0.2701
     35 H           6.6755   -0.1233   22.4250 H       1  UNL1        0.1498
     36 C           7.3559   -2.1791   22.3422 C.3     1  UNL1        0.0956
     37 C           7.6207   -2.8006   21.0029 C.3     1  UNL1        0.0629
     38 O           5.8104   -4.4579   20.1507 O.co2   1  UNL1       -0.5491
     39 C           7.1724   -4.2050   20.7260 C.2     1  UNL1        0.0520
     40 O           8.0861   -5.3565   21.0245 O.co2   1  UNL1       -0.5491
@<TRIPOS>UNITY_ATOM_ATTR
38 1
charge -1
@<TRIPOS>BOND
     1    38    39   ar
     2    39    40   ar
     3    39    37    1
     4    37    36    1
     5    36    32    1
     6    32    33   am
     7    33    34    2
     8    33    26    1
     9    26    27   ar
    10    27    28   ar
    11    28    29   ar
    12    29    25    1
    13    25     1    1
    14     1     2   ar
    15     2     3   ar
    16     3     6    1
    17     6     7   ar
    18     7     8   ar
    19     8     9    1
    20     8    10   ar
    21    10    11   ar
    22    11    12    1
    23    11    13   ar
    24     3     4   ar
    25     4     5   ar
    26     5    14    1
    27    14    15   ar
    28    15    16   ar
    29    16    17   ar
    30    17    20    1
    31    20    21    1
    32    21    22    1
    33    21    23    1
    34    21    24    1
    35    17    18   ar
    36    18    19   ar
    37    29    30   ar
    38    30    31   ar
    39    31    26   ar
    40     5     1   ar
    41    19    14   ar
    42    13     6   ar
    43    32    35    1
@<TRIPOS>MOLECULE
*****
 40 43 0 0 0
SMALL
GASTEIGER

@<TRIPOS>ATOM
      1 N           2.4577    0.3611   31.2523 N.ar    1  UNL1       -0.2464
      2 N           1.7644    1.4267   32.0485 N.ar    1  UNL1       -0.1690
      3 C           2.5666    1.6721   33.2921 C.ar    1  UNL1        0.1024
      4 C           3.7557    0.7580   33.2644 C.ar    1  UNL1        0.0396
      5 C           3.6884   -0.0521   32.0038 C.ar    1  UNL1        0.0798
      6 C           2.2375    2.6582   34.3733 C.ar    1  UNL1        0.0211
      7 C           2.6663    2.3932   35.7860 C.ar    1  UNL1        0.0130
      8 C           2.3372    3.3793   36.8673 C.ar    1  UNL1        0.0586
      9 CL          2.7661    3.1142   38.2800 Cl      1  UNL1       -0.0822
     10 C           1.5792    4.6305   36.5359 C.ar    1  UNL1        0.0228
     11 C           1.1503    4.8956   35.1231 C.ar    1  UNL1        0.0586
     12 CL          0.3924    6.1468   34.7916 Cl      1  UNL1       -0.0822
     13 C           1.4795    3.9094   34.0419 C.ar    1  UNL1        0.0130
     14 C           4.6779   -1.0928   31.5707 C.ar    1  UNL1        0.0176
     15 C           5.2564   -1.0482   30.1875 C.ar    1  UNL1        0.0046
     16 C           6.2459   -2.0890   29.7545 C.ar    1  UNL1        0.0372
     17 C           6.6572   -3.1744   30.7046 C.ar    1  UNL1        0.1468
     18 C           6.0787   -3.2190   32.0879 C.ar    1  UNL1        0.0372
     19 C           5.0892   -2.1783   32.5209 C.ar    1  UNL1        0.0046
     20 O           7.6467   -4.2151   30.2715 O.3     1  UNL1       -0.4045
     21 C           7.2986   -5.1667   29.1655 C.3     1  UNL1        0.5753
     22 F           6.9504   -6.1184   28.0595 F       1  UNL1       -0.1328
     23 F           6.4526   -5.9615   30.1156 F       1  UNL1       -0.1328
     24 F           8.1446   -4.3720   28.2154 F       1  UNL1       -0.1328
     25 C           2.0006   -0.1938   29.9359 C.3     1  UNL1        0.1538
     26 C          -0.7471    2.2161   27.3105 C.ar    1  UNL1        0.0533
     27 C          -1.2916    1.0769   28.1202 C.ar    1  UNL1        0.0042
     28 C          -0.3758    0.2736   28.9953 C.ar    1  UNL1       -0.0022
     29 C           1.0847    0.6095   29.0607 C.ar    1  UNL1        0.0021
     30 C           1.6293    1.7487   28.2510 C.ar    1  UNL1       -0.0022
     31 C           0.7133    2.5520   27.3759 C.ar    1  UNL1        0.0042
     32 N          -1.7179    2.7507   24.9606 N.am    1  UNL1       -0.3005
     33 C          -1.6630    3.0194   26.4353 C.2     1  UNL1        0.2459
     34 O          -2.5241    4.0913   27.0350 O.2     1  UNL1       -0.2701
     35 H          -1.1528    2.0472   24.5671 H       1  UNL1        0.1498
     36 C          -2.6338    3.5540   24.0856 C.3     1  UNL1        0.0956
     37 C          -4.1081    3.2773   24.0890 C.3     1  UNL1        0.0629
     38 O          -4.3233    2.6499   21.5770 O.co2   1  UNL1       -0.5491
     39 C          -4.8803    3.3099   22.8035 C.2     1  UNL1        0.0520
     40 O          -6.2095    4.0025   22.7444 O.co2   1  UNL1       -0.5491
@<TRIPOS>UNITY_ATOM_ATTR
38 1
charge -1
@<TRIPOS>BOND
     1    38    39   ar
     2    39    40   ar
     3    39    37    1
     4    37    36    1
     5    36    32    1
     6    32    33   am
     7    33    34    2
     8    33    26    1
     9    26    27   ar
    10    27    28   ar
    11    28    29   ar
    12    29    25    1
    13    25     1    1
    14     1     2   ar
    15     2     3   ar
    16     3     6    1
    17     6     7   ar
    18     7     8   ar
    19     8     9    1
    20     8    10   ar
    21    10    11   ar
    22    11    12    1
    23    11    13   ar
    24     3     4   ar
    25     4     5   ar
    26     5    14    1
    27    14    15   ar
    28    15    16   ar
    29    16    17   ar
    30    17    20    1
    31    20    21    1
    32    21    22    1
    33    21    23    1
    34    21    24    1
    35    17    18   ar
    36    18    19   ar
    37    29    30   ar
    38    30    31   ar
    39    31    26   ar
    40     5     1   ar
    41    19    14   ar
    42    13     6   ar
    43    32    35    1
