@<TRIPOS>MOLECULE
*****
 24 27 0 0 0
SMALL
GASTEIGER

@<TRIPOS>ATOM
      1 C          -8.0162  -18.4603   21.5693 C.ar    1  UNL1        0.1215
      2 N          -9.2017  -19.3218   21.2491 N.ar    1  UNL1       -0.2309
      3 C         -10.4420  -18.5235   21.5219 C.ar    1  UNL1        0.0983
      4 C         -11.8988  -18.8552   21.3884 C.ar    1  UNL1        0.0206
      5 C         -12.9365  -17.8321   21.7437 C.ar    1  UNL1        0.0016
      6 C         -12.5176  -16.4773   22.2325 C.ar    1  UNL1        0.0016
      7 C         -11.0608  -16.1456   22.3661 C.ar    1  UNL1        0.0188
      8 C         -10.0231  -17.1687   22.0107 C.ar    1  UNL1        0.0789
      9 N          -8.5239  -17.1297   22.0400 N.ar    1  UNL1       -0.3106
     10 C          -3.1021  -18.1735   23.2332 C.3     1  UNL1        0.0896
     11 N          -4.1189  -18.7161   22.2732 N.3     1  UNL1       -0.2711
     12 C          -3.6955  -19.6578   21.1851 C.3     1  UNL1        0.0722
     13 C          -4.7124  -20.2004   20.2251 C.3     1  UNL1        0.0178
     14 C          -6.1526  -19.8012   20.3532 C.3     1  UNL1        0.0103
     15 C          -6.5760  -18.8595   21.4412 C.3     1  UNL1        0.0729
     16 C          -5.5592  -18.3170   22.4012 C.3     1  UNL1        0.0796
     17 C          -7.6804  -15.9645   22.4653 C.3     1  UNL1        0.1339
     18 C          -7.3924  -15.7384   23.9199 C.ar    1  UNL1        0.0006
     19 C          -5.9941  -15.4328   24.3690 C.ar    1  UNL1       -0.0001
     20 C          -5.7060  -15.2067   25.8236 C.ar    1  UNL1        0.0294
     21 C          -6.8162  -15.2861   26.8292 C.ar    1  UNL1        0.1401
     22 F          -6.5282  -15.0600   28.2837 F       1  UNL1       -0.2042
     23 C          -8.2144  -15.5916   26.3801 C.ar    1  UNL1        0.0294
     24 C          -8.5025  -15.8177   24.9255 C.ar    1  UNL1       -0.0001
@<TRIPOS>BOND
     1    10    11    1
     2    11    12    1
     3    12    13    1
     4    13    14    1
     5    14    15    1
     6    15     1    1
     7     1     2   ar
     8     2     3   ar
     9     3     4   ar
    10     4     5   ar
    11     5     6   ar
    12     6     7   ar
    13     7     8   ar
    14     8     9   ar
    15     9    17    1
    16    17    18    1
    17    18    19   ar
    18    19    20   ar
    19    20    21   ar
    20    21    22    1
    21    21    23   ar
    22    23    24   ar
    23    15    16    1
    24    16    11    1
    25     9     1   ar
    26    24    18   ar
    27     8     3   ar
@<TRIPOS>MOLECULE
*****
 24 27 0 0 0
SMALL
GASTEIGER

@<TRIPOS>ATOM
      1 C          -8.2263  -16.9754   22.8883 C.ar    1  UNL1        0.1215
      2 N          -9.4436  -16.3765   22.2484 N.ar    1  UNL1       -0.2309
      3 C          -9.9285  -17.3271   21.1942 C.ar    1  UNL1        0.0983
      4 C         -11.0870  -17.2655   20.2435 C.ar    1  UNL1        0.0206
      5 C         -11.3278  -18.3905   19.2810 C.ar    1  UNL1        0.0016
      6 C         -10.4102  -19.5771   19.2694 C.ar    1  UNL1        0.0016
      7 C          -9.2517  -19.6386   20.2202 C.ar    1  UNL1        0.0188
      8 C          -9.0108  -18.5136   21.1826 C.ar    1  UNL1        0.0789
      9 N          -7.9589  -18.2963   22.2296 N.ar    1  UNL1       -0.3106
     10 C          -7.8968  -15.1435   27.7397 C.3     1  UNL1        0.0896
     11 N          -7.2536  -15.4455   26.4186 N.3     1  UNL1       -0.2711
     12 C          -5.8025  -15.1334   26.2022 C.3     1  UNL1        0.0722
     13 C          -5.1593  -15.4354   24.8812 C.3     1  UNL1        0.0178
     14 C          -5.9673  -16.0494   23.7765 C.3     1  UNL1        0.0103
     15 C          -7.4184  -16.3614   23.9929 C.3     1  UNL1        0.0729
     16 C          -8.0615  -16.0595   25.3139 C.3     1  UNL1        0.0796
     17 C          -6.8365  -19.2350   22.5599 C.3     1  UNL1        0.1339
     18 C          -5.5310  -19.1298   21.8288 C.ar    1  UNL1        0.0006
     19 C          -5.5054  -19.1728   20.3296 C.ar    1  UNL1       -0.0001
     20 C          -4.1999  -19.0677   19.5984 C.ar    1  UNL1        0.0294
     21 C          -2.9199  -18.9195   20.3665 C.ar    1  UNL1        0.1401
     22 F          -1.6144  -18.8143   19.6354 F       1  UNL1       -0.2042
     23 C          -2.9456  -18.8765   21.8657 C.ar    1  UNL1        0.0294
     24 C          -4.2511  -18.9816   22.5968 C.ar    1  UNL1       -0.0001
@<TRIPOS>BOND
     1    10    11    1
     2    11    12    1
     3    12    13    1
     4    13    14    1
     5    14    15    1
     6    15     1    1
     7     1     2   ar
     8     2     3   ar
     9     3     4   ar
    10     4     5   ar
    11     5     6   ar
    12     6     7   ar
    13     7     8   ar
    14     8     9   ar
    15     9    17    1
    16    17    18    1
    17    18    19   ar
    18    19    20   ar
    19    20    21   ar
    20    21    22    1
    21    21    23   ar
    22    23    24   ar
    23    15    16    1
    24    16    11    1
    25     9     1   ar
    26    24    18   ar
    27     8     3   ar
@<TRIPOS>MOLECULE
*****
 24 27 0 0 0
SMALL
GASTEIGER

@<TRIPOS>ATOM
      1 C          -4.7552  -16.8096   22.9973 C.ar    1  UNL1        0.1215
      2 N          -3.5743  -15.9674   22.6148 N.ar    1  UNL1       -0.2309
      3 C          -2.6572  -16.8081   21.7769 C.ar    1  UNL1        0.0983
      4 C          -1.3423  -16.5095   21.1197 C.ar    1  UNL1        0.0206
      5 C          -0.6415  -17.5728   20.3271 C.ar    1  UNL1        0.0016
      6 C          -1.2555  -18.9346   20.1916 C.ar    1  UNL1        0.0016
      7 C          -2.5704  -19.2332   20.8488 C.ar    1  UNL1        0.0188
      8 C          -3.2712  -18.1699   21.6414 C.ar    1  UNL1        0.0789
      9 N          -4.5678  -18.1709   22.3956 N.ar    1  UNL1       -0.3106
     10 C          -6.6801  -15.2629   27.5692 C.3     1  UNL1        0.0896
     11 N          -6.8814  -15.5948   26.1202 N.3     1  UNL1       -0.2711
     12 C          -8.2466  -15.4852   25.5084 C.3     1  UNL1        0.0722
     13 C          -8.4479  -15.8170   24.0595 C.3     1  UNL1        0.0178
     14 C          -7.2841  -16.2585   23.2225 C.3     1  UNL1        0.0103
     15 C          -5.9190  -16.3681   23.8343 C.3     1  UNL1        0.0729
     16 C          -5.7176  -16.0363   25.2832 C.3     1  UNL1        0.0796
     17 C          -5.5114  -19.3296   22.5255 C.3     1  UNL1        0.1339
     18 C          -6.7662  -19.3707   21.7048 C.ar    1  UNL1        0.0006
     19 C          -8.1038  -19.4244   22.3817 C.ar    1  UNL1       -0.0001
     20 C          -9.3587  -19.4655   21.5610 C.ar    1  UNL1        0.0294
     21 C          -9.2761  -19.4528   20.0633 C.ar    1  UNL1        0.1401
     22 F         -10.5310  -19.4938   19.2426 F       1  UNL1       -0.2042
     23 C          -7.9386  -19.3991   19.3864 C.ar    1  UNL1        0.0294
     24 C          -6.6837  -19.3580   20.2071 C.ar    1  UNL1       -0.0001
@<TRIPOS>BOND
     1    10    11    1
     2    11    12    1
     3    12    13    1
     4    13    14    1
     5    14    15    1
     6    15     1    1
     7     1     2   ar
     8     2     3   ar
     9     3     4   ar
    10     4     5   ar
    11     5     6   ar
    12     6     7   ar
    13     7     8   ar
    14     8     9   ar
    15     9    17    1
    16    17    18    1
    17    18    19   ar
    18    19    20   ar
    19    20    21   ar
    20    21    22    1
    21    21    23   ar
    22    23    24   ar
    23    15    16    1
    24    16    11    1
    25     9     1   ar
    26    24    18   ar
    27     8     3   ar
@<TRIPOS>MOLECULE
*****
 24 27 0 0 0
SMALL
GASTEIGER

@<TRIPOS>ATOM
      1 C          -7.3226  -17.4449   22.7084 C.ar    1  UNL1        0.1215
      2 N          -6.5187  -18.4925   21.9970 N.ar    1  UNL1       -0.2309
      3 C          -7.3677  -19.0626   20.8996 C.ar    1  UNL1        0.0983
      4 C          -7.1026  -20.1249   19.8744 C.ar    1  UNL1        0.0206
      5 C          -8.1662  -20.4920   18.8825 C.ar    1  UNL1        0.0016
      6 C          -9.4949  -19.7967   18.9158 C.ar    1  UNL1        0.0016
      7 C          -9.7600  -18.7344   19.9410 C.ar    1  UNL1        0.0188
      8 C          -8.6964  -18.3673   20.9329 C.ar    1  UNL1        0.0789
      9 N          -8.6686  -17.3675   22.0508 N.ar    1  UNL1       -0.3106
     10 C          -8.2718  -15.2370   27.3154 C.3     1  UNL1        0.0896
     11 N          -7.3362  -15.5156   26.1765 N.3     1  UNL1       -0.2711
     12 C          -5.9396  -14.9690   26.2023 C.3     1  UNL1        0.0722
     13 C          -5.0040  -15.2477   25.0635 C.3     1  UNL1        0.0178
     14 C          -5.4651  -16.0730   23.8989 C.3     1  UNL1        0.0103
     15 C          -6.8616  -16.6196   23.8731 C.3     1  UNL1        0.0729
     16 C          -7.7972  -16.3409   25.0119 C.3     1  UNL1        0.0796
     17 C          -9.7898  -16.4513   22.4423 C.3     1  UNL1        0.1339
     18 C         -11.0586  -17.0175   23.0074 C.ar    1  UNL1        0.0006
     19 C         -12.3851  -16.4786   22.5600 C.ar    1  UNL1       -0.0001
     20 C         -13.6539  -17.0448   23.1251 C.ar    1  UNL1        0.0294
     21 C         -13.5964  -18.1500   24.1377 C.ar    1  UNL1        0.1401
     22 F         -14.8652  -18.7162   24.7028 F       1  UNL1       -0.2042
     23 C         -12.2700  -18.6889   24.5851 C.ar    1  UNL1        0.0294
     24 C         -11.0011  -18.1227   24.0200 C.ar    1  UNL1       -0.0001
@<TRIPOS>BOND
     1    10    11    1
     2    11    12    1
     3    12    13    1
     4    13    14    1
     5    14    15    1
     6    15     1    1
     7     1     2   ar
     8     2     3   ar
     9     3     4   ar
    10     4     5   ar
    11     5     6   ar
    12     6     7   ar
    13     7     8   ar
    14     8     9   ar
    15     9    17    1
    16    17    18    1
    17    18    19   ar
    18    19    20   ar
    19    20    21   ar
    20    21    22    1
    21    21    23   ar
    22    23    24   ar
    23    15    16    1
    24    16    11    1
    25     9     1   ar
    26    24    18   ar
    27     8     3   ar
@<TRIPOS>MOLECULE
*****
 24 27 0 0 0
SMALL
GASTEIGER

@<TRIPOS>ATOM
      1 C          -9.0580  -16.8065   23.4995 C.ar    1  UNL1        0.1215
      2 N         -10.0786  -15.9406   22.8224 N.ar    1  UNL1       -0.2309
      3 C         -10.5287  -16.6428   21.5757 C.ar    1  UNL1        0.0983
      4 C         -11.5186  -16.2665   20.5134 C.ar    1  UNL1        0.0206
      5 C         -11.7660  -17.1902   19.3578 C.ar    1  UNL1        0.0016
      6 C         -11.0236  -18.4902   19.2644 C.ar    1  UNL1        0.0016
      7 C         -10.0337  -18.8665   20.3266 C.ar    1  UNL1        0.0188
      8 C          -9.7862  -17.9429   21.4823 C.ar    1  UNL1        0.0789
      9 N          -8.8773  -18.0440   22.6713 N.ar    1  UNL1       -0.3106
     10 C          -4.9221  -14.8835   25.9887 C.3     1  UNL1        0.0896
     11 N          -6.2757  -15.5290   26.0247 N.3     1  UNL1       -0.2711
     12 C          -6.9148  -15.8585   27.3411 C.3     1  UNL1        0.0722
     13 C          -8.2683  -16.5040   27.3770 C.3     1  UNL1        0.0178
     14 C          -8.9827  -16.8200   26.0964 C.3     1  UNL1        0.0103
     15 C          -8.3436  -16.4905   24.7800 C.3     1  UNL1        0.0729
     16 C          -6.9901  -15.8450   24.7442 C.3     1  UNL1        0.0796
     17 C          -7.9505  -19.1828   22.9781 C.3     1  UNL1        0.1339
     18 C          -6.7052  -19.3763   22.1648 C.ar    1  UNL1        0.0006
     19 C          -5.4644  -18.6014   22.4969 C.ar    1  UNL1       -0.0001
     20 C          -4.2190  -18.7949   21.6835 C.ar    1  UNL1        0.0294
     21 C          -4.2143  -19.7634   20.5381 C.ar    1  UNL1        0.1401
     22 F          -2.9689  -19.9569   19.7247 F       1  UNL1       -0.2042
     23 C          -5.4550  -20.5383   20.2060 C.ar    1  UNL1        0.0294
     24 C          -6.7004  -20.3448   21.0193 C.ar    1  UNL1       -0.0001
@<TRIPOS>BOND
     1    10    11    1
     2    11    12    1
     3    12    13    1
     4    13    14    1
     5    14    15    1
     6    15     1    1
     7     1     2   ar
     8     2     3   ar
     9     3     4   ar
    10     4     5   ar
    11     5     6   ar
    12     6     7   ar
    13     7     8   ar
    14     8     9   ar
    15     9    17    1
    16    17    18    1
    17    18    19   ar
    18    19    20   ar
    19    20    21   ar
    20    21    22    1
    21    21    23   ar
    22    23    24   ar
    23    15    16    1
    24    16    11    1
    25     9     1   ar
    26    24    18   ar
    27     8     3   ar
@<TRIPOS>MOLECULE
*****
 24 27 0 0 0
SMALL
GASTEIGER

@<TRIPOS>ATOM
      1 C          -5.0048  -17.0903   23.6840 C.ar    1  UNL1        0.1215
      2 N          -4.6520  -16.4833   25.0096 N.ar    1  UNL1       -0.2309
      3 C          -5.9167  -15.9811   25.6407 C.ar    1  UNL1        0.0983
      4 C          -6.1819  -15.2920   26.9464 C.ar    1  UNL1        0.0206
      5 C          -7.5815  -14.8996   27.3166 C.ar    1  UNL1        0.0016
      6 C          -8.7159  -15.1963   26.3811 C.ar    1  UNL1        0.0016
      7 C          -8.4507  -15.8853   25.0754 C.ar    1  UNL1        0.0188
      8 C          -7.0511  -16.2777   24.7053 C.ar    1  UNL1        0.0789
      9 N          -6.4875  -16.9633   23.4960 N.ar    1  UNL1       -0.3106
     10 C          -0.8937  -16.6873   20.5317 C.3     1  UNL1        0.0896
     11 N          -1.9881  -17.5133   21.1403 N.3     1  UNL1       -0.2711
     12 C          -2.1212  -18.9635   20.7813 C.3     1  UNL1        0.0722
     13 C          -3.2155  -19.7894   21.3899 C.3     1  UNL1        0.0178
     14 C          -4.1767  -19.1650   22.3574 C.3     1  UNL1        0.0103
     15 C          -4.0436  -17.7147   22.7164 C.3     1  UNL1        0.0729
     16 C          -2.9493  -16.8888   22.1079 C.3     1  UNL1        0.0796
     17 C          -7.2694  -17.4384   22.3073 C.3     1  UNL1        0.1339
     18 C          -8.7565  -17.6066   22.4063 C.ar    1  UNL1        0.0006
     19 C          -9.6689  -16.5438   21.8693 C.ar    1  UNL1       -0.0001
     20 C         -11.1562  -16.7119   21.9683 C.ar    1  UNL1        0.0294
     21 C         -11.7311  -17.9428   22.6042 C.ar    1  UNL1        0.1401
     22 F         -13.2184  -18.1109   22.7031 F       1  UNL1       -0.2042
     23 C         -10.8188  -19.0055   23.1411 C.ar    1  UNL1        0.0294
     24 C          -9.3316  -18.8374   23.0421 C.ar    1  UNL1       -0.0001
@<TRIPOS>BOND
     1    10    11    1
     2    11    12    1
     3    12    13    1
     4    13    14    1
     5    14    15    1
     6    15     1    1
     7     1     2   ar
     8     2     3   ar
     9     3     4   ar
    10     4     5   ar
    11     5     6   ar
    12     6     7   ar
    13     7     8   ar
    14     8     9   ar
    15     9    17    1
    16    17    18    1
    17    18    19   ar
    18    19    20   ar
    19    20    21   ar
    20    21    22    1
    21    21    23   ar
    22    23    24   ar
    23    15    16    1
    24    16    11    1
    25     9     1   ar
    26    24    18   ar
    27     8     3   ar
@<TRIPOS>MOLECULE
*****
 24 27 0 0 0
SMALL
GASTEIGER

@<TRIPOS>ATOM
      1 C          -8.0512  -18.3609   21.6283 C.ar    1  UNL1        0.1215
      2 N          -9.1534  -18.4399   20.6139 N.ar    1  UNL1       -0.2309
      3 C          -8.8476  -19.5771   19.6848 C.ar    1  UNL1        0.0983
      4 C          -9.5780  -20.1252   18.4949 C.ar    1  UNL1        0.0206
      5 C          -9.0173  -21.2971   17.7450 C.ar    1  UNL1        0.0016
      6 C          -7.7261  -21.9208   18.1852 C.ar    1  UNL1        0.0016
      7 C          -6.9956  -21.3728   19.3751 C.ar    1  UNL1        0.0188
      8 C          -7.5564  -20.2009   20.1249 C.ar    1  UNL1        0.0789
      9 N          -7.0642  -19.4492   21.3260 N.ar    1  UNL1       -0.3106
     10 C          -5.1826  -15.2652   24.6595 C.3     1  UNL1        0.0896
     11 N          -6.5190  -15.8200   24.2638 N.3     1  UNL1       -0.2711
     12 C          -7.7572  -15.3818   24.9881 C.3     1  UNL1        0.0722
     13 C          -9.0935  -15.9366   24.5925 C.3     1  UNL1        0.0178
     14 C          -9.1914  -16.9296   23.4725 C.3     1  UNL1        0.0103
     15 C          -7.9532  -17.3678   22.7482 C.3     1  UNL1        0.0729
     16 C          -6.6170  -16.8130   23.1439 C.3     1  UNL1        0.0796
     17 C          -5.8059  -19.7356   22.0907 C.3     1  UNL1        0.1339
     18 C          -4.4795  -19.2998   21.5425 C.ar    1  UNL1        0.0006
     19 C          -3.4034  -18.8235   22.4727 C.ar    1  UNL1       -0.0001
     20 C          -2.0769  -18.3877   21.9246 C.ar    1  UNL1        0.0294
     21 C          -1.8265  -18.4282   20.4462 C.ar    1  UNL1        0.1401
     22 F          -0.5000  -17.9924   19.8981 F       1  UNL1       -0.2042
     23 C          -2.9025  -18.9044   19.5160 C.ar    1  UNL1        0.0294
     24 C          -4.2290  -19.3402   20.0641 C.ar    1  UNL1       -0.0001
@<TRIPOS>BOND
     1    10    11    1
     2    11    12    1
     3    12    13    1
     4    13    14    1
     5    14    15    1
     6    15     1    1
     7     1     2   ar
     8     2     3   ar
     9     3     4   ar
    10     4     5   ar
    11     5     6   ar
    12     6     7   ar
    13     7     8   ar
    14     8     9   ar
    15     9    17    1
    16    17    18    1
    17    18    19   ar
    18    19    20   ar
    19    20    21   ar
    20    21    22    1
    21    21    23   ar
    22    23    24   ar
    23    15    16    1
    24    16    11    1
    25     9     1   ar
    26    24    18   ar
    27     8     3   ar
@<TRIPOS>MOLECULE
*****
 24 27 0 0 0
SMALL
GASTEIGER

@<TRIPOS>ATOM
      1 C          -6.4606  -17.7945   22.8665 C.ar    1  UNL1        0.1215
      2 N          -5.1322  -17.4928   22.2387 N.ar    1  UNL1       -0.2309
      3 C          -4.7652  -18.6466   21.3531 C.ar    1  UNL1        0.0983
      4 C          -3.5703  -18.9043   20.4838 C.ar    1  UNL1        0.0206
      5 C          -3.4771  -20.1767   19.6952 C.ar    1  UNL1        0.0016
      6 C          -4.5787  -21.1916   19.7757 C.ar    1  UNL1        0.0016
      7 C          -5.7736  -20.9339   20.6450 C.ar    1  UNL1        0.0188
      8 C          -5.8669  -19.6614   21.4337 C.ar    1  UNL1        0.0789
      9 N          -6.9147  -19.1348   22.3691 N.ar    1  UNL1       -0.3106
     10 C          -6.6787  -15.2266   27.3785 C.3     1  UNL1        0.0896
     11 N          -7.3135  -15.6271   26.0798 N.3     1  UNL1       -0.2711
     12 C          -8.6919  -15.1442   25.7383 C.3     1  UNL1        0.0722
     13 C          -9.3266  -15.5448   24.4396 C.3     1  UNL1        0.0178
     14 C          -8.5828  -16.4282   23.4824 C.3     1  UNL1        0.0103
     15 C          -7.2044  -16.9111   23.8238 C.3     1  UNL1        0.0729
     16 C          -6.5697  -16.5106   25.1225 C.3     1  UNL1        0.0796
     17 C          -8.1923  -19.8270   22.7415 C.3     1  UNL1        0.1339
     18 C          -9.5102  -19.2427   22.3273 C.ar    1  UNL1        0.0006
     19 C         -10.6283  -19.1345   23.3215 C.ar    1  UNL1       -0.0001
     20 C         -11.9463  -18.5502   22.9073 C.ar    1  UNL1        0.0294
     21 C         -12.1462  -18.0741   21.4990 C.ar    1  UNL1        0.1401
     22 F         -13.4642  -17.4898   21.0849 F       1  UNL1       -0.2042
     23 C         -11.0282  -18.1823   20.5049 C.ar    1  UNL1        0.0294
     24 C          -9.7102  -18.7666   20.9190 C.ar    1  UNL1       -0.0001
@<TRIPOS>BOND
     1    10    11    1
     2    11    12    1
     3    12    13    1
     4    13    14    1
     5    14    15    1
     6    15     1    1
     7     1     2   ar
     8     2     3   ar
     9     3     4   ar
    10     4     5   ar
    11     5     6   ar
    12     6     7   ar
    13     7     8   ar
    14     8     9   ar
    15     9    17    1
    16    17    18    1
    17    18    19   ar
    18    19    20   ar
    19    20    21   ar
    20    21    22    1
    21    21    23   ar
    22    23    24   ar
    23    15    16    1
    24    16    11    1
    25     9     1   ar
    26    24    18   ar
    27     8     3   ar
@<TRIPOS>MOLECULE
*****
 24 27 0 0 0
SMALL
GASTEIGER

@<TRIPOS>ATOM
      1 C         -14.9834   -7.3302   18.5602 C.ar    1  UNL1        0.1215
      2 N         -15.6508   -8.4501   19.3021 N.ar    1  UNL1       -0.2309
      3 C         -17.0526   -8.0233   19.6227 C.ar    1  UNL1        0.0983
      4 C         -18.1735   -8.7159   20.3394 C.ar    1  UNL1        0.0206
      5 C         -19.4934   -8.0247   20.5125 C.ar    1  UNL1        0.0016
      6 C         -19.6925   -6.6410   19.9687 C.ar    1  UNL1        0.0016
      7 C         -18.5716   -5.9484   19.2519 C.ar    1  UNL1        0.0188
      8 C         -17.2516   -6.6396   19.0789 C.ar    1  UNL1        0.0789
      9 N         -15.9728   -6.2112   18.4223 N.ar    1  UNL1       -0.3106
     10 C          -9.9557   -6.1931   19.2151 C.3     1  UNL1        0.0896
     11 N         -11.0603   -6.7608   18.3739 N.3     1  UNL1       -0.2711
     12 C         -10.7556   -7.3277   17.0190 C.3     1  UNL1        0.0722
     13 C         -11.8601   -7.8954   16.1779 C.3     1  UNL1        0.0178
     14 C         -13.2694   -7.8962   16.6916 C.3     1  UNL1        0.0103
     15 C         -13.5741   -7.3294   18.0465 C.3     1  UNL1        0.0729
     16 C         -12.4695   -6.7616   18.8876 C.3     1  UNL1        0.0796
     17 C         -15.7266   -4.8950   17.7464 C.3     1  UNL1        0.1339
     18 C         -14.5240   -4.0769   18.1129 C.ar    1  UNL1        0.0006
     19 C         -13.5044   -3.7324   17.0679 C.ar    1  UNL1       -0.0001
     20 C         -12.3017   -2.9144   17.4344 C.ar    1  UNL1        0.0294
     21 C         -12.1186   -2.4408   18.8459 C.ar    1  UNL1        0.1401
     22 F         -10.9159   -1.6227   19.2123 F       1  UNL1       -0.2042
     23 C         -13.1381   -2.7852   19.8908 C.ar    1  UNL1        0.0294
     24 C         -14.3408   -3.6033   19.5243 C.ar    1  UNL1       -0.0001
@<TRIPOS>BOND
     1    10    11    1
     2    11    12    1
     3    12    13    1
     4    13    14    1
     5    14    15    1
     6    15     1    1
     7     1     2   ar
     8     2     3   ar
     9     3     4   ar
    10     4     5   ar
    11     5     6   ar
    12     6     7   ar
    13     7     8   ar
    14     8     9   ar
    15     9    17    1
    16    17    18    1
    17    18    19   ar
    18    19    20   ar
    19    20    21   ar
    20    21    22    1
    21    21    23   ar
    22    23    24   ar
    23    15    16    1
    24    16    11    1
    25     9     1   ar
    26    24    18   ar
    27     8     3   ar
