@<TRIPOS>MOLECULE
*****
 24 26 0 0 0
SMALL
GASTEIGER

@<TRIPOS>ATOM
      1 C          -4.9343  -19.5217   20.3469 C.ar    1  UNL1       -0.0001
      2 C          -4.7881  -20.6597   21.3132 C.ar    1  UNL1       -0.0003
      3 C          -5.9033  -20.9862   22.2617 C.ar    1  UNL1       -0.0029
      4 C          -7.1647  -20.1747   22.2440 C.ar    1  UNL1       -0.0047
      5 C          -7.3109  -19.0368   21.2778 C.ar    1  UNL1       -0.0047
      6 C          -6.1957  -18.7103   20.3292 C.ar    1  UNL1       -0.0029
      7 C          -8.6611  -18.4188   21.4902 C.3     1  UNL1        0.1202
      8 N          -9.3494  -19.1748   22.5878 N.am    1  UNL1       -0.2713
      9 C         -10.7216  -18.8948   23.1252 C.2     1  UNL1        0.2256
     10 O         -11.2810  -19.7403   24.2307 O.2     1  UNL1       -0.2749
     11 C          -8.4245  -20.2600   23.0536 C.3     1  UNL1        0.1202
     12 C         -11.5343  -17.7693   22.5571 C.3     1  UNL1        0.0767
     13 C         -11.7086  -16.4112   23.1694 C.3     1  UNL1        0.0091
     14 C         -12.5974  -15.6068   22.2677 C.3     1  UNL1        0.0005
     15 C         -12.9723  -16.4679   21.0982 C.3     1  UNL1        0.0005
     16 C         -12.3153  -17.8045   21.2770 C.3     1  UNL1        0.0091
     17 C          -2.5620  -18.5567   19.9102 C.2     1  UNL1        0.0598
     18 C          -3.8191  -19.1952   19.3984 C.2     1  UNL1        0.0047
     19 O          -0.0403  -18.1129   19.4696 O.2     1  UNL1       -0.2681
     20 C          -1.4468  -18.2302   18.9616 C.2     1  UNL1        0.2679
     21 N          -1.7381  -18.0210   17.5051 N.am    1  UNL1       -0.1934
     22 O          -0.6229  -17.6945   16.5566 O.3     1  UNL1       -0.2949
     23 H          -2.6612  -18.0980   17.1717 H       1  UNL1        0.1825
     24 H           0.2151  -17.6565   17.0436 H       1  UNL1        0.2414
@<TRIPOS>BOND
     1    19    20    2
     2    20    17    1
     3    17    18    2
     4    18     1    1
     5     1     2   ar
     6     2     3   ar
     7     3     4   ar
     8     4     5   ar
     9     5     6   ar
    10     5     7    1
    11     7     8    1
    12     8     9   am
    13     9    10    2
    14     9    12    1
    15    12    13    1
    16    13    14    1
    17    14    15    1
    18    15    16    1
    19     8    11    1
    20    20    21   am
    21    21    22    1
    22     6     1   ar
    23    16    12    1
    24    11     4    1
    25    21    23    1
    26    22    24    1
@<TRIPOS>MOLECULE
*****
 24 26 0 0 0
SMALL
GASTEIGER

@<TRIPOS>ATOM
      1 C          -5.3975  -19.4190   20.1016 C.ar    1  UNL1       -0.0001
      2 C          -6.5478  -20.1523   19.4779 C.ar    1  UNL1       -0.0003
      3 C          -7.8989  -20.1208   20.1288 C.ar    1  UNL1       -0.0029
      4 C          -8.0996  -19.3560   21.4034 C.ar    1  UNL1       -0.0047
      5 C          -6.9494  -18.6227   22.0271 C.ar    1  UNL1       -0.0047
      6 C          -5.5983  -18.6541   21.3762 C.ar    1  UNL1       -0.0029
      7 C          -7.4459  -17.9588   23.2772 C.3     1  UNL1        0.1202
      8 N          -8.9031  -18.2818   23.4261 N.am    1  UNL1       -0.2713
      9 C          -9.7991  -17.8221   24.5379 C.2     1  UNL1        0.2256
     10 O         -11.2432  -18.2273   24.5536 O.2     1  UNL1       -0.2749
     11 C          -9.3071  -19.1454   22.2680 C.3     1  UNL1        0.1202
     12 C          -9.2509  -16.9571   25.6339 C.3     1  UNL1        0.0767
     13 C          -8.9065  -15.5017   25.5196 C.3     1  UNL1        0.0091
     14 C          -8.3936  -15.0408   26.8517 C.3     1  UNL1        0.0005
     15 C          -8.4211  -16.2113   27.7892 C.3     1  UNL1        0.0005
     16 C          -8.9510  -17.3958   27.0366 C.3     1  UNL1        0.0091
     17 C          -3.1462  -18.2535   19.5331 C.2     1  UNL1        0.0598
     18 C          -4.0465  -19.4504   19.4506 C.2     1  UNL1        0.0047
     19 O          -0.6159  -18.8353   19.6281 O.2     1  UNL1       -0.2681
     20 C          -1.7952  -18.2850   18.8822 C.2     1  UNL1        0.2679
     21 N          -1.6235  -17.7661   17.4852 N.am    1  UNL1       -0.1934
     22 O          -0.2724  -17.7976   16.8343 O.3     1  UNL1       -0.2949
     23 H          -2.3975  -17.4049   16.9956 H       1  UNL1        0.1825
     24 H           0.3735  -18.1807   17.4483 H       1  UNL1        0.2414
@<TRIPOS>BOND
     1    19    20    2
     2    20    17    1
     3    17    18    2
     4    18     1    1
     5     1     2   ar
     6     2     3   ar
     7     3     4   ar
     8     4     5   ar
     9     5     6   ar
    10     5     7    1
    11     7     8    1
    12     8     9   am
    13     9    10    2
    14     9    12    1
    15    12    13    1
    16    13    14    1
    17    14    15    1
    18    15    16    1
    19     8    11    1
    20    20    21   am
    21    21    22    1
    22     6     1   ar
    23    16    12    1
    24    11     4    1
    25    21    23    1
    26    22    24    1
@<TRIPOS>MOLECULE
*****
 24 26 0 0 0
SMALL
GASTEIGER

@<TRIPOS>ATOM
      1 C           6.3837   -1.1227   33.4832 C.ar    1  UNL1       -0.0001
      2 C           7.7219   -0.6828   33.9987 C.ar    1  UNL1       -0.0003
      3 C           7.8174    0.0630   35.2967 C.ar    1  UNL1       -0.0029
      4 C           6.5747    0.3688   36.0791 C.ar    1  UNL1       -0.0047
      5 C           5.2366   -0.0711   35.5636 C.ar    1  UNL1       -0.0047
      6 C           5.1411   -0.8169   34.2657 C.ar    1  UNL1       -0.0029
      7 C           4.1931    0.3704   36.5467 C.3     1  UNL1        0.1202
      8 N           4.8864    1.0831   37.6697 N.am    1  UNL1       -0.2713
      9 C           4.2240    1.6903   38.8709 C.2     1  UNL1        0.2256
     10 O           5.0518    2.3749   39.9179 O.2     1  UNL1       -0.2749
     11 C           6.3583    1.0822   37.3808 C.3     1  UNL1        0.1202
     12 C           2.7340    1.6129   39.0250 C.3     1  UNL1        0.0767
     13 C           1.7781    2.7659   38.9429 C.3     1  UNL1        0.0091
     14 C           0.3916    2.2345   39.1554 C.3     1  UNL1        0.0005
     15 C           0.4906    0.7530   39.3689 C.3     1  UNL1        0.0005
     16 C           1.9384    0.3688   39.2883 C.3     1  UNL1        0.0091
     17 C           6.7680   -3.2870   32.0983 C.2     1  UNL1        0.0598
     18 C           6.2883   -1.8685   32.1853 C.2     1  UNL1        0.0047
     19 O           6.5080   -3.2802   29.5133 O.2     1  UNL1       -0.2681
     20 C           6.6725   -4.0328   30.8003 C.2     1  UNL1        0.2679
     21 N           6.7416   -5.5312   30.7894 N.am    1  UNL1       -0.1934
     22 O           6.6461   -6.2770   29.4915 O.3     1  UNL1       -0.2949
     23 H           6.8495   -6.0251   31.6342 H       1  UNL1        0.1825
     24 H           6.5433   -5.6454   28.7625 H       1  UNL1        0.2414
@<TRIPOS>BOND
     1    19    20    2
     2    20    17    1
     3    17    18    2
     4    18     1    1
     5     1     2   ar
     6     2     3   ar
     7     3     4   ar
     8     4     5   ar
     9     5     6   ar
    10     5     7    1
    11     7     8    1
    12     8     9   am
    13     9    10    2
    14     9    12    1
    15    12    13    1
    16    13    14    1
    17    14    15    1
    18    15    16    1
    19     8    11    1
    20    20    21   am
    21    21    22    1
    22     6     1   ar
    23    16    12    1
    24    11     4    1
    25    21    23    1
    26    22    24    1
@<TRIPOS>MOLECULE
*****
 24 26 0 0 0
SMALL
GASTEIGER

@<TRIPOS>ATOM
      1 C           6.8570   -4.3658   24.1252 C.ar    1  UNL1       -0.0001
      2 C           7.9145   -4.8673   23.1870 C.ar    1  UNL1       -0.0003
      3 C           7.8382   -4.5376   21.7257 C.ar    1  UNL1       -0.0029
      4 C           6.7045   -3.7064   21.2026 C.ar    1  UNL1       -0.0047
      5 C           5.6471   -3.2048   22.1407 C.ar    1  UNL1       -0.0047
      6 C           5.7234   -3.5345   23.6021 C.ar    1  UNL1       -0.0029
      7 C           4.6559   -2.4123   21.3410 C.3     1  UNL1        0.1202
      8 N           5.1008   -2.4241   19.9086 N.am    1  UNL1       -0.2713
      9 C           4.4022   -1.7538   18.7628 C.2     1  UNL1        0.2256
     10 O           4.9687   -1.8530   17.3775 O.2     1  UNL1       -0.2749
     11 C           6.3669   -3.2239   19.8230 C.3     1  UNL1        0.1202
     12 C           3.1371   -0.9843   19.0024 C.3     1  UNL1        0.0767
     13 C           2.1208   -1.2686   20.0682 C.3     1  UNL1        0.0091
     14 C           1.0218   -0.2554   19.9428 C.3     1  UNL1        0.0005
     15 C           1.3591    0.6551   18.7995 C.3     1  UNL1        0.0005
     16 C           2.6665    0.2046   18.2182 C.3     1  UNL1        0.0091
     17 C           7.2801   -6.0876   26.0242 C.2     1  UNL1        0.0598
     18 C           6.9333   -4.6955   25.5866 C.2     1  UNL1        0.0047
     19 O           8.3360   -7.4434   27.9728 O.2     1  UNL1       -0.2681
     20 C           7.3563   -6.4173   27.4855 C.2     1  UNL1        0.2679
     21 N           6.4528   -5.7209   28.4596 N.am    1  UNL1       -0.1934
     22 O           6.5291   -6.0506   29.9210 O.3     1  UNL1       -0.2949
     23 H           5.8098   -5.0475   28.1399 H       1  UNL1        0.1825
     24 H           7.2084   -6.7280   30.0646 H       1  UNL1        0.2414
@<TRIPOS>BOND
     1    19    20    2
     2    20    17    1
     3    17    18    2
     4    18     1    1
     5     1     2   ar
     6     2     3   ar
     7     3     4   ar
     8     4     5   ar
     9     5     6   ar
    10     5     7    1
    11     7     8    1
    12     8     9   am
    13     9    10    2
    14     9    12    1
    15    12    13    1
    16    13    14    1
    17    14    15    1
    18    15    16    1
    19     8    11    1
    20    20    21   am
    21    21    22    1
    22     6     1   ar
    23    16    12    1
    24    11     4    1
    25    21    23    1
    26    22    24    1
@<TRIPOS>MOLECULE
*****
 24 26 0 0 0
SMALL
GASTEIGER

@<TRIPOS>ATOM
      1 C          -0.7694    2.5282   20.2887 C.ar    1  UNL1       -0.0001
      2 C          -0.2331    3.3518   19.1556 C.ar    1  UNL1       -0.0003
      3 C           0.9230    2.8477   18.3436 C.ar    1  UNL1       -0.0029
      4 C           1.5428    1.5201   18.6647 C.ar    1  UNL1       -0.0047
      5 C           1.0064    0.6964   19.7978 C.ar    1  UNL1       -0.0047
      6 C          -0.1497    1.2005   20.6098 C.ar    1  UNL1       -0.0029
      7 C           1.8158   -0.5640   19.8785 C.3     1  UNL1        0.1202
      8 N           2.8523   -0.5192   18.7952 N.am    1  UNL1       -0.2713
      9 C           3.8777   -1.5768   18.5117 C.2     1  UNL1        0.2256
     10 O           4.8548   -1.3923   17.3887 O.2     1  UNL1       -0.2749
     11 C           2.6836    0.7687   18.0450 C.3     1  UNL1        0.1202
     12 C           3.9258   -2.8189   19.3513 C.3     1  UNL1        0.0767
     13 C           3.4406   -4.1783   18.9432 C.3     1  UNL1        0.0091
     14 C           3.6826   -5.1192   20.0861 C.3     1  UNL1        0.0005
     15 C           4.3173   -4.3413   21.2005 C.3     1  UNL1        0.0005
     16 C           4.4677   -2.9195   20.7464 C.3     1  UNL1        0.0091
     17 C          -3.2603    3.2484   20.4516 C.2     1  UNL1        0.0598
     18 C          -1.9255    3.0323   21.1008 C.2     1  UNL1        0.0047
     19 O          -5.0789    5.0485   20.9014 O.2     1  UNL1       -0.2681
     20 C          -4.4164    3.7524   21.2636 C.2     1  UNL1        0.2679
     21 N          -4.9101    2.9603   22.4379 N.am    1  UNL1       -0.1934
     22 O          -6.0662    3.4644   23.2500 O.3     1  UNL1       -0.2949
     23 H          -4.4753    2.1097   22.6757 H       1  UNL1        0.1825
     24 H          -6.3748    4.3081   22.8841 H       1  UNL1        0.2414
@<TRIPOS>BOND
     1    19    20    2
     2    20    17    1
     3    17    18    2
     4    18     1    1
     5     1     2   ar
     6     2     3   ar
     7     3     4   ar
     8     4     5   ar
     9     5     6   ar
    10     5     7    1
    11     7     8    1
    12     8     9   am
    13     9    10    2
    14     9    12    1
    15    12    13    1
    16    13    14    1
    17    14    15    1
    18    15    16    1
    19     8    11    1
    20    20    21   am
    21    21    22    1
    22     6     1   ar
    23    16    12    1
    24    11     4    1
    25    21    23    1
    26    22    24    1
@<TRIPOS>MOLECULE
*****
 24 26 0 0 0
SMALL
GASTEIGER

@<TRIPOS>ATOM
      1 C           2.6007   -0.6647   19.7782 C.ar    1  UNL1       -0.0001
      2 C           3.1290    0.1839   18.6598 C.ar    1  UNL1       -0.0003
      3 C           2.4306    1.4593   18.2917 C.ar    1  UNL1       -0.0029
      4 C           1.2040    1.8863   19.0420 C.ar    1  UNL1       -0.0047
      5 C           0.6756    1.0377   20.1604 C.ar    1  UNL1       -0.0047
      6 C           1.3740   -0.2377   20.5285 C.ar    1  UNL1       -0.0029
      7 C          -0.5447    1.7103   20.7159 C.3     1  UNL1        0.1202
      8 N          -0.7706    2.9744   19.9408 N.am    1  UNL1       -0.2713
      9 C          -1.8820    3.9574   20.1614 C.2     1  UNL1        0.2256
     10 O          -1.9802    5.1836   19.3032 O.2     1  UNL1       -0.2749
     11 C           0.3102    3.0832   18.9062 C.3     1  UNL1        0.1202
     12 C          -2.8953    3.7139   21.2403 C.3     1  UNL1        0.0767
     13 C          -4.2892    3.1973   21.0404 C.3     1  UNL1        0.0091
     14 C          -4.9479    3.1085   22.3851 C.3     1  UNL1        0.0005
     15 C          -3.9611    3.5703   23.4160 C.3     1  UNL1        0.0005
     16 C          -2.6924    3.9445   22.7086 C.3     1  UNL1        0.0091
     17 C           3.7578   -2.8810   19.0720 C.2     1  UNL1        0.0598
     18 C           3.2990   -1.9401   20.1463 C.2     1  UNL1        0.0047
     19 O           5.1100   -4.2929   20.7832 O.2     1  UNL1       -0.2681
     20 C           4.4562   -4.1565   19.4401 C.2     1  UNL1        0.2679
     21 N           4.5007   -5.2955   18.4651 N.am    1  UNL1       -0.1934
     22 O           5.1991   -6.5710   18.8332 O.3     1  UNL1       -0.2949
     23 H           4.0716   -5.2060   17.5835 H       1  UNL1        0.1825
     24 H           5.5640   -6.4930   19.7285 H       1  UNL1        0.2414
@<TRIPOS>BOND
     1    19    20    2
     2    20    17    1
     3    17    18    2
     4    18     1    1
     5     1     2   ar
     6     2     3   ar
     7     3     4   ar
     8     4     5   ar
     9     5     6   ar
    10     5     7    1
    11     7     8    1
    12     8     9   am
    13     9    10    2
    14     9    12    1
    15    12    13    1
    16    13    14    1
    17    14    15    1
    18    15    16    1
    19     8    11    1
    20    20    21   am
    21    21    22    1
    22     6     1   ar
    23    16    12    1
    24    11     4    1
    25    21    23    1
    26    22    24    1
@<TRIPOS>MOLECULE
*****
 24 26 0 0 0
SMALL
GASTEIGER

@<TRIPOS>ATOM
      1 C           2.9938   -0.8019   20.1640 C.ar    1  UNL1       -0.0001
      2 C           3.3723   -0.2370   18.8270 C.ar    1  UNL1       -0.0003
      3 C           2.5573    0.8672   18.2214 C.ar    1  UNL1       -0.0029
      4 C           1.3639    1.4064   18.9528 C.ar    1  UNL1       -0.0047
      5 C           0.9855    0.8414   20.2898 C.ar    1  UNL1       -0.0047
      6 C           1.8004   -0.2627   20.8954 C.ar    1  UNL1       -0.0029
      7 C          -0.2343    1.5692   20.7722 C.3     1  UNL1        0.1202
      8 N          -0.6096    2.5839   19.7332 N.am    1  UNL1       -0.2713
      9 C          -1.7692    3.5328   19.8059 C.2     1  UNL1        0.2256
     10 O          -2.0212    4.4964   18.6843 O.2     1  UNL1       -0.2749
     11 C           0.3781    2.4833   18.6088 C.3     1  UNL1        0.1202
     12 C          -2.6767    3.5179   21.0001 C.3     1  UNL1        0.0767
     13 C          -4.1152    3.0929   21.0090 C.3     1  UNL1        0.0091
     14 C          -4.6326    3.2378   22.4095 C.3     1  UNL1        0.0005
     15 C          -3.5139    3.7523   23.2660 C.3     1  UNL1        0.0005
     16 C          -2.3050    3.9255   22.3950 C.3     1  UNL1        0.0091
     17 C           3.8768   -2.0571   22.2603 C.2     1  UNL1        0.0598
     18 C           3.8088   -1.9061   20.7695 C.2     1  UNL1        0.0047
     19 O           5.0013   -4.3911   22.0648 O.2     1  UNL1       -0.2681
     20 C           4.6918   -3.1613   22.8659 C.2     1  UNL1        0.2679
     21 N           5.1972   -3.0356   24.2726 N.am    1  UNL1       -0.1934
     22 O           6.0121   -4.1398   24.8782 O.3     1  UNL1       -0.2949
     23 H           4.9940   -2.2284   24.7984 H       1  UNL1        0.1825
     24 H           6.1189   -4.8549   24.2316 H       1  UNL1        0.2414
@<TRIPOS>BOND
     1    19    20    2
     2    20    17    1
     3    17    18    2
     4    18     1    1
     5     1     2   ar
     6     2     3   ar
     7     3     4   ar
     8     4     5   ar
     9     5     6   ar
    10     5     7    1
    11     7     8    1
    12     8     9   am
    13     9    10    2
    14     9    12    1
    15    12    13    1
    16    13    14    1
    17    14    15    1
    18    15    16    1
    19     8    11    1
    20    20    21   am
    21    21    22    1
    22     6     1   ar
    23    16    12    1
    24    11     4    1
    25    21    23    1
    26    22    24    1
@<TRIPOS>MOLECULE
*****
 24 26 0 0 0
SMALL
GASTEIGER

@<TRIPOS>ATOM
      1 C          -0.4253    1.6734   25.8239 C.ar    1  UNL1       -0.0001
      2 C          -1.4146    2.7909   25.6741 C.ar    1  UNL1       -0.0003
      3 C          -1.5790    3.4745   24.3490 C.ar    1  UNL1       -0.0029
      4 C          -0.7541    3.0405   23.1738 C.ar    1  UNL1       -0.0047
      5 C           0.2351    1.9230   23.3236 C.ar    1  UNL1       -0.0047
      6 C           0.3995    1.2394   24.6486 C.ar    1  UNL1       -0.0029
      7 C           0.9035    1.7146   21.9969 C.3     1  UNL1        0.1202
      8 N           0.3273    2.7034   21.0273 N.am    1  UNL1       -0.2713
      9 C           0.7087    2.8475   19.5837 C.2     1  UNL1        0.2256
     10 O           0.0426    3.8874   18.7322 O.2     1  UNL1       -0.2749
     11 C          -0.6971    3.5229   21.7546 C.3     1  UNL1        0.1202
     12 C           1.7560    1.9518   18.9916 C.3     1  UNL1        0.0767
     13 C           1.5277    0.5800   18.4296 C.3     1  UNL1        0.0091
     14 C           2.8462    0.0509   17.9482 C.3     1  UNL1        0.0005
     15 C           3.8894    1.0957   18.2128 C.3     1  UNL1        0.0005
     16 C           3.2156    2.2706   18.8577 C.3     1  UNL1        0.0091
     17 C           0.8511    1.3965   28.0697 C.2     1  UNL1        0.0598
     18 C          -0.2609    0.9898   27.1489 C.2     1  UNL1        0.0047
     19 O           0.3131    1.2484   30.6072 O.2     1  UNL1       -0.2681
     20 C           1.0155    0.7129   29.3948 C.2     1  UNL1        0.2679
     21 N           1.8822   -0.5062   29.5074 N.am    1  UNL1       -0.1934
     22 O           2.0466   -1.1897   30.8324 O.3     1  UNL1       -0.2949
     23 H           2.3432   -0.8576   28.7116 H       1  UNL1        0.1825
     24 H           1.5297   -0.7195   31.5052 H       1  UNL1        0.2414
@<TRIPOS>BOND
     1    19    20    2
     2    20    17    1
     3    17    18    2
     4    18     1    1
     5     1     2   ar
     6     2     3   ar
     7     3     4   ar
     8     4     5   ar
     9     5     6   ar
    10     5     7    1
    11     7     8    1
    12     8     9   am
    13     9    10    2
    14     9    12    1
    15    12    13    1
    16    13    14    1
    17    14    15    1
    18    15    16    1
    19     8    11    1
    20    20    21   am
    21    21    22    1
    22     6     1   ar
    23    16    12    1
    24    11     4    1
    25    21    23    1
    26    22    24    1
@<TRIPOS>MOLECULE
*****
 24 26 0 0 0
SMALL
GASTEIGER

@<TRIPOS>ATOM
      1 C           4.5094   -1.5349   32.9572 C.ar    1  UNL1       -0.0001
      2 C           3.7156   -1.0366   31.7861 C.ar    1  UNL1       -0.0003
      3 C           2.9704    0.2616   31.8830 C.ar    1  UNL1       -0.0029
      4 C           3.0191    1.0615   33.1509 C.ar    1  UNL1       -0.0047
      5 C           3.8130    0.5632   34.3220 C.ar    1  UNL1       -0.0047
      6 C           4.5581   -0.7350   34.2251 C.ar    1  UNL1       -0.0029
      7 C           3.6759    1.5613   35.4334 C.3     1  UNL1        0.1202
      8 N           2.7974    2.6765   34.9491 N.am    1  UNL1       -0.2713
      9 C           2.3953    3.8879   35.7371 C.2     1  UNL1        0.2256
     10 O           1.5068    4.9251   35.1169 O.2     1  UNL1       -0.2749
     11 C           2.3915    2.3676   33.5385 C.3     1  UNL1        0.1202
     12 C           2.8817    4.0620   37.1453 C.3     1  UNL1        0.0767
     13 C           3.9064    5.0551   37.6076 C.3     1  UNL1        0.0091
     14 C           4.0869    4.8805   39.0864 C.3     1  UNL1        0.0005
     15 C           3.1737    3.7796   39.5380 C.3     1  UNL1        0.0005
     16 C           2.4288    3.2737   38.3383 C.3     1  UNL1        0.0091
     17 C           6.1833   -3.0807   31.7088 C.2     1  UNL1        0.0598
     18 C           5.2546   -2.8332   32.8603 C.2     1  UNL1        0.0047
     19 O           8.0388   -4.5339   30.6154 O.2     1  UNL1       -0.2681
     20 C           6.9285   -4.3790   31.6120 C.2     1  UNL1        0.2679
     21 N           6.5632   -5.5223   32.5117 N.am    1  UNL1       -0.1934
     22 O           7.3084   -6.8205   32.4149 O.3     1  UNL1       -0.2949
     23 H           5.8345   -5.4206   33.1658 H       1  UNL1        0.1825
     24 H           7.9884   -6.7524   31.7265 H       1  UNL1        0.2414
@<TRIPOS>BOND
     1    19    20    2
     2    20    17    1
     3    17    18    2
     4    18     1    1
     5     1     2   ar
     6     2     3   ar
     7     3     4   ar
     8     4     5   ar
     9     5     6   ar
    10     5     7    1
    11     7     8    1
    12     8     9   am
    13     9    10    2
    14     9    12    1
    15    12    13    1
    16    13    14    1
    17    14    15    1
    18    15    16    1
    19     8    11    1
    20    20    21   am
    21    21    22    1
    22     6     1   ar
    23    16    12    1
    24    11     4    1
    25    21    23    1
    26    22    24    1
