@<TRIPOS>MOLECULE
*****
 41 44 0 0 0
SMALL
GASTEIGER

@<TRIPOS>ATOM
      1 C          -4.4741  -20.0195   20.1162 C.ar    1  UNL1        0.0611
      2 C          -3.4082  -20.2118   19.0785 C.ar    1  UNL1        0.1037
      3 N          -2.3285  -19.2015   19.3304 N.ar    1  UNL1       -0.2269
      4 C          -2.7271  -18.3848   20.5238 C.ar    1  UNL1        0.1407
      5 N          -2.0539  -17.2461   21.2309 N.ar    1  UNL1       -0.3374
      6 C          -2.7068  -16.6129   22.4237 C.ar    1  UNL1        0.0735
      7 C          -4.0329  -17.1185   22.9094 C.ar    1  UNL1        0.0186
      8 C          -4.7061  -18.2572   22.2022 C.ar    1  UNL1        0.0047
      9 C          -4.0532  -18.8904   21.0094 C.ar    1  UNL1        0.0386
     10 H          -1.1835  -16.9142   20.9121 H       1  UNL1        0.1674
     11 C          -4.6858  -16.4853   24.1023 C.ar    1  UNL1        0.0208
     12 C          -4.3478  -16.9625   25.4836 C.ar    1  UNL1        0.0064
     13 C          -5.0007  -16.3293   26.6765 C.ar    1  UNL1        0.0577
     14 C          -5.9915  -15.2190   26.4879 C.ar    1  UNL1        0.2249
     15 N          -6.3294  -14.7419   25.1065 N.ar    1  UNL1       -0.2101
     16 C          -5.6766  -15.3750   23.9137 C.ar    1  UNL1        0.1021
     17 O          -6.6444  -14.5858   27.6807 O.3     1  UNL1       -0.4602
     18 C          -8.1341  -14.6516   27.8433 C.3     1  UNL1        0.2085
     19 C          -8.8260  -15.9818   27.8849 C.3     1  UNL1        0.0647
     20 C          -8.4396  -17.0588   26.9150 C.3     1  UNL1        0.0760
     21 N          -9.2583  -17.2834   25.6784 N.3     1  UNL1       -0.2702
     22 C         -10.0546  -18.5454   25.5250 C.3     1  UNL1        0.0897
     23 C          -9.2808  -16.2462   24.5951 C.3     1  UNL1        0.0897
     24 C          -5.7389  -20.8165   20.2392 C.2     1  UNL1        0.2015
     25 O          -5.7807  -22.2362   19.7571 O.2     1  UNL1       -0.2864
     26 C          -9.1088  -18.7512   20.5976 C.ar    1  UNL1        0.0920
     27 C          -9.4082  -18.9479   22.0542 C.ar    1  UNL1        0.0204
     28 C          -8.4846  -19.7674   22.9058 C.ar    1  UNL1        0.0312
     29 C          -7.2615  -20.3903   22.3008 C.ar    1  UNL1        0.1454
     30 F          -6.3378  -21.2099   23.1524 F       1  UNL1       -0.2040
     31 C          -6.9621  -20.1936   20.8442 C.ar    1  UNL1        0.0951
     32 C          -7.8857  -19.3740   19.9927 C.ar    1  UNL1        0.1598
     33 F          -7.5862  -19.1774   18.5361 F       1  UNL1       -0.2026
     34 N         -10.0325  -17.9316   19.7461 N.pl3   1  UNL1       -0.2166
     35 H          -9.9100  -17.9072   18.7696 H       1  UNL1        0.1734
     36 S         -11.1428  -17.1492   20.3824 S.O2    1  UNL1        0.0540
     37 O         -10.1970  -16.0128   20.6355 O.2     1  UNL1       -0.1545
     38 O         -12.0886  -18.2856   20.1294 O.2     1  UNL1       -0.1545
     39 C         -12.2532  -16.3669   21.0188 C.3     1  UNL1        0.1724
     40 C         -12.9427  -17.5160   23.2446 C.3     1  UNL1        0.0019
     41 C         -12.3853  -16.3313   22.5125 C.3     1  UNL1        0.0273
@<TRIPOS>BOND
     1    40    41    1
     2    41    39    1
     3    39    36    1
     4    36    37    2
     5    36    38    2
     6    36    34    1
     7    34    26    1
     8    26    27   ar
     9    27    28   ar
    10    28    29   ar
    11    29    30    1
    12    29    31   ar
    13    31    24    1
    14    24    25    2
    15    24     1    1
    16     1     2   ar
    17     2     3   ar
    18     3     4   ar
    19     4     5   ar
    20     5     6   ar
    21     6     7   ar
    22     7    11    1
    23    11    12   ar
    24    12    13   ar
    25    13    14   ar
    26    14    17    1
    27    17    18    1
    28    18    19    1
    29    19    20    1
    30    20    21    1
    31    21    22    1
    32    21    23    1
    33    14    15   ar
    34    15    16   ar
    35     7     8   ar
    36     8     9   ar
    37    31    32   ar
    38    32    33    1
    39    32    26   ar
    40     9     1   ar
    41     9     4    1
    42    16    11   ar
    43    34    35    1
    44     5    10    1
@<TRIPOS>MOLECULE
*****
 41 44 0 0 0
SMALL
GASTEIGER

@<TRIPOS>ATOM
      1 C           6.7565   -3.4160   29.9540 C.ar    1  UNL1        0.0611
      2 C           6.8476   -4.2865   31.1721 C.ar    1  UNL1        0.1037
      3 N           7.0391   -5.7027   30.7164 N.ar    1  UNL1       -0.2269
      4 C           7.0664   -5.7074   29.2166 C.ar    1  UNL1        0.1407
      5 N           7.2277   -6.8160   28.2192 N.ar    1  UNL1       -0.3374
      6 C           7.2144   -6.5113   26.7506 C.ar    1  UNL1        0.0735
      7 C           7.0398   -5.0980   26.2794 C.ar    1  UNL1        0.0186
      8 C           6.8784   -3.9894   27.2768 C.ar    1  UNL1        0.0047
      9 C           6.8917   -4.2941   28.7454 C.ar    1  UNL1        0.0386
     10 H           7.3424   -7.7437   28.5285 H       1  UNL1        0.1674
     11 C           7.0264   -4.7933   24.8106 C.ar    1  UNL1        0.0208
     12 C           6.1256   -3.7200   24.2755 C.ar    1  UNL1        0.0064
     13 C           6.1123   -3.4153   22.8068 C.ar    1  UNL1        0.0577
     14 C           6.9998   -4.1840   21.8733 C.ar    1  UNL1        0.2249
     15 N           7.9007   -5.2574   22.4085 N.ar    1  UNL1       -0.2101
     16 C           7.9140   -5.5620   23.8772 C.ar    1  UNL1        0.1021
     17 O           6.9866   -3.8794   20.4046 O.3     1  UNL1       -0.4602
     18 C           6.7251   -2.4803   19.9313 C.3     1  UNL1        0.2085
     19 C           6.3251   -2.2329   18.5068 C.3     1  UNL1        0.0647
     20 C           4.8761   -2.2565   18.1198 C.3     1  UNL1        0.0760
     21 N           3.8539   -2.8000   19.0735 N.3     1  UNL1       -0.2702
     22 C           3.5874   -4.2753   19.1267 C.3     1  UNL1        0.0897
     23 C           3.0981   -1.8685   19.9740 C.3     1  UNL1        0.0897
     24 C           6.5640   -1.9284   29.9458 C.2     1  UNL1        0.2015
     25 O           7.7290   -1.0228   29.6768 O.2     1  UNL1       -0.2864
     26 C           2.8672   -0.6167   29.3426 C.ar    1  UNL1        0.0920
     27 C           2.4909   -0.1824   30.7282 C.ar    1  UNL1        0.0204
     28 C           3.4723   -0.3301   31.8530 C.ar    1  UNL1        0.0312
     29 C           4.8300   -0.9121   31.5922 C.ar    1  UNL1        0.1454
     30 F           5.8114   -1.0598   32.7170 F       1  UNL1       -0.2040
     31 C           5.2062   -1.3464   30.2066 C.ar    1  UNL1        0.0951
     32 C           4.2248   -1.1987   29.0819 C.ar    1  UNL1        0.1598
     33 F           4.6012   -1.6330   27.6963 F       1  UNL1       -0.2026
     34 N           1.8858   -0.4691   28.2179 N.pl3   1  UNL1       -0.2166
     35 H           1.8417   -1.1520   27.5102 H       1  UNL1        0.1734
     36 S           0.9716    0.7192   28.1715 S.O2    1  UNL1        0.0540
     37 O           2.1305    1.5964   27.8010 O.2     1  UNL1       -0.1545
     38 O          -0.1874   -0.1580   28.5419 O.2     1  UNL1       -0.1545
     39 C           0.0573    1.9074   28.1250 C.3     1  UNL1        0.1724
     40 C          -0.5489    1.7924   25.6012 C.3     1  UNL1        0.0019
     41 C          -0.9550    2.0323   27.0251 C.3     1  UNL1        0.0273
@<TRIPOS>BOND
     1    40    41    1
     2    41    39    1
     3    39    36    1
     4    36    37    2
     5    36    38    2
     6    36    34    1
     7    34    26    1
     8    26    27   ar
     9    27    28   ar
    10    28    29   ar
    11    29    30    1
    12    29    31   ar
    13    31    24    1
    14    24    25    2
    15    24     1    1
    16     1     2   ar
    17     2     3   ar
    18     3     4   ar
    19     4     5   ar
    20     5     6   ar
    21     6     7   ar
    22     7    11    1
    23    11    12   ar
    24    12    13   ar
    25    13    14   ar
    26    14    17    1
    27    17    18    1
    28    18    19    1
    29    19    20    1
    30    20    21    1
    31    21    22    1
    32    21    23    1
    33    14    15   ar
    34    15    16   ar
    35     7     8   ar
    36     8     9   ar
    37    31    32   ar
    38    32    33    1
    39    32    26   ar
    40     9     1   ar
    41     9     4    1
    42    16    11   ar
    43    34    35    1
    44     5    10    1
@<TRIPOS>MOLECULE
*****
 41 44 0 0 0
SMALL
GASTEIGER

@<TRIPOS>ATOM
      1 C           5.5067   -2.5717   19.4334 C.ar    1  UNL1        0.0611
      2 C           6.1611   -1.9033   18.2608 C.ar    1  UNL1        0.1037
      3 N           7.6442   -2.0854   18.3919 N.ar    1  UNL1       -0.2269
      4 C           7.9064   -2.8664   19.6454 C.ar    1  UNL1        0.1407
      5 N           9.1774   -3.3427   20.2839 N.ar    1  UNL1       -0.3374
      6 C           9.1273   -4.1195   21.5660 C.ar    1  UNL1        0.0735
      7 C           7.8062   -4.4200   22.2097 C.ar    1  UNL1        0.0186
      8 C           6.5352   -3.9437   21.5713 C.ar    1  UNL1        0.0047
      9 C           6.5853   -3.1669   20.2891 C.ar    1  UNL1        0.0386
     10 H          10.0445   -3.1454   19.8614 H       1  UNL1        0.1674
     11 C           7.7562   -5.1969   23.4920 C.ar    1  UNL1        0.0208
     12 C           8.3920   -6.5531   23.5725 C.ar    1  UNL1        0.0064
     13 C           8.3419   -7.3299   24.8548 C.ar    1  UNL1        0.0577
     14 C           7.6561   -6.7505   26.0564 C.ar    1  UNL1        0.2249
     15 N           7.0203   -5.3943   25.9758 N.ar    1  UNL1       -0.2101
     16 C           7.0704   -4.6175   24.6936 C.ar    1  UNL1        0.1021
     17 O           7.6060   -7.5273   27.3386 O.3     1  UNL1       -0.4602
     18 C           8.6398   -7.2911   28.3994 C.3     1  UNL1        0.2085
     19 C           8.4354   -6.2094   29.4183 C.3     1  UNL1        0.0647
     20 C           7.0475   -5.7597   29.7666 C.3     1  UNL1        0.0760
     21 N           6.8174   -4.3723   30.2881 N.3     1  UNL1       -0.2702
     22 C           6.6071   -3.2365   29.3311 C.3     1  UNL1        0.0897
     23 C           6.7976   -4.1206   31.7667 C.3     1  UNL1        0.0897
     24 C           4.0324   -2.6339   19.7030 C.2     1  UNL1        0.2015
     25 O           3.2333   -3.8133   19.2337 O.2     1  UNL1       -0.2864
     26 C           2.6574   -0.3994   22.6807 C.ar    1  UNL1        0.0920
     27 C           2.0070    0.7177   21.9198 C.ar    1  UNL1        0.0204
     28 C           2.0317    0.7177   20.4200 C.ar    1  UNL1        0.0312
     29 C           2.7068   -0.3995   19.6810 C.ar    1  UNL1        0.1454
     30 F           2.7315   -0.3996   18.1813 F       1  UNL1       -0.2040
     31 C           3.3572   -1.5166   20.4419 C.ar    1  UNL1        0.0951
     32 C           3.3325   -1.5166   21.9417 C.ar    1  UNL1        0.1598
     33 F           3.9830   -2.6338   22.7026 F       1  UNL1       -0.2026
     34 N           2.6327   -0.3993   24.1805 N.pl3   1  UNL1       -0.2166
     35 H           1.7819   -0.5285   24.6588 H       1  UNL1        0.1734
     36 S           3.9042   -0.2024   24.9515 S.O2    1  UNL1        0.0540
     37 O           3.7351   -1.5557   25.5760 O.2     1  UNL1       -0.1545
     38 O           4.0732    1.1509   24.3270 O.2     1  UNL1       -0.1545
     39 C           5.1756   -0.0053   25.7225 C.3     1  UNL1        0.1724
     40 C           6.6419   -0.9536   23.7986 C.3     1  UNL1        0.0019
     41 C           6.4444   -0.6549   25.2552 C.3     1  UNL1        0.0273
@<TRIPOS>BOND
     1    40    41    1
     2    41    39    1
     3    39    36    1
     4    36    37    2
     5    36    38    2
     6    36    34    1
     7    34    26    1
     8    26    27   ar
     9    27    28   ar
    10    28    29   ar
    11    29    30    1
    12    29    31   ar
    13    31    24    1
    14    24    25    2
    15    24     1    1
    16     1     2   ar
    17     2     3   ar
    18     3     4   ar
    19     4     5   ar
    20     5     6   ar
    21     6     7   ar
    22     7    11    1
    23    11    12   ar
    24    12    13   ar
    25    13    14   ar
    26    14    17    1
    27    17    18    1
    28    18    19    1
    29    19    20    1
    30    20    21    1
    31    21    22    1
    32    21    23    1
    33    14    15   ar
    34    15    16   ar
    35     7     8   ar
    36     8     9   ar
    37    31    32   ar
    38    32    33    1
    39    32    26   ar
    40     9     1   ar
    41     9     4    1
    42    16    11   ar
    43    34    35    1
    44     5    10    1
@<TRIPOS>MOLECULE
*****
 41 44 0 0 0
SMALL
GASTEIGER

@<TRIPOS>ATOM
      1 C           5.0387   -3.4017   22.4084 C.ar    1  UNL1        0.0611
      2 C           6.1223   -4.0818   23.1914 C.ar    1  UNL1        0.1037
      3 N           6.2007   -3.4276   24.5389 N.ar    1  UNL1       -0.2269
      4 C           5.1656   -2.3431   24.5887 C.ar    1  UNL1        0.1407
      5 N           4.7843   -1.3682   25.6629 N.ar    1  UNL1       -0.3374
      6 C           3.6847   -0.3772   25.4203 C.ar    1  UNL1        0.0735
      7 C           2.9665   -0.3612   24.1036 C.ar    1  UNL1        0.0186
      8 C           3.3479   -1.3362   23.0293 C.ar    1  UNL1        0.0047
      9 C           4.4474   -2.3271   23.2719 C.ar    1  UNL1        0.0386
     10 H           5.2556   -1.3787   26.5272 H       1  UNL1        0.1674
     11 C           1.8669    0.6298   23.8610 C.ar    1  UNL1        0.0208
     12 C           1.4446    0.9532   22.4585 C.ar    1  UNL1        0.0064
     13 C           0.3450    1.9443   22.2160 C.ar    1  UNL1        0.0577
     14 C          -0.3323    2.6118   23.3760 C.ar    1  UNL1        0.2249
     15 N           0.0900    2.2884   24.7785 N.ar    1  UNL1       -0.2101
     16 C           1.1896    1.2974   25.0210 C.ar    1  UNL1        0.1021
     17 O          -1.4319    3.6028   23.1335 O.3     1  UNL1       -0.4602
     18 C          -1.2800    4.6452   22.0656 C.3     1  UNL1        0.2085
     19 C          -1.9908    4.4848   20.7544 C.3     1  UNL1        0.0647
     20 C          -2.8016    3.2515   20.4868 C.3     1  UNL1        0.0760
     21 N          -4.2810    3.2584   20.7340 N.3     1  UNL1       -0.2702
     22 C          -4.8111    3.0346   22.1193 C.3     1  UNL1        0.0897
     23 C          -5.2305    3.4890   19.5959 C.3     1  UNL1        0.0897
     24 C           4.6199   -3.7372   21.0077 C.2     1  UNL1        0.2015
     25 O           3.8904   -5.0179   20.7293 O.2     1  UNL1       -0.2864
     26 C           4.1466   -1.0240   18.1502 C.ar    1  UNL1        0.0920
     27 C           5.5519   -0.9013   17.6402 C.ar    1  UNL1        0.0204
     28 C           6.6465   -1.7239   18.2527 C.ar    1  UNL1        0.0312
     29 C           6.3359   -2.6692   19.3752 C.ar    1  UNL1        0.1454
     30 F           7.4305   -3.4918   19.9876 F       1  UNL1       -0.2040
     31 C           4.9306   -2.7919   19.8851 C.ar    1  UNL1        0.0951
     32 C           3.8359   -1.9693   19.2726 C.ar    1  UNL1        0.1598
     33 F           2.4306   -2.0920   19.7827 F       1  UNL1       -0.2026
     34 N           3.0519   -0.2014   17.5377 N.pl3   1  UNL1       -0.2166
     35 H           2.7112   -0.4245   16.6414 H       1  UNL1        0.1734
     36 S           2.4765    0.9612   18.2909 S.O2    1  UNL1        0.0540
     37 O           1.1307    0.2988   18.2850 O.2     1  UNL1       -0.1545
     38 O           3.8223    1.6235   18.2968 O.2     1  UNL1       -0.1545
     39 C           1.9011    2.1237   19.0440 C.3     1  UNL1        0.1724
     40 C           1.7033    4.7099   18.8915 C.3     1  UNL1        0.0019
     41 C           2.5498    3.4730   18.9506 C.3     1  UNL1        0.0273
@<TRIPOS>BOND
     1    40    41    1
     2    41    39    1
     3    39    36    1
     4    36    37    2
     5    36    38    2
     6    36    34    1
     7    34    26    1
     8    26    27   ar
     9    27    28   ar
    10    28    29   ar
    11    29    30    1
    12    29    31   ar
    13    31    24    1
    14    24    25    2
    15    24     1    1
    16     1     2   ar
    17     2     3   ar
    18     3     4   ar
    19     4     5   ar
    20     5     6   ar
    21     6     7   ar
    22     7    11    1
    23    11    12   ar
    24    12    13   ar
    25    13    14   ar
    26    14    17    1
    27    17    18    1
    28    18    19    1
    29    19    20    1
    30    20    21    1
    31    21    22    1
    32    21    23    1
    33    14    15   ar
    34    15    16   ar
    35     7     8   ar
    36     8     9   ar
    37    31    32   ar
    38    32    33    1
    39    32    26   ar
    40     9     1   ar
    41     9     4    1
    42    16    11   ar
    43    34    35    1
    44     5    10    1
@<TRIPOS>MOLECULE
*****
 41 44 0 0 0
SMALL
GASTEIGER

@<TRIPOS>ATOM
      1 C         -11.5220   -2.6667   17.9904 C.ar    1  UNL1        0.0611
      2 C         -10.3667   -2.6389   17.0342 C.ar    1  UNL1        0.1037
      3 N         -10.3325   -1.2857   16.3879 N.ar    1  UNL1       -0.2269
      4 C         -11.4666   -0.4772   16.9447 C.ar    1  UNL1        0.1407
      5 N         -11.9249    0.9258   16.6778 N.ar    1  UNL1       -0.3374
      6 C         -13.1184    1.4754   17.4013 C.ar    1  UNL1        0.0735
      7 C         -13.8536    0.6219   18.3917 C.ar    1  UNL1        0.0186
      8 C         -13.3953   -0.7812   18.6587 C.ar    1  UNL1        0.0047
      9 C         -12.2018   -1.3308   17.9351 C.ar    1  UNL1        0.0386
     10 H         -11.4424    1.4860   16.0277 H       1  UNL1        0.1674
     11 C         -15.0471    1.1715   19.1153 C.ar    1  UNL1        0.0208
     12 C         -15.9876    0.2427   19.8244 C.ar    1  UNL1        0.0064
     13 C         -17.1811    0.7924   20.5480 C.ar    1  UNL1        0.0577
     14 C         -17.4341    2.2708   20.5623 C.ar    1  UNL1        0.2249
     15 N         -16.4936    3.1996   19.8532 N.ar    1  UNL1       -0.2101
     16 C         -15.3001    2.6500   19.1297 C.ar    1  UNL1        0.1021
     17 O         -18.6276    2.8205   21.2858 O.3     1  UNL1       -0.4602
     18 C         -18.6001    2.9614   22.7789 C.3     1  UNL1        0.2085
     19 C         -17.2877    3.0515   23.4998 C.3     1  UNL1        0.0647
     20 C         -16.7040    4.3931   23.8301 C.3     1  UNL1        0.0760
     21 N         -15.9166    5.1434   22.7971 N.3     1  UNL1       -0.2702
     22 C         -14.4976    4.7533   22.5063 C.3     1  UNL1        0.0897
     23 C         -16.5481    6.2836   22.0548 C.3     1  UNL1        0.0897
     24 C         -11.9266   -3.8268   18.8509 C.2     1  UNL1        0.2015
     25 O         -12.6107   -3.5844   20.1636 O.2     1  UNL1       -0.2864
     26 C         -12.4279   -7.4148   17.2306 C.ar    1  UNL1        0.0920
     27 C         -11.0878   -8.0347   17.4944 C.ar    1  UNL1        0.0204
     28 C         -10.0272   -7.2521   18.2104 C.ar    1  UNL1        0.0312
     29 C         -10.3067   -5.8495   18.6626 C.ar    1  UNL1        0.1454
     30 F          -9.2462   -5.0668   19.3786 F       1  UNL1       -0.2040
     31 C         -11.6469   -5.2295   18.3987 C.ar    1  UNL1        0.0951
     32 C         -12.7075   -6.0122   17.6827 C.ar    1  UNL1        0.1598
     33 F         -14.0476   -5.3922   17.4190 F       1  UNL1       -0.2026
     34 N         -13.4885   -8.1975   16.5146 N.pl3   1  UNL1       -0.2166
     35 H         -13.2939   -8.6037   15.6391 H       1  UNL1        0.1734
     36 S         -14.8455   -8.3612   17.1324 S.O2    1  UNL1        0.0540
     37 O         -14.2324   -9.1045   18.2820 O.2     1  UNL1       -0.1545
     38 O         -15.4586   -7.6179   15.9828 O.2     1  UNL1       -0.1545
     39 C         -16.2025   -8.5249   17.7501 C.3     1  UNL1        0.1724
     40 C         -17.2540   -8.3725   20.1211 C.3     1  UNL1        0.0019
     41 C         -16.5816   -7.7134   18.9534 C.3     1  UNL1        0.0273
@<TRIPOS>BOND
     1    40    41    1
     2    41    39    1
     3    39    36    1
     4    36    37    2
     5    36    38    2
     6    36    34    1
     7    34    26    1
     8    26    27   ar
     9    27    28   ar
    10    28    29   ar
    11    29    30    1
    12    29    31   ar
    13    31    24    1
    14    24    25    2
    15    24     1    1
    16     1     2   ar
    17     2     3   ar
    18     3     4   ar
    19     4     5   ar
    20     5     6   ar
    21     6     7   ar
    22     7    11    1
    23    11    12   ar
    24    12    13   ar
    25    13    14   ar
    26    14    17    1
    27    17    18    1
    28    18    19    1
    29    19    20    1
    30    20    21    1
    31    21    22    1
    32    21    23    1
    33    14    15   ar
    34    15    16   ar
    35     7     8   ar
    36     8     9   ar
    37    31    32   ar
    38    32    33    1
    39    32    26   ar
    40     9     1   ar
    41     9     4    1
    42    16    11   ar
    43    34    35    1
    44     5    10    1
@<TRIPOS>MOLECULE
*****
 41 44 0 0 0
SMALL
GASTEIGER

@<TRIPOS>ATOM
      1 C           6.5469   -3.0710   30.2461 C.ar    1  UNL1        0.0611
      2 C           6.6787   -3.8252   31.5360 C.ar    1  UNL1        0.1037
      3 N           6.9913   -5.2549   31.2071 N.ar    1  UNL1       -0.2269
      4 C           7.0527   -5.3844   29.7139 C.ar    1  UNL1        0.1407
      5 N           7.3232   -6.5568   28.8184 N.ar    1  UNL1       -0.3374
      6 C           7.3191   -6.3796   27.3289 C.ar    1  UNL1        0.0735
      7 C           7.0445   -5.0298   26.7350 C.ar    1  UNL1        0.0186
      8 C           6.7739   -3.8574   27.6305 C.ar    1  UNL1        0.0047
      9 C           6.7781   -4.0346   29.1200 C.ar    1  UNL1        0.0386
     10 H           7.5035   -7.4427   29.2082 H       1  UNL1        0.1674
     11 C           7.0403   -4.8526   25.2455 C.ar    1  UNL1        0.0208
     12 C           6.2662   -3.7269   24.6263 C.ar    1  UNL1        0.0064
     13 C           6.2621   -3.5497   23.1367 C.ar    1  UNL1        0.0577
     14 C           7.0321   -4.4983   22.2665 C.ar    1  UNL1        0.2249
     15 N           7.8062   -5.6240   22.8858 N.ar    1  UNL1       -0.2101
     16 C           7.8103   -5.8012   24.3752 C.ar    1  UNL1        0.1021
     17 O           7.0280   -4.3211   20.7770 O.3     1  UNL1       -0.4602
     18 C           7.3748   -2.9898   20.1792 C.3     1  UNL1        0.2085
     19 C           6.4455   -2.3452   19.1938 C.3     1  UNL1        0.0647
     20 C           5.3811   -3.1611   18.5221 C.3     1  UNL1        0.0760
     21 N           4.0798   -3.4186   19.2223 N.3     1  UNL1       -0.2702
     22 C           3.2581   -2.2686   19.7249 C.3     1  UNL1        0.0897
     23 C           3.6000   -4.8260   19.4199 C.3     1  UNL1        0.0897
     24 C           6.2382   -1.6098   30.1067 C.2     1  UNL1        0.2015
     25 O           7.3289   -0.5936   30.2723 O.2     1  UNL1       -0.2864
     26 C           2.9934   -0.5689   28.0724 C.ar    1  UNL1        0.0920
     27 C           2.0393   -0.2746   29.1918 C.ar    1  UNL1        0.0204
     28 C           2.4848   -0.4253   30.6161 C.ar    1  UNL1        0.0312
     29 C           3.8844   -0.8703   30.9212 C.ar    1  UNL1        0.1454
     30 F           4.3299   -1.0210   32.3455 F       1  UNL1       -0.2040
     31 C           4.8385   -1.1647   29.8017 C.ar    1  UNL1        0.0951
     32 C           4.3930   -1.0140   28.3774 C.ar    1  UNL1        0.1598
     33 F           5.3471   -1.3084   27.2580 F       1  UNL1       -0.2026
     34 N           2.5479   -0.4182   26.6480 N.pl3   1  UNL1       -0.2166
     35 H           1.6524   -0.7249   26.3773 H       1  UNL1        0.1734
     36 S           3.4668    0.1997   25.6362 S.O2    1  UNL1        0.0540
     37 O           3.5094   -1.0969   24.8832 O.2     1  UNL1       -0.1545
     38 O           3.4241    1.4963   26.3892 O.2     1  UNL1       -0.1545
     39 C           4.3856    0.8177   24.6244 C.3     1  UNL1        0.1724
     40 C           6.3504    0.4757   22.9592 C.3     1  UNL1        0.0019
     41 C           5.6568    0.1198   24.2406 C.3     1  UNL1        0.0273
@<TRIPOS>BOND
     1    40    41    1
     2    41    39    1
     3    39    36    1
     4    36    37    2
     5    36    38    2
     6    36    34    1
     7    34    26    1
     8    26    27   ar
     9    27    28   ar
    10    28    29   ar
    11    29    30    1
    12    29    31   ar
    13    31    24    1
    14    24    25    2
    15    24     1    1
    16     1     2   ar
    17     2     3   ar
    18     3     4   ar
    19     4     5   ar
    20     5     6   ar
    21     6     7   ar
    22     7    11    1
    23    11    12   ar
    24    12    13   ar
    25    13    14   ar
    26    14    17    1
    27    17    18    1
    28    18    19    1
    29    19    20    1
    30    20    21    1
    31    21    22    1
    32    21    23    1
    33    14    15   ar
    34    15    16   ar
    35     7     8   ar
    36     8     9   ar
    37    31    32   ar
    38    32    33    1
    39    32    26   ar
    40     9     1   ar
    41     9     4    1
    42    16    11   ar
    43    34    35    1
    44     5    10    1
@<TRIPOS>MOLECULE
*****
 41 44 0 0 0
SMALL
GASTEIGER

@<TRIPOS>ATOM
      1 C           4.7012   -2.9288   19.5847 C.ar    1  UNL1        0.0611
      2 C           5.3399   -3.0278   18.2311 C.ar    1  UNL1        0.1037
      3 N           4.9790   -1.7947   17.4570 N.ar    1  UNL1       -0.2269
      4 C           4.1172   -0.9336   18.3321 C.ar    1  UNL1        0.1407
      5 N           3.4666    0.3981   18.1015 N.ar    1  UNL1       -0.3374
      6 C           2.6444    1.0289   19.1858 C.ar    1  UNL1        0.0735
      7 C           2.4727    0.3280   20.5008 C.ar    1  UNL1        0.0186
      8 C           3.1232   -1.0037   20.7315 C.ar    1  UNL1        0.0047
      9 C           3.9455   -1.6345   19.6471 C.ar    1  UNL1        0.0386
     10 H           3.5794    0.8581   17.2384 H       1  UNL1        0.1674
     11 C           1.6503    0.9589   21.5852 C.ar    1  UNL1        0.0208
     12 C           1.9262    0.6311   23.0227 C.ar    1  UNL1        0.0064
     13 C           1.1039    1.2620   24.1071 C.ar    1  UNL1        0.0577
     14 C           0.0057    2.2208   23.7539 C.ar    1  UNL1        0.2249
     15 N          -0.2702    2.5486   22.3163 N.ar    1  UNL1       -0.2101
     16 C           0.5521    1.9177   21.2320 C.ar    1  UNL1        0.1021
     17 O          -0.8166    2.8517   24.8382 O.3     1  UNL1       -0.4602
     18 C          -0.9195    2.1920   26.1814 C.3     1  UNL1        0.2085
     19 C          -0.1882    2.7678   27.3577 C.3     1  UNL1        0.0647
     20 C          -0.1183    2.0020   28.6455 C.3     1  UNL1        0.0760
     21 N           0.1328    0.5233   28.6261 N.3     1  UNL1       -0.2702
     22 C           1.5204    0.0011   28.3979 C.3     1  UNL1        0.0897
     23 C          -1.0036   -0.4333   28.8347 C.3     1  UNL1        0.0897
     24 C           4.8006   -3.9455   20.6831 C.2     1  UNL1        0.2015
     25 O           3.9744   -5.1960   20.6247 O.2     1  UNL1       -0.2864
     26 C           6.1196   -2.9173   24.2822 C.ar    1  UNL1        0.0920
     27 C           7.5779   -3.2441   24.1537 C.ar    1  UNL1        0.0204
     28 C           8.1104   -3.8047   22.8683 C.ar    1  UNL1        0.0312
     29 C           7.1847   -4.0385   21.7115 C.ar    1  UNL1        0.1454
     30 F           7.7173   -4.5991   20.4261 F       1  UNL1       -0.2040
     31 C           5.7264   -3.7117   21.8400 C.ar    1  UNL1        0.0951
     32 C           5.1939   -3.1511   23.1253 C.ar    1  UNL1        0.1598
     33 F           3.7355   -2.8243   23.2537 F       1  UNL1       -0.2026
     34 N           5.5870   -2.3567   25.5675 N.pl3   1  UNL1       -0.2166
     35 H           5.6082   -2.9004   26.3879 H       1  UNL1        0.1734
     36 S           5.0222   -0.9675   25.6028 S.O2    1  UNL1        0.0540
     37 O           6.3501   -0.4167   25.1749 O.2     1  UNL1       -0.1545
     38 O           3.6942   -1.5184   26.0308 O.2     1  UNL1       -0.1545
     39 C           4.4573    0.4215   25.6382 C.3     1  UNL1        0.1724
     40 C           5.2045    2.8352   26.2436 C.3     1  UNL1        0.0019
     41 C           4.9617    1.4109   26.6466 C.3     1  UNL1        0.0273
@<TRIPOS>BOND
     1    40    41    1
     2    41    39    1
     3    39    36    1
     4    36    37    2
     5    36    38    2
     6    36    34    1
     7    34    26    1
     8    26    27   ar
     9    27    28   ar
    10    28    29   ar
    11    29    30    1
    12    29    31   ar
    13    31    24    1
    14    24    25    2
    15    24     1    1
    16     1     2   ar
    17     2     3   ar
    18     3     4   ar
    19     4     5   ar
    20     5     6   ar
    21     6     7   ar
    22     7    11    1
    23    11    12   ar
    24    12    13   ar
    25    13    14   ar
    26    14    17    1
    27    17    18    1
    28    18    19    1
    29    19    20    1
    30    20    21    1
    31    21    22    1
    32    21    23    1
    33    14    15   ar
    34    15    16   ar
    35     7     8   ar
    36     8     9   ar
    37    31    32   ar
    38    32    33    1
    39    32    26   ar
    40     9     1   ar
    41     9     4    1
    42    16    11   ar
    43    34    35    1
    44     5    10    1
@<TRIPOS>MOLECULE
*****
 41 44 0 0 0
SMALL
GASTEIGER

@<TRIPOS>ATOM
      1 C         -15.3270   -2.8249   18.8976 C.ar    1  UNL1        0.0611
      2 C         -15.8462   -3.5703   17.7041 C.ar    1  UNL1        0.1037
      3 N         -16.8599   -2.7017   17.0201 N.ar    1  UNL1       -0.2269
      4 C         -16.9672   -1.4194   17.7909 C.ar    1  UNL1        0.1407
      5 N         -17.8051   -0.1922   17.5861 N.ar    1  UNL1       -0.3374
      6 C         -17.6956    0.9587   18.5418 C.ar    1  UNL1        0.0735
      7 C         -16.7482    0.8826   19.7022 C.ar    1  UNL1        0.0186
      8 C         -15.9103   -0.3446   19.9070 C.ar    1  UNL1        0.0047
      9 C         -16.0198   -1.4955   18.9514 C.ar    1  UNL1        0.0386
     10 H         -18.4270   -0.1423   16.8245 H       1  UNL1        0.1674
     11 C         -16.6388    2.0336   20.6578 C.ar    1  UNL1        0.0208
     12 C         -17.3693    1.9933   21.9673 C.ar    1  UNL1        0.0064
     13 C         -17.2598    3.1444   22.9229 C.ar    1  UNL1        0.0577
     14 C         -16.4198    4.3357   22.5690 C.ar    1  UNL1        0.2249
     15 N         -15.6893    4.3759   21.2595 N.ar    1  UNL1       -0.2101
     16 C         -15.7988    3.2249   20.3040 C.ar    1  UNL1        0.1021
     17 O         -16.3103    5.4867   23.5246 O.3     1  UNL1       -0.4602
     18 C         -16.1591    5.2292   24.9946 C.3     1  UNL1        0.2085
     19 C         -14.9682    4.4733   25.5050 C.3     1  UNL1        0.0647
     20 C         -13.7661    5.2173   26.0064 C.3     1  UNL1        0.0760
     21 N         -12.5975    5.4543   25.0965 N.3     1  UNL1       -0.2702
     22 C         -11.5534    4.3911   24.9241 C.3     1  UNL1        0.0897
     23 C         -12.4728    6.7544   24.3589 C.3     1  UNL1        0.0897
     24 C         -14.2960   -3.3216   19.8673 C.2     1  UNL1        0.2015
     25 O         -14.2153   -2.7316   21.2440 O.2     1  UNL1       -0.2864
     26 C         -12.8688   -6.9164   18.9781 C.ar    1  UNL1        0.0920
     27 C         -11.4447   -6.5819   18.6462 C.ar    1  UNL1        0.0204
     28 C         -10.9711   -5.1607   18.7214 C.ar    1  UNL1        0.0312
     29 C         -11.9214   -4.0739   19.1284 C.ar    1  UNL1        0.1454
     30 F         -11.4478   -2.6526   19.2036 F       1  UNL1       -0.2040
     31 C         -13.3455   -4.4084   19.4603 C.ar    1  UNL1        0.0951
     32 C         -13.8192   -5.8296   19.3851 C.ar    1  UNL1        0.1598
     33 F         -15.2433   -6.1641   19.7170 F       1  UNL1       -0.2026
     34 N         -13.3425   -8.3377   18.9029 N.pl3   1  UNL1       -0.2166
     35 H         -12.8536   -9.0455   19.3816 H       1  UNL1        0.1734
     36 S         -14.5611   -8.6805   18.0982 S.O2    1  UNL1        0.0540
     37 O         -13.9098   -8.1152   16.8710 O.2     1  UNL1       -0.1545
     38 O         -15.2124   -9.2459   19.3255 O.2     1  UNL1       -0.1545
     39 C         -15.7797   -9.0234   17.2937 C.3     1  UNL1        0.1724
     40 C         -18.2687   -8.3808   16.9166 C.3     1  UNL1        0.0019
     41 C         -16.8281   -7.9812   17.0393 C.3     1  UNL1        0.0273
@<TRIPOS>BOND
     1    40    41    1
     2    41    39    1
     3    39    36    1
     4    36    37    2
     5    36    38    2
     6    36    34    1
     7    34    26    1
     8    26    27   ar
     9    27    28   ar
    10    28    29   ar
    11    29    30    1
    12    29    31   ar
    13    31    24    1
    14    24    25    2
    15    24     1    1
    16     1     2   ar
    17     2     3   ar
    18     3     4   ar
    19     4     5   ar
    20     5     6   ar
    21     6     7   ar
    22     7    11    1
    23    11    12   ar
    24    12    13   ar
    25    13    14   ar
    26    14    17    1
    27    17    18    1
    28    18    19    1
    29    19    20    1
    30    20    21    1
    31    21    22    1
    32    21    23    1
    33    14    15   ar
    34    15    16   ar
    35     7     8   ar
    36     8     9   ar
    37    31    32   ar
    38    32    33    1
    39    32    26   ar
    40     9     1   ar
    41     9     4    1
    42    16    11   ar
    43    34    35    1
    44     5    10    1
@<TRIPOS>MOLECULE
*****
 41 44 0 0 0
SMALL
GASTEIGER

@<TRIPOS>ATOM
      1 C         -15.2914   -2.9602   18.7982 C.ar    1  UNL1        0.0611
      2 C         -15.7880   -3.6772   17.5778 C.ar    1  UNL1        0.1037
      3 N         -16.7808   -2.7879   16.8897 N.ar    1  UNL1       -0.2269
      4 C         -16.8977   -1.5213   17.6847 C.ar    1  UNL1        0.1407
      5 N         -17.7235   -0.2848   17.4870 N.ar    1  UNL1       -0.3374
      6 C         -17.6287    0.8452   18.4688 C.ar    1  UNL1        0.0735
      7 C         -16.7082    0.7388   19.6483 C.ar    1  UNL1        0.0186
      8 C         -15.8825   -0.4977   19.8461 C.ar    1  UNL1        0.0047
      9 C         -15.9772   -1.6278   18.8642 C.ar    1  UNL1        0.0386
     10 H         -18.3276   -0.2149   16.7128 H       1  UNL1        0.1674
     11 C         -16.6135    1.8689   20.6302 C.ar    1  UNL1        0.0208
     12 C         -17.2474    1.7417   21.9836 C.ar    1  UNL1        0.0064
     13 C         -17.1527    2.8718   22.9654 C.ar    1  UNL1        0.0577
     14 C         -16.4240    4.1291   22.5937 C.ar    1  UNL1        0.2249
     15 N         -15.7900    4.2563   21.2402 N.ar    1  UNL1       -0.2101
     16 C         -15.8848    3.1262   20.2585 C.ar    1  UNL1        0.1021
     17 O         -16.3292    5.2592   23.5755 O.3     1  UNL1       -0.4602
     18 C         -16.5901    5.0114   25.0317 C.3     1  UNL1        0.2085
     19 C         -17.8757    5.4719   25.6524 C.3     1  UNL1        0.0647
     20 C         -17.8494    6.3893   26.8388 C.3     1  UNL1        0.0760
     21 N         -17.7589    5.8214   28.2241 N.3     1  UNL1       -0.2702
     22 C         -18.9936    5.7002   29.0672 C.3     1  UNL1        0.0897
     23 C         -16.4336    5.3745   28.7664 C.3     1  UNL1        0.0897
     24 C         -14.2855   -3.4836   19.7801 C.2     1  UNL1        0.2015
     25 O         -14.1645   -2.8555   21.1368 O.2     1  UNL1       -0.2864
     26 C         -13.0702   -7.1804   19.0010 C.ar    1  UNL1        0.0920
     27 C         -11.6306   -6.9387   18.6557 C.ar    1  UNL1        0.0204
     28 C         -11.0760   -5.5453   18.6852 C.ar    1  UNL1        0.0312
     29 C         -11.9609   -4.3936   19.0600 C.ar    1  UNL1        0.1454
     30 F         -11.4063   -3.0002   19.0895 F       1  UNL1       -0.2040
     31 C         -13.4005   -4.6354   19.4053 C.ar    1  UNL1        0.0951
     32 C         -13.9550   -6.0287   19.3758 C.ar    1  UNL1        0.1598
     33 F         -15.3947   -6.2704   19.7211 F       1  UNL1       -0.2026
     34 N         -13.6247   -8.5738   18.9714 N.pl3   1  UNL1       -0.2166
     35 H         -13.1293   -9.3100   19.3978 H       1  UNL1        0.1734
     36 S         -14.9342   -8.8456   18.2922 S.O2    1  UNL1        0.0540
     37 O         -14.3652   -8.3488   16.9963 O.2     1  UNL1       -0.1545
     38 O         -15.5033   -9.3423   19.5881 O.2     1  UNL1       -0.1545
     39 C         -16.2437   -9.1174   17.6131 C.3     1  UNL1        0.1724
     40 C         -18.6359  -10.0733   17.9512 C.3     1  UNL1        0.0019
     41 C         -17.1520  -10.1900   18.1373 C.3     1  UNL1        0.0273
@<TRIPOS>BOND
     1    40    41    1
     2    41    39    1
     3    39    36    1
     4    36    37    2
     5    36    38    2
     6    36    34    1
     7    34    26    1
     8    26    27   ar
     9    27    28   ar
    10    28    29   ar
    11    29    30    1
    12    29    31   ar
    13    31    24    1
    14    24    25    2
    15    24     1    1
    16     1     2   ar
    17     2     3   ar
    18     3     4   ar
    19     4     5   ar
    20     5     6   ar
    21     6     7   ar
    22     7    11    1
    23    11    12   ar
    24    12    13   ar
    25    13    14   ar
    26    14    17    1
    27    17    18    1
    28    18    19    1
    29    19    20    1
    30    20    21    1
    31    21    22    1
    32    21    23    1
    33    14    15   ar
    34    15    16   ar
    35     7     8   ar
    36     8     9   ar
    37    31    32   ar
    38    32    33    1
    39    32    26   ar
    40     9     1   ar
    41     9     4    1
    42    16    11   ar
    43    34    35    1
    44     5    10    1
