@<TRIPOS>MOLECULE
*****
 43 45 0 0 0
SMALL
GASTEIGER

@<TRIPOS>ATOM
      1 C         -17.0375   -2.4756   19.6469 C.3     1  UNL1        0.2120
      2 O         -15.7768   -1.7991   20.0973 O.3     1  UNL1       -0.3763
      3 H         -15.4171   -2.2656   20.8679 H       1  UNL1        0.2107
      4 C         -18.2982   -3.1522   19.1965 C.3     1  UNL1        0.4226
      5 F         -19.5590   -3.8287   18.7460 F       1  UNL1       -0.1675
      6 F         -17.9640   -2.8258   17.7710 F       1  UNL1       -0.1675
      7 F         -18.6324   -3.4785   20.6219 F       1  UNL1       -0.1675
      8 C         -17.7074   -1.1400   19.5157 C.3     1  UNL1        0.1269
      9 C         -17.8879    0.9277   21.0784 C.2     1  UNL1        0.2502
     10 O         -19.3092    0.5658   21.3931 O.2     1  UNL1       -0.2700
     11 N         -17.0870    0.0748   20.1397 N.am    1  UNL1       -0.2982
     12 H         -16.1542    0.3123   19.9332 H       1  UNL1        0.1498
     13 N         -18.2200    1.8699   24.1851 N.pl3   1  UNL1       -0.3424
     14 C         -17.4202    2.5755   23.1305 C.ar    1  UNL1        0.1327
     15 C         -17.2675    2.1424   21.7025 C.ar    1  UNL1        0.1053
     16 C         -16.3855    3.1374   21.0082 C.ar    1  UNL1        0.1278
     17 N         -15.9930    4.1854   22.0070 N.ar    1  UNL1       -0.1622
     18 N         -16.6325    3.8381   23.3187 N.ar    1  UNL1       -0.2163
     19 H         -18.7056    1.0426   23.9634 H       1  UNL1        0.1437
     20 H         -18.2595    2.2340   25.0989 H       1  UNL1        0.1437
     21 C         -16.5065    4.6168   24.5945 C.ar    1  UNL1        0.0843
     22 C         -15.1897    4.6752   25.3105 C.ar    1  UNL1        0.0215
     23 C         -15.0637    5.4538   26.5864 C.ar    1  UNL1        0.0312
     24 C         -16.2545    6.1740   27.1463 C.ar    1  UNL1        0.1402
     25 F         -16.1283    6.9526   28.4222 F       1  UNL1       -0.2042
     26 C         -17.5712    6.1156   26.4303 C.ar    1  UNL1        0.0312
     27 C         -17.6972    5.3370   25.1544 C.ar    1  UNL1        0.0215
     28 C         -16.3676   -3.8113   19.7781 C.3     1  UNL1        0.1308
     29 N         -15.0341   -4.0481   19.1333 N.am    1  UNL1       -0.2706
     30 C         -13.7858   -4.0339   19.9649 C.2     1  UNL1        0.2536
     31 O         -13.8709   -3.7828   21.4413 O.2     1  UNL1       -0.2697
     32 C         -12.4523   -4.2707   19.3201 C.ar    1  UNL1        0.1083
     33 C         -11.9620   -5.6717   19.1040 C.ar    1  UNL1        0.1467
     34 F         -12.8051   -6.8359   19.5327 F       1  UNL1       -0.2039
     35 C         -10.6285   -5.9085   18.4592 C.ar    1  UNL1        0.0299
     36 C          -9.7854   -4.7444   18.0304 C.ar    1  UNL1        0.0046
     37 C         -10.2758   -3.3433   18.2465 C.ar    1  UNL1        0.0299
     38 C         -11.6092   -3.1065   18.8913 C.ar    1  UNL1        0.1467
     39 F         -12.0995   -1.7055   19.1074 F       1  UNL1       -0.2039
     40 C         -14.9490   -4.2992   17.6569 C.3     1  UNL1        0.1255
     41 C         -14.8512   -3.1448   16.7042 C.3     1  UNL1        0.1586
     42 O         -14.6985   -1.7486   17.2309 O.3     1  UNL1       -0.3802
     43 H         -15.5018   -1.4947   17.7116 H       1  UNL1        0.2105
@<TRIPOS>BOND
     1    13    14    1
     2    14    15   ar
     3    15     9    1
     4     9    10    2
     5     9    11   am
     6    11     8    1
     7     8     1    1
     8     1     2    1
     9     1    28    1
    10    28    29    1
    11    29    40    1
    12    40    41    1
    13    41    42    1
    14    29    30   am
    15    30    31    2
    16    30    32    1
    17    32    33   ar
    18    33    34    1
    19    33    35   ar
    20    35    36   ar
    21    36    37   ar
    22    37    38   ar
    23    38    39    1
    24     1     4    1
    25     4     5    1
    26     4     6    1
    27     4     7    1
    28    15    16   ar
    29    16    17   ar
    30    17    18   ar
    31    18    21    1
    32    21    22   ar
    33    22    23   ar
    34    23    24   ar
    35    24    25    1
    36    24    26   ar
    37    26    27   ar
    38    18    14   ar
    39    27    21   ar
    40    38    32   ar
    41    13    19    1
    42    13    20    1
    43    11    12    1
    44     2     3    1
    45    42    43    1
@<TRIPOS>MOLECULE
*****
 43 45 0 0 0
SMALL
GASTEIGER

@<TRIPOS>ATOM
      1 C         -11.2931  -19.1063   22.5736 C.3     1  UNL1        0.2120
      2 O         -10.1369  -19.7450   23.2845 O.3     1  UNL1       -0.3763
      3 H          -9.5844  -19.0566   23.6865 H       1  UNL1        0.2107
      4 C         -12.4492  -18.4676   21.8628 C.3     1  UNL1        0.4226
      5 F         -13.6054  -17.8289   21.1518 F       1  UNL1       -0.1675
      6 F         -11.7383  -18.6386   20.5530 F       1  UNL1       -0.1675
      7 F         -13.1600  -18.2966   23.1725 F       1  UNL1       -0.1675
      8 C         -11.0634  -20.0036   21.3938 C.3     1  UNL1        0.1269
      9 C          -8.6158  -19.3413   20.8277 C.2     1  UNL1        0.2502
     10 O          -8.9604  -17.8954   21.0292 O.2     1  UNL1       -0.2700
     11 N          -9.6672  -20.3954   21.0100 N.am    1  UNL1       -0.2982
     12 H          -9.4410  -21.3444   20.8778 H       1  UNL1        0.1498
     13 N          -5.9221  -17.5652   21.3166 N.pl3   1  UNL1       -0.3424
     14 C          -5.9814  -18.9167   20.6687 C.ar    1  UNL1        0.1327
     15 C          -7.2196  -19.7331   20.4440 C.ar    1  UNL1        0.1053
     16 C          -6.8164  -21.0101   19.7682 C.ar    1  UNL1        0.1278
     17 N          -5.3291  -20.9830   19.5752 N.ar    1  UNL1       -0.1622
     18 N          -4.8131  -19.6891   20.1317 N.ar    1  UNL1       -0.2163
     19 H          -6.7480  -17.1371   21.6389 H       1  UNL1        0.1437
     20 H          -5.0572  -17.1062   21.4195 H       1  UNL1        0.1437
     21 C          -3.3803  -19.2456   20.1484 C.ar    1  UNL1        0.0843
     22 C          -2.8257  -18.4577   18.9988 C.ar    1  UNL1        0.0215
     23 C          -1.3929  -18.0142   19.0155 C.ar    1  UNL1        0.0312
     24 C          -0.5146  -18.3585   20.1818 C.ar    1  UNL1        0.1402
     25 F           0.9182  -17.9149   20.1983 F       1  UNL1       -0.2042
     26 C          -1.0692  -19.1464   21.3314 C.ar    1  UNL1        0.0312
     27 C          -2.5021  -19.5899   21.3147 C.ar    1  UNL1        0.0215
     28 C         -11.5228  -18.2090   23.7535 C.3     1  UNL1        0.1308
     29 N         -10.4547  -17.2479   24.1840 N.am    1  UNL1       -0.2706
     30 C          -9.4423  -17.6621   25.2105 C.2     1  UNL1        0.2536
     31 O          -9.4982  -19.0374   25.8065 O.2     1  UNL1       -0.2697
     32 C          -8.3742  -16.7009   25.6409 C.ar    1  UNL1        0.1083
     33 C          -8.2621  -16.3006   27.0821 C.ar    1  UNL1        0.1467
     34 F          -9.2181  -16.8614   28.0929 F       1  UNL1       -0.2039
     35 C          -7.1939  -15.3394   27.5127 C.ar    1  UNL1        0.0299
     36 C          -6.2380  -14.7786   26.5019 C.ar    1  UNL1        0.0046
     37 C          -6.3501  -15.1790   25.0606 C.ar    1  UNL1        0.0299
     38 C          -7.4182  -16.1401   24.6302 C.ar    1  UNL1        0.1467
     39 F          -7.5304  -16.5405   23.1890 F       1  UNL1       -0.2039
     40 C         -10.3988  -15.8725   23.5879 C.3     1  UNL1        0.1255
     41 C         -10.8240  -15.6534   22.1663 C.3     1  UNL1        0.1586
     42 O          -9.8150  -15.2372   21.1374 O.3     1  UNL1       -0.3802
     43 H          -9.4866  -14.3489   21.3473 H       1  UNL1        0.2105
@<TRIPOS>BOND
     1    13    14    1
     2    14    15   ar
     3    15     9    1
     4     9    10    2
     5     9    11   am
     6    11     8    1
     7     8     1    1
     8     1     2    1
     9     1    28    1
    10    28    29    1
    11    29    40    1
    12    40    41    1
    13    41    42    1
    14    29    30   am
    15    30    31    2
    16    30    32    1
    17    32    33   ar
    18    33    34    1
    19    33    35   ar
    20    35    36   ar
    21    36    37   ar
    22    37    38   ar
    23    38    39    1
    24     1     4    1
    25     4     5    1
    26     4     6    1
    27     4     7    1
    28    15    16   ar
    29    16    17   ar
    30    17    18   ar
    31    18    21    1
    32    21    22   ar
    33    22    23   ar
    34    23    24   ar
    35    24    25    1
    36    24    26   ar
    37    26    27   ar
    38    18    14   ar
    39    27    21   ar
    40    38    32   ar
    41    13    19    1
    42    13    20    1
    43    11    12    1
    44     2     3    1
    45    42    43    1
@<TRIPOS>MOLECULE
*****
 43 45 0 0 0
SMALL
GASTEIGER

@<TRIPOS>ATOM
      1 C         -11.2779  -19.1117   22.5960 C.3     1  UNL1        0.2120
      2 O         -10.1097  -19.7407   23.2955 O.3     1  UNL1       -0.3763
      3 H          -9.5596  -19.0478   23.6932 H       1  UNL1        0.2107
      4 C         -12.4462  -18.4826   21.8965 C.3     1  UNL1        0.4226
      5 F         -13.6146  -17.8535   21.1970 F       1  UNL1       -0.1675
      6 F         -13.1580  -18.3444   23.2097 F       1  UNL1       -0.1675
      7 F         -11.7345  -18.6209   20.5834 F       1  UNL1       -0.1675
      8 C         -11.0511  -20.0057   21.4132 C.3     1  UNL1        0.1269
      9 C          -8.6072  -19.3349   20.8414 C.2     1  UNL1        0.2502
     10 O          -8.9542  -17.8908   21.0522 O.2     1  UNL1       -0.2700
     11 N          -9.6556  -20.3923   21.0218 N.am    1  UNL1       -0.2982
     12 H          -9.4278  -21.3400   20.8834 H       1  UNL1        0.1498
     13 N          -5.9160  -17.5539   21.3266 N.pl3   1  UNL1       -0.3424
     14 C          -5.9746  -18.9027   20.6731 C.ar    1  UNL1        0.1327
     15 C          -7.2117  -19.7214   20.4500 C.ar    1  UNL1        0.1053
     16 C          -6.8081  -20.9944   19.7669 C.ar    1  UNL1        0.1278
     17 N          -5.3217  -20.9626   19.5678 N.ar    1  UNL1       -0.1622
     18 N          -4.8066  -19.6699   20.1278 N.ar    1  UNL1       -0.2163
     19 H          -6.7416  -17.1294   21.6542 H       1  UNL1        0.1437
     20 H          -5.0519  -17.0932   21.4279 H       1  UNL1        0.1437
     21 C          -3.3749  -19.2228   20.1404 C.ar    1  UNL1        0.0843
     22 C          -2.4842  -19.5911   21.2898 C.ar    1  UNL1        0.0215
     23 C          -1.0525  -19.1440   21.3024 C.ar    1  UNL1        0.0312
     24 C          -0.5114  -18.3285   20.1656 C.ar    1  UNL1        0.1402
     25 F           0.9204  -17.8814   20.1783 F       1  UNL1       -0.2042
     26 C          -1.4020  -17.9601   19.0163 C.ar    1  UNL1        0.0312
     27 C          -2.8338  -18.4072   19.0037 C.ar    1  UNL1        0.0215
     28 C         -11.5047  -18.2176   23.7789 C.3     1  UNL1        0.1308
     29 N         -10.4366  -17.2558   24.2078 N.am    1  UNL1       -0.2706
     30 C          -9.4237  -17.6687   25.2343 C.2     1  UNL1        0.2536
     31 O          -9.4790  -19.0435   25.8319 O.2     1  UNL1       -0.2697
     32 C          -8.3556  -16.7070   25.6632 C.ar    1  UNL1        0.1083
     33 C          -7.4096  -16.1356   24.6490 C.ar    1  UNL1        0.1467
     34 F          -7.5318  -16.5261   23.2059 F       1  UNL1       -0.2039
     35 C          -6.3414  -15.1738   25.0779 C.ar    1  UNL1        0.0299
     36 C          -6.2192  -14.7834   26.5210 C.ar    1  UNL1        0.0046
     37 C          -7.1652  -15.3548   27.5353 C.ar    1  UNL1        0.0299
     38 C          -8.2334  -16.3165   27.1064 C.ar    1  UNL1        0.1467
     39 F          -9.1793  -16.8879   28.1206 F       1  UNL1       -0.2039
     40 C         -10.3813  -15.8811   23.6103 C.3     1  UNL1        0.1255
     41 C         -11.0347  -15.6115   22.2873 C.3     1  UNL1        0.1586
     42 O         -10.1968  -15.4766   21.0505 O.3     1  UNL1       -0.3802
     43 H          -9.6409  -14.6848   21.1213 H       1  UNL1        0.2105
@<TRIPOS>BOND
     1    13    14    1
     2    14    15   ar
     3    15     9    1
     4     9    10    2
     5     9    11   am
     6    11     8    1
     7     8     1    1
     8     1     2    1
     9     1    28    1
    10    28    29    1
    11    29    40    1
    12    40    41    1
    13    41    42    1
    14    29    30   am
    15    30    31    2
    16    30    32    1
    17    32    33   ar
    18    33    34    1
    19    33    35   ar
    20    35    36   ar
    21    36    37   ar
    22    37    38   ar
    23    38    39    1
    24     1     4    1
    25     4     5    1
    26     4     6    1
    27     4     7    1
    28    15    16   ar
    29    16    17   ar
    30    17    18   ar
    31    18    21    1
    32    21    22   ar
    33    22    23   ar
    34    23    24   ar
    35    24    25    1
    36    24    26   ar
    37    26    27   ar
    38    18    14   ar
    39    27    21   ar
    40    38    32   ar
    41    13    19    1
    42    13    20    1
    43    11    12    1
    44     2     3    1
    45    42    43    1
@<TRIPOS>MOLECULE
*****
 43 45 0 0 0
SMALL
GASTEIGER

@<TRIPOS>ATOM
      1 C           5.1410   -2.9434   20.1988 C.3     1  UNL1        0.2120
      2 O           5.3680   -1.8630   21.2142 O.3     1  UNL1       -0.3763
      3 H           5.1440   -1.0025   20.8264 H       1  UNL1        0.2107
      4 C           4.9140   -4.0238   19.1834 C.3     1  UNL1        0.4226
      5 F           4.6870   -5.1043   18.1679 F       1  UNL1       -0.1675
      6 F           5.8670   -3.3431   18.2461 F       1  UNL1       -0.1675
      7 F           3.9611   -4.7045   20.1207 F       1  UNL1       -0.1675
      8 C           6.4604   -3.5592   20.5591 C.3     1  UNL1        0.1269
      9 C           7.8106   -4.7715   22.4186 C.2     1  UNL1        0.2502
     10 O           8.3653   -5.7200   21.3974 O.2     1  UNL1       -0.2700
     11 N           6.8582   -3.6912   21.9994 N.am    1  UNL1       -0.2982
     12 H           6.4941   -3.0686   22.6696 H       1  UNL1        0.1498
     13 N           5.9713   -3.9831   24.9964 N.pl3   1  UNL1       -0.3424
     14 C           7.3628   -4.5410   25.0438 C.ar    1  UNL1        0.1327
     15 C           8.2083   -4.9034   23.8588 C.ar    1  UNL1        0.1053
     16 C           9.5213   -5.4208   24.3671 C.ar    1  UNL1        0.1278
     17 N           9.4874   -5.3782   25.8661 N.ar    1  UNL1       -0.1622
     18 N           8.1534   -4.8345   26.2843 N.ar    1  UNL1       -0.2163
     19 H           5.5339   -3.8243   24.1288 H       1  UNL1        0.1437
     20 H           5.4954   -3.7759   25.8329 H       1  UNL1        0.1437
     21 C           7.6911   -4.6216   27.6953 C.ar    1  UNL1        0.0843
     22 C           7.4000   -5.8010   28.5752 C.ar    1  UNL1        0.0215
     23 C           6.9376   -5.5881   29.9861 C.ar    1  UNL1        0.0312
     24 C           6.7664   -4.1958   30.5173 C.ar    1  UNL1        0.1402
     25 F           6.3041   -3.9830   31.9283 F       1  UNL1       -0.2042
     26 C           7.0575   -3.0164   29.6375 C.ar    1  UNL1        0.0312
     27 C           7.5198   -3.2293   28.2265 C.ar    1  UNL1        0.0215
     28 C           3.8216   -2.3275   19.8385 C.3     1  UNL1        0.1308
     29 N           3.7500   -0.8797   19.4529 N.am    1  UNL1       -0.2706
     30 C           2.7428    0.0211   20.1042 C.2     1  UNL1        0.2536
     31 O           1.8070   -0.5261   21.1410 O.2     1  UNL1       -0.2697
     32 C           2.6712    1.4689   19.7186 C.ar    1  UNL1        0.1083
     33 C           1.6953    1.9190   18.6723 C.ar    1  UNL1        0.1467
     34 F           0.7908    0.9213   18.0116 F       1  UNL1       -0.2039
     35 C           1.6237    3.3668   18.2867 C.ar    1  UNL1        0.0299
     36 C           2.5281    4.3645   18.9474 C.ar    1  UNL1        0.0046
     37 C           3.5042    3.9144   19.9938 C.ar    1  UNL1        0.0299
     38 C           3.5757    2.4666   20.3794 C.ar    1  UNL1        0.1467
     39 F           4.5517    2.0164   21.4257 F       1  UNL1       -0.2039
     40 C           4.6858   -0.3325   18.4160 C.3     1  UNL1        0.1255
     41 C           4.2798   -0.3184   16.9721 C.3     1  UNL1        0.1586
     42 O           3.7851   -1.5752   16.3198 O.3     1  UNL1       -0.3802
     43 H           4.5053   -2.2237   16.2795 H       1  UNL1        0.2105
@<TRIPOS>BOND
     1    13    14    1
     2    14    15   ar
     3    15     9    1
     4     9    10    2
     5     9    11   am
     6    11     8    1
     7     8     1    1
     8     1     2    1
     9     1    28    1
    10    28    29    1
    11    29    40    1
    12    40    41    1
    13    41    42    1
    14    29    30   am
    15    30    31    2
    16    30    32    1
    17    32    33   ar
    18    33    34    1
    19    33    35   ar
    20    35    36   ar
    21    36    37   ar
    22    37    38   ar
    23    38    39    1
    24     1     4    1
    25     4     5    1
    26     4     6    1
    27     4     7    1
    28    15    16   ar
    29    16    17   ar
    30    17    18   ar
    31    18    21    1
    32    21    22   ar
    33    22    23   ar
    34    23    24   ar
    35    24    25    1
    36    24    26   ar
    37    26    27   ar
    38    18    14   ar
    39    27    21   ar
    40    38    32   ar
    41    13    19    1
    42    13    20    1
    43    11    12    1
    44     2     3    1
    45    42    43    1
@<TRIPOS>MOLECULE
*****
 43 45 0 0 0
SMALL
GASTEIGER

@<TRIPOS>ATOM
      1 C         -16.7407   -5.9651   19.3689 C.3     1  UNL1        0.2120
      2 O         -16.1906   -4.7802   20.1060 O.3     1  UNL1       -0.3763
      3 H         -15.7247   -5.0819   20.9015 H       1  UNL1        0.2107
      4 C         -17.2907   -7.1501   18.6319 C.3     1  UNL1        0.4226
      5 F         -17.8408   -8.3352   17.8949 F       1  UNL1       -0.1675
      6 F         -16.8944   -8.0424   19.7707 F       1  UNL1       -0.1675
      7 F         -17.6870   -6.2579   17.4931 F       1  UNL1       -0.1675
      8 C         -18.0467   -5.2490   19.1922 C.3     1  UNL1        0.1269
      9 C         -18.2906   -2.6804   18.8872 C.2     1  UNL1        0.2502
     10 O         -18.1499   -2.8433   17.4026 O.2     1  UNL1       -0.2700
     11 N         -18.2390   -3.8832   19.7819 N.am    1  UNL1       -0.2982
     12 H         -18.3313   -3.7763   20.7562 H       1  UNL1        0.1498
     13 N         -15.9925   -0.8798   20.3454 N.pl3   1  UNL1       -0.3424
     14 C         -17.4265   -0.4870   20.1472 C.ar    1  UNL1        0.1327
     15 C         -18.4828   -1.3147   19.4769 C.ar    1  UNL1        0.1053
     16 C         -19.7651   -0.5367   19.4999 C.ar    1  UNL1        0.1278
     17 N         -19.5014    0.7717   20.1844 N.ar    1  UNL1       -0.1622
     18 N         -18.0560    0.8024   20.5844 N.ar    1  UNL1       -0.2163
     19 H         -15.6719   -1.7524   20.0214 H       1  UNL1        0.1437
     20 H         -15.3720   -0.2650   20.7996 H       1  UNL1        0.1437
     21 C         -17.3620    1.9254   21.2967 C.ar    1  UNL1        0.0843
     22 C         -16.4850    2.8709   20.5307 C.ar    1  UNL1        0.0215
     23 C         -15.7909    3.9938   21.2429 C.ar    1  UNL1        0.0312
     24 C         -15.9740    4.1713   22.7211 C.ar    1  UNL1        0.1402
     25 F         -15.2799    5.2943   23.4333 F       1  UNL1       -0.2042
     26 C         -16.8510    3.2257   23.4871 C.ar    1  UNL1        0.0312
     27 C         -17.5451    2.1028   22.7749 C.ar    1  UNL1        0.0215
     28 C         -15.4345   -6.6813   19.5457 C.3     1  UNL1        0.1308
     29 N         -14.2167   -6.2139   18.8053 N.am    1  UNL1       -0.2706
     30 C         -13.1814   -5.3882   19.5100 C.2     1  UNL1        0.2536
     31 O         -13.3641   -5.0299   20.9551 O.2     1  UNL1       -0.2697
     32 C         -11.9635   -4.9207   18.7696 C.ar    1  UNL1        0.1083
     33 C         -10.8120   -5.8572   18.5532 C.ar    1  UNL1        0.1467
     34 F         -10.8782   -7.2611   19.0773 F       1  UNL1       -0.2039
     35 C          -9.5940   -5.3898   17.8127 C.ar    1  UNL1        0.0299
     36 C          -9.5277   -3.9859   17.2887 C.ar    1  UNL1        0.0046
     37 C         -10.6794   -3.0494   17.5051 C.ar    1  UNL1        0.0299
     38 C         -11.8972   -3.5168   18.2455 C.ar    1  UNL1        0.1467
     39 F         -13.0488   -2.5804   18.4618 F       1  UNL1       -0.2039
     40 C         -14.0340   -6.5721   17.3602 C.3     1  UNL1        0.1255
     41 C         -13.6655   -7.9744   16.9759 C.3     1  UNL1        0.1586
     42 O         -14.6886   -9.0683   17.0590 O.3     1  UNL1       -0.3802
     43 H         -14.9326   -9.2130   17.9866 H       1  UNL1        0.2105
@<TRIPOS>BOND
     1    13    14    1
     2    14    15   ar
     3    15     9    1
     4     9    10    2
     5     9    11   am
     6    11     8    1
     7     8     1    1
     8     1     2    1
     9     1    28    1
    10    28    29    1
    11    29    40    1
    12    40    41    1
    13    41    42    1
    14    29    30   am
    15    30    31    2
    16    30    32    1
    17    32    33   ar
    18    33    34    1
    19    33    35   ar
    20    35    36   ar
    21    36    37   ar
    22    37    38   ar
    23    38    39    1
    24     1     4    1
    25     4     5    1
    26     4     6    1
    27     4     7    1
    28    15    16   ar
    29    16    17   ar
    30    17    18   ar
    31    18    21    1
    32    21    22   ar
    33    22    23   ar
    34    23    24   ar
    35    24    25    1
    36    24    26   ar
    37    26    27   ar
    38    18    14   ar
    39    27    21   ar
    40    38    32   ar
    41    13    19    1
    42    13    20    1
    43    11    12    1
    44     2     3    1
    45    42    43    1
@<TRIPOS>MOLECULE
*****
 43 45 0 0 0
SMALL
GASTEIGER

@<TRIPOS>ATOM
      1 C           4.9387   -2.7927   19.6685 C.3     1  UNL1        0.2120
      2 O           5.1229   -1.4275   20.2618 O.3     1  UNL1       -0.3763
      3 H           4.6439   -0.7752   19.7270 H       1  UNL1        0.2107
      4 C           4.7546   -4.1580   19.0751 C.3     1  UNL1        0.4226
      5 F           4.5704   -5.5233   18.4818 F       1  UNL1       -0.1675
      6 F           4.0028   -4.5887   20.2997 F       1  UNL1       -0.1675
      7 F           5.5063   -3.7273   17.8507 F       1  UNL1       -0.1675
      8 C           6.4053   -3.0615   19.8319 C.3     1  UNL1        0.1269
      9 C           6.8346   -3.4951   22.3573 C.2     1  UNL1        0.2502
     10 O           6.3047   -2.1298   22.6818 O.2     1  UNL1       -0.2700
     11 N           6.8849   -3.9609   20.9324 N.am    1  UNL1       -0.2982
     12 H           7.2328   -4.8570   20.7194 H       1  UNL1        0.1498
     13 N           6.1312   -3.1883   25.5291 N.pl3   1  UNL1       -0.3424
     14 C           6.9909   -4.2534   24.9158 C.ar    1  UNL1        0.1327
     15 C           7.3142   -4.3945   23.4578 C.ar    1  UNL1        0.1053
     16 C           8.2014   -5.5928   23.2936 C.ar    1  UNL1        0.1278
     17 N           8.4263   -6.1924   24.6500 N.ar    1  UNL1       -0.1622
     18 N           7.6782   -5.3647   25.6525 N.ar    1  UNL1       -0.2163
     19 H           5.7212   -2.4980   24.9594 H       1  UNL1        0.1437
     20 H           5.9769   -3.1796   26.5014 H       1  UNL1        0.1437
     21 C           7.6265   -5.6057   27.1321 C.ar    1  UNL1        0.0843
     22 C           6.5481   -4.9698   27.9583 C.ar    1  UNL1        0.0215
     23 C           6.4963   -5.2108   29.4379 C.ar    1  UNL1        0.0312
     24 C           7.5230   -6.0878   30.0913 C.ar    1  UNL1        0.1402
     25 F           7.4711   -6.3288   31.5709 F       1  UNL1       -0.2042
     26 C           8.6014   -6.7237   29.2651 C.ar    1  UNL1        0.0312
     27 C           8.6531   -6.4827   27.7855 C.ar    1  UNL1        0.0215
     28 C           3.4720   -2.5238   19.5051 C.3     1  UNL1        0.1308
     29 N           2.9457   -1.1261   19.6440 N.am    1  UNL1       -0.2706
     30 C           2.6756   -0.5583   21.0059 C.2     1  UNL1        0.2536
     31 O           2.9317   -1.3883   22.2288 O.2     1  UNL1       -0.2697
     32 C           2.1493    0.8394   21.1449 C.ar    1  UNL1        0.1083
     33 C           0.6911    1.1166   20.9285 C.ar    1  UNL1        0.1467
     34 F          -0.2407   -0.0038   20.5732 F       1  UNL1       -0.2039
     35 C           0.1647    2.5144   21.0675 C.ar    1  UNL1        0.0299
     36 C           1.0966    3.6349   21.4228 C.ar    1  UNL1        0.0046
     37 C           2.5548    3.3575   21.6392 C.ar    1  UNL1        0.0299
     38 C           3.0811    1.9598   21.5002 C.ar    1  UNL1        0.1467
     39 F           4.5393    1.6825   21.7166 F       1  UNL1       -0.2039
     40 C           2.6896   -0.2961   18.4211 C.3     1  UNL1        0.1255
     41 C           3.6989   -0.2632   17.3121 C.3     1  UNL1        0.1586
     42 O           3.6921   -1.3322   16.2598 O.3     1  UNL1       -0.3802
     43 H           3.9216   -2.1841   16.6629 H       1  UNL1        0.2105
@<TRIPOS>BOND
     1    13    14    1
     2    14    15   ar
     3    15     9    1
     4     9    10    2
     5     9    11   am
     6    11     8    1
     7     8     1    1
     8     1     2    1
     9     1    28    1
    10    28    29    1
    11    29    40    1
    12    40    41    1
    13    41    42    1
    14    29    30   am
    15    30    31    2
    16    30    32    1
    17    32    33   ar
    18    33    34    1
    19    33    35   ar
    20    35    36   ar
    21    36    37   ar
    22    37    38   ar
    23    38    39    1
    24     1     4    1
    25     4     5    1
    26     4     6    1
    27     4     7    1
    28    15    16   ar
    29    16    17   ar
    30    17    18   ar
    31    18    21    1
    32    21    22   ar
    33    22    23   ar
    34    23    24   ar
    35    24    25    1
    36    24    26   ar
    37    26    27   ar
    38    18    14   ar
    39    27    21   ar
    40    38    32   ar
    41    13    19    1
    42    13    20    1
    43    11    12    1
    44     2     3    1
    45    42    43    1
@<TRIPOS>MOLECULE
*****
 43 45 0 0 0
SMALL
GASTEIGER

@<TRIPOS>ATOM
      1 C           4.7902   -3.0612   19.4883 C.3     1  UNL1        0.2120
      2 O           5.4200   -1.7070   19.3488 O.3     1  UNL1       -0.3763
      3 H           4.9877   -1.2220   18.6286 H       1  UNL1        0.2107
      4 C           4.1604   -4.4154   19.6277 C.3     1  UNL1        0.4226
      5 F           3.5305   -5.7696   19.7672 F       1  UNL1       -0.1675
      6 F           3.6368   -4.0325   20.9803 F       1  UNL1       -0.1675
      7 F           4.6840   -4.7982   18.2753 F       1  UNL1       -0.1675
      8 C           6.1511   -3.6834   19.5925 C.3     1  UNL1        0.1269
      9 C           6.6803   -3.3702   22.1168 C.2     1  UNL1        0.2502
     10 O           6.2720   -1.9298   22.0237 O.2     1  UNL1       -0.2700
     11 N           6.6198   -4.2470   20.9012 N.am    1  UNL1       -0.2982
     12 H           6.8878   -5.1923   20.9623 H       1  UNL1        0.1498
     13 N           5.4912   -2.6238   25.0627 N.pl3   1  UNL1       -0.3424
     14 C           6.6024   -3.5907   24.7796 C.ar    1  UNL1        0.1327
     15 C           7.1490   -3.9338   23.4255 C.ar    1  UNL1        0.1053
     16 C           8.2466   -4.9394   23.6099 C.ar    1  UNL1        0.1278
     17 N           8.3784   -5.2178   25.0779 N.ar    1  UNL1       -0.1622
     18 N           7.3623   -4.3843   25.8008 N.ar    1  UNL1       -0.2163
     19 H           5.0516   -2.1482   24.3212 H       1  UNL1        0.1437
     20 H           5.2015   -2.4647   25.9901 H       1  UNL1        0.1437
     21 C           7.1442   -4.3502   27.2845 C.ar    1  UNL1        0.0843
     22 C           7.0292   -3.0346   27.9956 C.ar    1  UNL1        0.0215
     23 C           6.8111   -3.0005   29.4793 C.ar    1  UNL1        0.0312
     24 C           6.7081   -4.2822   30.2518 C.ar    1  UNL1        0.1402
     25 F           6.4900   -4.2480   31.7355 F       1  UNL1       -0.2042
     26 C           6.8231   -5.5978   29.5407 C.ar    1  UNL1        0.0312
     27 C           7.0412   -5.6319   28.0570 C.ar    1  UNL1        0.0215
     28 C           3.4293   -2.4389   19.3840 C.3     1  UNL1        0.1308
     29 N           3.2792   -0.9480   19.4514 N.am    1  UNL1       -0.2706
     30 C           3.3365   -0.1309   18.1947 C.2     1  UNL1        0.2536
     31 O           3.5439   -0.8047   16.8708 O.2     1  UNL1       -0.2697
     32 C           3.1864    1.3600   18.2621 C.ar    1  UNL1        0.1083
     33 C           1.8195    1.9737   18.3327 C.ar    1  UNL1        0.1467
     34 F           0.6028    1.0965   18.3360 F       1  UNL1       -0.2039
     35 C           1.6693    3.4647   18.4001 C.ar    1  UNL1        0.0299
     36 C           2.8860    4.3419   18.3969 C.ar    1  UNL1        0.0046
     37 C           4.2530    3.7282   18.3263 C.ar    1  UNL1        0.0299
     38 C           4.4031    2.2373   18.2589 C.ar    1  UNL1        0.1467
     39 F           5.7700    1.6236   18.1883 F       1  UNL1       -0.2039
     40 C           3.0717   -0.2742   20.7753 C.3     1  UNL1        0.1255
     41 C           2.8105   -1.0962   22.0025 C.3     1  UNL1        0.1586
     42 O           3.8562   -1.1990   23.0730 O.3     1  UNL1       -0.3802
     43 H           4.6302   -1.6686   22.7248 H       1  UNL1        0.2105
@<TRIPOS>BOND
     1    13    14    1
     2    14    15   ar
     3    15     9    1
     4     9    10    2
     5     9    11   am
     6    11     8    1
     7     8     1    1
     8     1     2    1
     9     1    28    1
    10    28    29    1
    11    29    40    1
    12    40    41    1
    13    41    42    1
    14    29    30   am
    15    30    31    2
    16    30    32    1
    17    32    33   ar
    18    33    34    1
    19    33    35   ar
    20    35    36   ar
    21    36    37   ar
    22    37    38   ar
    23    38    39    1
    24     1     4    1
    25     4     5    1
    26     4     6    1
    27     4     7    1
    28    15    16   ar
    29    16    17   ar
    30    17    18   ar
    31    18    21    1
    32    21    22   ar
    33    22    23   ar
    34    23    24   ar
    35    24    25    1
    36    24    26   ar
    37    26    27   ar
    38    18    14   ar
    39    27    21   ar
    40    38    32   ar
    41    13    19    1
    42    13    20    1
    43    11    12    1
    44     2     3    1
    45    42    43    1
@<TRIPOS>MOLECULE
*****
 43 45 0 0 0
SMALL
GASTEIGER

@<TRIPOS>ATOM
      1 C           0.8194    0.6089   19.8486 C.3     1  UNL1        0.2120
      2 O          -0.2296    0.0815   20.7820 O.3     1  UNL1       -0.3763
      3 H          -0.6029   -0.7371   20.4195 H       1  UNL1        0.2107
      4 C           1.8685    1.1363   18.9151 C.3     1  UNL1        0.4226
      5 F           2.9175    1.6636   17.9816 F       1  UNL1       -0.1675
      6 F           1.3213    0.2764   17.8145 F       1  UNL1       -0.1675
      7 F           2.4156    1.9960   20.0157 F       1  UNL1       -0.1675
      8 C           0.2471    1.9886   19.9849 C.3     1  UNL1        0.1269
      9 C          -2.0100    3.1962   20.4288 C.2     1  UNL1        0.2502
     10 O          -1.8661    3.9409   19.1346 O.2     1  UNL1       -0.2700
     11 N          -0.9534    2.2201   20.8539 N.am    1  UNL1       -0.2982
     12 H          -1.0479    1.7314   21.7033 H       1  UNL1        0.1498
     13 N          -2.0150    4.6701   23.3404 N.pl3   1  UNL1       -0.3424
     14 C          -3.2128    4.1052   22.6361 C.ar    1  UNL1        0.1327
     15 C          -3.2105    3.4277   21.2978 C.ar    1  UNL1        0.1053
     16 C          -4.6196    3.0224   20.9811 C.ar    1  UNL1        0.1278
     17 N          -5.4927    3.4494   22.1236 N.ar    1  UNL1       -0.1622
     18 N          -4.6233    4.1186   23.1465 N.ar    1  UNL1       -0.2163
     19 H          -1.1256    4.6128   22.9220 H       1  UNL1        0.1437
     20 H          -2.1181    5.0982   24.2209 H       1  UNL1        0.1437
     21 C          -5.0834    4.6992   24.4508 C.ar    1  UNL1        0.0843
     22 C          -4.4978    4.2046   25.7401 C.ar    1  UNL1        0.0215
     23 C          -4.9579    4.7852   27.0443 C.ar    1  UNL1        0.0312
     24 C          -6.0037    5.8605   27.0593 C.ar    1  UNL1        0.1402
     25 F          -6.4638    6.4410   28.3636 F       1  UNL1       -0.2042
     26 C          -6.5894    6.3551   25.7700 C.ar    1  UNL1        0.0312
     27 C          -6.1292    5.7744   24.4657 C.ar    1  UNL1        0.0215
     28 C           1.3918   -0.7710   19.7122 C.3     1  UNL1        0.1308
     29 N           2.6682   -1.1263   20.4153 N.am    1  UNL1       -0.2706
     30 C           3.8652   -1.5613   19.6226 C.2     1  UNL1        0.2536
     31 O           3.7855   -1.6408   18.1269 O.2     1  UNL1       -0.2697
     32 C           5.1416   -1.9166   20.3257 C.ar    1  UNL1        0.1083
     33 C           5.4101   -3.3388   20.7194 C.ar    1  UNL1        0.1467
     34 F           4.4022   -4.4058   20.4100 F       1  UNL1       -0.2039
     35 C           6.6866   -3.6942   21.4225 C.ar    1  UNL1        0.0299
     36 C           7.6946   -2.6273   21.7319 C.ar    1  UNL1        0.0046
     37 C           7.4260   -1.2050   21.3382 C.ar    1  UNL1        0.0299
     38 C           6.1495   -0.8497   20.6351 C.ar    1  UNL1        0.1467
     39 F           5.8810    0.5726   20.2415 F       1  UNL1       -0.2039
     40 C           2.7478   -1.0467   21.9111 C.3     1  UNL1        0.1255
     41 C           2.9397    0.2808   22.5824 C.3     1  UNL1        0.1586
     42 O           1.7501    1.0538   23.0697 O.3     1  UNL1       -0.3802
     43 H           1.2123    1.3314   22.3116 H       1  UNL1        0.2105
@<TRIPOS>BOND
     1    13    14    1
     2    14    15   ar
     3    15     9    1
     4     9    10    2
     5     9    11   am
     6    11     8    1
     7     8     1    1
     8     1     2    1
     9     1    28    1
    10    28    29    1
    11    29    40    1
    12    40    41    1
    13    41    42    1
    14    29    30   am
    15    30    31    2
    16    30    32    1
    17    32    33   ar
    18    33    34    1
    19    33    35   ar
    20    35    36   ar
    21    36    37   ar
    22    37    38   ar
    23    38    39    1
    24     1     4    1
    25     4     5    1
    26     4     6    1
    27     4     7    1
    28    15    16   ar
    29    16    17   ar
    30    17    18   ar
    31    18    21    1
    32    21    22   ar
    33    22    23   ar
    34    23    24   ar
    35    24    25    1
    36    24    26   ar
    37    26    27   ar
    38    18    14   ar
    39    27    21   ar
    40    38    32   ar
    41    13    19    1
    42    13    20    1
    43    11    12    1
    44     2     3    1
    45    42    43    1
@<TRIPOS>MOLECULE
*****
 43 45 0 0 0
SMALL
GASTEIGER

@<TRIPOS>ATOM
      1 C           5.3428   -3.3071   20.2005 C.3     1  UNL1        0.2120
      2 O           4.5231   -3.6907   21.3967 O.3     1  UNL1       -0.3763
      3 H           3.9093   -2.9712   21.6122 H       1  UNL1        0.2107
      4 C           6.1624   -2.9235   19.0043 C.3     1  UNL1        0.4226
      5 F           6.9822   -2.5399   17.8080 F       1  UNL1       -0.1675
      6 F           6.9836   -2.0061   19.8612 F       1  UNL1       -0.1675
      7 F           5.3413   -3.8408   18.1474 F       1  UNL1       -0.1675
      8 C           6.5802   -3.7996   20.8905 C.3     1  UNL1        0.1269
      9 C           7.4446   -4.5788   23.2133 C.2     1  UNL1        0.2502
     10 O           7.9252   -5.8625   22.6038 O.2     1  UNL1       -0.2700
     11 N           6.7722   -3.5474   22.3566 N.am    1  UNL1       -0.2982
     12 H           6.4568   -2.7049   22.7566 H       1  UNL1        0.1498
     13 N           7.7531   -6.8588   25.5276 N.pl3   1  UNL1       -0.3424
     14 C           7.7784   -5.3747   25.7432 C.ar    1  UNL1        0.1327
     15 C           7.6366   -4.3266   24.6794 C.ar    1  UNL1        0.1053
     16 C           7.7205   -2.9821   25.3392 C.ar    1  UNL1        0.1278
     17 N           7.9142   -3.1992   26.8108 N.ar    1  UNL1       -0.1622
     18 N           7.9500   -4.6778   27.0604 N.ar    1  UNL1       -0.2163
     19 H           7.6348   -7.2225   24.6204 H       1  UNL1        0.1437
     20 H           7.8549   -7.4693   26.2933 H       1  UNL1        0.1437
     21 C           8.1263   -5.3430   28.3933 C.ar    1  UNL1        0.0843
     22 C           9.3570   -6.1549   28.6693 C.ar    1  UNL1        0.0215
     23 C           9.5333   -6.8200   30.0021 C.ar    1  UNL1        0.0312
     24 C           8.4790   -6.6732   31.0590 C.ar    1  UNL1        0.1402
     25 F           8.6555   -7.3384   32.3918 F       1  UNL1       -0.2042
     26 C           7.2484   -5.8612   30.7830 C.ar    1  UNL1        0.0312
     27 C           7.0720   -5.1961   29.4501 C.ar    1  UNL1        0.0215
     28 C           4.1052   -2.8145   19.5105 C.3     1  UNL1        0.1308
     29 N           3.7623   -1.3546   19.5372 N.am    1  UNL1       -0.2706
     30 C           3.7407   -0.5657   18.2616 C.2     1  UNL1        0.2536
     31 O           4.0622   -1.2368   16.9592 O.2     1  UNL1       -0.2697
     32 C           3.3978    0.8943   18.2883 C.ar    1  UNL1        0.1083
     33 C           1.9675    1.3264   18.4209 C.ar    1  UNL1        0.1467
     34 F           0.8802    0.2985   18.5267 F       1  UNL1       -0.2039
     35 C           1.6245    2.7865   18.4477 C.ar    1  UNL1        0.0299
     36 C           2.7118    3.8144   18.3419 C.ar    1  UNL1        0.0046
     37 C           4.1422    3.3822   18.2093 C.ar    1  UNL1        0.0299
     38 C           4.4851    1.9222   18.1825 C.ar    1  UNL1        0.1467
     39 F           5.9154    1.4901   18.0499 F       1  UNL1       -0.2039
     40 C           3.4409   -0.6834   20.8396 C.3     1  UNL1        0.1255
     41 C           4.5455   -0.1347   21.6932 C.3     1  UNL1        0.1586
     42 O           5.7393    0.5089   21.0526 O.3     1  UNL1       -0.3802
     43 H           6.2363   -0.1572   20.5525 H       1  UNL1        0.2105
@<TRIPOS>BOND
     1    13    14    1
     2    14    15   ar
     3    15     9    1
     4     9    10    2
     5     9    11   am
     6    11     8    1
     7     8     1    1
     8     1     2    1
     9     1    28    1
    10    28    29    1
    11    29    40    1
    12    40    41    1
    13    41    42    1
    14    29    30   am
    15    30    31    2
    16    30    32    1
    17    32    33   ar
    18    33    34    1
    19    33    35   ar
    20    35    36   ar
    21    36    37   ar
    22    37    38   ar
    23    38    39    1
    24     1     4    1
    25     4     5    1
    26     4     6    1
    27     4     7    1
    28    15    16   ar
    29    16    17   ar
    30    17    18   ar
    31    18    21    1
    32    21    22   ar
    33    22    23   ar
    34    23    24   ar
    35    24    25    1
    36    24    26   ar
    37    26    27   ar
    38    18    14   ar
    39    27    21   ar
    40    38    32   ar
    41    13    19    1
    42    13    20    1
    43    11    12    1
    44     2     3    1
    45    42    43    1
