@<TRIPOS>MOLECULE
*****
 21 23 0 0 0
SMALL
GASTEIGER

@<TRIPOS>ATOM
      1 C          -7.8896  -18.1746   22.0902 C.2     1  UNL1       -0.0420
      2 C          -8.5213  -16.8601   22.4412 C.2     1  UNL1       -0.0224
      3 C          -9.9987  -16.9796   22.2109 C.ar    1  UNL1       -0.0078
      4 C         -11.1240  -16.0036   22.3866 C.ar    1  UNL1       -0.0006
      5 C         -12.5308  -16.4159   22.0691 C.ar    1  UNL1       -0.0000
      6 C         -12.8123  -17.8042   21.5758 C.ar    1  UNL1       -0.0003
      7 C         -11.6869  -18.7802   21.4001 C.ar    1  UNL1       -0.0040
      8 C         -10.2801  -18.3679   21.7176 C.ar    1  UNL1       -0.0184
      9 C          -8.9766  -19.1064   21.6431 C.3     1  UNL1        0.0480
     10 C          -6.4276  -18.5000   22.1721 C.3     1  UNL1        0.0394
     11 C          -5.7187  -19.0719   20.9804 C.3     1  UNL1        0.0765
     12 C          -3.3615  -18.9523   22.0665 C.3     1  UNL1        0.0897
     13 N          -4.2328  -18.9169   20.8459 N.3     1  UNL1       -0.2700
     14 C          -3.6181  -18.7266   19.4910 C.3     1  UNL1        0.0897
     15 C          -7.8018  -15.6403   22.9356 C.3     1  UNL1        0.0913
     16 C          -7.4251  -15.5269   24.3832 C.ar    1  UNL1        0.1435
     17 N          -6.0187  -15.1736   24.7667 N.ar    1  UNL1       -0.2288
     18 C          -5.6419  -15.0602   26.2141 C.ar    1  UNL1        0.1019
     19 C          -6.6716  -15.3002   27.2781 C.ar    1  UNL1        0.0413
     20 C          -8.0781  -15.6534   26.8946 C.ar    1  UNL1        0.1019
     21 N          -8.4549  -15.7668   25.4472 N.ar    1  UNL1       -0.2288
@<TRIPOS>BOND
     1    12    13    1
     2    13    14    1
     3    13    11    1
     4    11    10    1
     5    10     1    1
     6     1     2    2
     7     2    15    1
     8    15    16    1
     9    16    17   ar
    10    17    18   ar
    11    18    19   ar
    12    19    20   ar
    13    20    21   ar
    14     2     3    1
    15     3     4   ar
    16     4     5   ar
    17     5     6   ar
    18     6     7   ar
    19     7     8   ar
    20     8     9    1
    21     9     1    1
    22    21    16   ar
    23     8     3   ar
@<TRIPOS>MOLECULE
*****
 21 23 0 0 0
SMALL
GASTEIGER

@<TRIPOS>ATOM
      1 C          -7.6316  -17.8122   22.5757 C.2     1  UNL1       -0.0420
      2 C          -7.7694  -18.8689   21.5200 C.2     1  UNL1       -0.0224
      3 C          -6.3987  -19.3893   21.2032 C.ar    1  UNL1       -0.0078
      4 C          -5.9203  -20.4375   20.2429 C.ar    1  UNL1       -0.0006
      5 C          -4.4568  -20.7506   20.1423 C.ar    1  UNL1       -0.0000
      6 C          -3.4718  -20.0155   21.0022 C.ar    1  UNL1       -0.0003
      7 C          -3.9502  -18.9673   21.9625 C.ar    1  UNL1       -0.0040
      8 C          -5.4137  -18.6542   22.0630 C.ar    1  UNL1       -0.0184
      9 C          -6.1756  -17.6795   22.9112 C.3     1  UNL1        0.0480
     10 C          -8.7528  -17.0262   23.1882 C.3     1  UNL1        0.0394
     11 C          -8.8774  -16.9354   24.6802 C.3     1  UNL1        0.0765
     12 C          -8.1479  -15.8571   26.9286 C.3     1  UNL1        0.0897
     13 N          -8.1571  -15.8533   25.4285 N.3     1  UNL1       -0.2700
     14 C          -7.4459  -14.7673   24.6770 C.3     1  UNL1        0.0897
     15 C          -9.0527  -19.3251   20.8915 C.3     1  UNL1        0.0913
     16 C         -10.2580  -18.4323   20.9142 C.ar    1  UNL1        0.1435
     17 N         -10.3334  -17.2507   19.9932 N.ar    1  UNL1       -0.2288
     18 C         -11.5385  -16.3579   20.0158 C.ar    1  UNL1        0.1019
     19 C         -12.6682  -16.6466   20.9593 C.ar    1  UNL1        0.0413
     20 C         -12.5928  -17.8282   21.8803 C.ar    1  UNL1        0.1019
     21 N         -11.3877  -18.7211   21.8578 N.ar    1  UNL1       -0.2288
@<TRIPOS>BOND
     1    12    13    1
     2    13    14    1
     3    13    11    1
     4    11    10    1
     5    10     1    1
     6     1     2    2
     7     2    15    1
     8    15    16    1
     9    16    17   ar
    10    17    18   ar
    11    18    19   ar
    12    19    20   ar
    13    20    21   ar
    14     2     3    1
    15     3     4   ar
    16     4     5   ar
    17     5     6   ar
    18     6     7   ar
    19     7     8   ar
    20     8     9    1
    21     9     1    1
    22    21    16   ar
    23     8     3   ar
@<TRIPOS>MOLECULE
*****
 21 23 0 0 0
SMALL
GASTEIGER

@<TRIPOS>ATOM
      1 C          -6.6694  -16.2317   23.5647 C.2     1  UNL1       -0.0420
      2 C          -7.1403  -17.2524   22.5715 C.2     1  UNL1       -0.0224
      3 C          -5.9814  -18.1447   22.2388 C.ar    1  UNL1       -0.0078
      4 C          -5.8538  -19.3238   21.3204 C.ar    1  UNL1       -0.0006
      5 C          -4.5390  -20.0337   21.1897 C.ar    1  UNL1       -0.0000
      6 C          -3.3517  -19.5646   21.9773 C.ar    1  UNL1       -0.0003
      7 C          -3.4793  -18.3855   22.8957 C.ar    1  UNL1       -0.0040
      8 C          -4.7942  -17.6755   23.0264 C.ar    1  UNL1       -0.0184
      9 C          -5.2194  -16.4933   23.8458 C.3     1  UNL1        0.0480
     10 C          -7.5022  -15.1411   24.1704 C.3     1  UNL1        0.0394
     11 C          -8.4185  -15.4466   25.3179 C.3     1  UNL1        0.0765
     12 C          -6.6143  -15.0838   27.1519 C.3     1  UNL1        0.0897
     13 N          -7.8484  -15.7832   26.6639 N.3     1  UNL1       -0.2700
     14 C          -8.5122  -16.8191   27.5219 C.3     1  UNL1        0.0897
     15 C          -8.5268  -17.3616   22.0096 C.3     1  UNL1        0.0913
     16 C          -9.6435  -17.8839   22.8642 C.ar    1  UNL1        0.1435
     17 N         -11.0561  -17.4566   22.5960 N.ar    1  UNL1       -0.2288
     18 C         -12.1728  -17.9788   23.4506 C.ar    1  UNL1        0.1019
     19 C         -11.8767  -18.9284   24.5734 C.ar    1  UNL1        0.0413
     20 C         -10.4641  -19.3556   24.8416 C.ar    1  UNL1        0.1019
     21 N          -9.3475  -18.8334   23.9871 N.ar    1  UNL1       -0.2288
@<TRIPOS>BOND
     1    12    13    1
     2    13    14    1
     3    13    11    1
     4    11    10    1
     5    10     1    1
     6     1     2    2
     7     2    15    1
     8    15    16    1
     9    16    17   ar
    10    17    18   ar
    11    18    19   ar
    12    19    20   ar
    13    20    21   ar
    14     2     3    1
    15     3     4   ar
    16     4     5   ar
    17     5     6   ar
    18     6     7   ar
    19     7     8   ar
    20     8     9    1
    21     9     1    1
    22    21    16   ar
    23     8     3   ar
@<TRIPOS>MOLECULE
*****
 21 23 0 0 0
SMALL
GASTEIGER

@<TRIPOS>ATOM
      1 C          -5.7562  -19.8227   21.3699 C.2     1  UNL1       -0.0420
      2 C          -7.0299  -19.0751   21.1081 C.2     1  UNL1       -0.0224
      3 C          -7.7721  -19.7910   20.0187 C.ar    1  UNL1       -0.0078
      4 C          -9.0848  -19.5129   19.3483 C.ar    1  UNL1       -0.0006
      5 C          -9.5823  -20.4249   18.2664 C.ar    1  UNL1       -0.0000
      6 C          -8.7672  -21.6150   17.8549 C.ar    1  UNL1       -0.0003
      7 C          -7.4546  -21.8931   18.5254 C.ar    1  UNL1       -0.0040
      8 C          -6.9570  -20.9811   19.6073 C.ar    1  UNL1       -0.0184
      9 C          -5.7111  -21.0007   20.4424 C.3     1  UNL1        0.0480
     10 C          -4.7110  -19.4567   22.3817 C.3     1  UNL1        0.0394
     11 C          -3.5392  -18.6121   21.9775 C.3     1  UNL1        0.0765
     12 C          -4.3503  -16.7169   23.5587 C.3     1  UNL1        0.0897
     13 N          -3.4011  -17.2168   22.5103 N.3     1  UNL1       -0.2700
     14 C          -2.3138  -16.3213   21.9947 C.3     1  UNL1        0.0897
     15 C          -7.4822  -17.8301   21.8120 C.3     1  UNL1        0.0913
     16 C          -8.9390  -17.6190   22.1010 C.ar    1  UNL1        0.1435
     17 N          -9.6785  -16.4920   21.4429 N.ar    1  UNL1       -0.2288
     18 C         -11.1351  -16.2809   21.7318 C.ar    1  UNL1        0.1019
     19 C         -11.8523  -17.1968   22.6788 C.ar    1  UNL1        0.0413
     20 C         -11.1128  -18.3238   23.3368 C.ar    1  UNL1        0.1019
     21 N          -9.6562  -18.5349   23.0480 N.ar    1  UNL1       -0.2288
@<TRIPOS>BOND
     1    12    13    1
     2    13    14    1
     3    13    11    1
     4    11    10    1
     5    10     1    1
     6     1     2    2
     7     2    15    1
     8    15    16    1
     9    16    17   ar
    10    17    18   ar
    11    18    19   ar
    12    19    20   ar
    13    20    21   ar
    14     2     3    1
    15     3     4   ar
    16     4     5   ar
    17     5     6   ar
    18     6     7   ar
    19     7     8   ar
    20     8     9    1
    21     9     1    1
    22    21    16   ar
    23     8     3   ar
@<TRIPOS>MOLECULE
*****
 21 23 0 0 0
SMALL
GASTEIGER

@<TRIPOS>ATOM
      1 C         -11.7168   -3.6159   19.0257 C.2     1  UNL1       -0.0420
      2 C         -13.0810   -3.6684   19.6471 C.2     1  UNL1       -0.0224
      3 C         -13.7393   -2.3376   19.4334 C.ar    1  UNL1       -0.0078
      4 C         -15.0868   -1.8096   19.8275 C.ar    1  UNL1       -0.0006
      5 C         -15.4769   -0.4065   19.4683 C.ar    1  UNL1       -0.0000
      6 C         -14.5195    0.4685   18.7148 C.ar    1  UNL1       -0.0003
      7 C         -13.1720   -0.0595   18.3207 C.ar    1  UNL1       -0.0040
      8 C         -12.7819   -1.4626   18.6800 C.ar    1  UNL1       -0.0184
      9 C         -11.5320   -2.2526   18.4280 C.3     1  UNL1        0.0480
     10 C         -10.7136   -4.7308   19.0056 C.3     1  UNL1        0.0394
     11 C         -10.5053   -5.5298   17.7533 C.3     1  UNL1        0.0765
     12 C          -9.5112   -7.6398   18.8978 C.3     1  UNL1        0.0897
     13 N         -10.3640   -7.0212   17.8300 N.3     1  UNL1       -0.2700
     14 C         -11.0755   -7.8939   16.8390 C.3     1  UNL1        0.0897
     15 C         -13.6816   -4.8452   20.3574 C.3     1  UNL1        0.0913
     16 C         -14.4713   -5.8625   19.5882 C.ar    1  UNL1        0.1435
     17 N         -15.9580   -5.7140   19.4556 N.ar    1  UNL1       -0.2288
     18 C         -16.7478   -6.7312   18.6865 C.ar    1  UNL1        0.1019
     19 C         -16.0507   -7.8970   18.0500 C.ar    1  UNL1        0.0413
     20 C         -14.5640   -8.0455   18.1826 C.ar    1  UNL1        0.1019
     21 N         -13.7743   -7.0283   18.9517 N.ar    1  UNL1       -0.2288
@<TRIPOS>BOND
     1    12    13    1
     2    13    14    1
     3    13    11    1
     4    11    10    1
     5    10     1    1
     6     1     2    2
     7     2    15    1
     8    15    16    1
     9    16    17   ar
    10    17    18   ar
    11    18    19   ar
    12    19    20   ar
    13    20    21   ar
    14     2     3    1
    15     3     4   ar
    16     4     5   ar
    17     5     6   ar
    18     6     7   ar
    19     7     8   ar
    20     8     9    1
    21     9     1    1
    22    21    16   ar
    23     8     3   ar
@<TRIPOS>MOLECULE
*****
 21 23 0 0 0
SMALL
GASTEIGER

@<TRIPOS>ATOM
      1 C          -6.4181  -19.1306   19.9695 C.2     1  UNL1       -0.0420
      2 C          -6.7405  -18.9899   21.4277 C.2     1  UNL1       -0.0224
      3 C          -8.2043  -19.2638   21.6073 C.ar    1  UNL1       -0.0078
      4 C          -9.0822  -19.2710   22.8236 C.ar    1  UNL1       -0.0006
      5 C         -10.5424  -19.5882   22.6926 C.ar    1  UNL1       -0.0000
      6 C         -11.1247  -19.8982   21.3455 C.ar    1  UNL1       -0.0003
      7 C         -10.2468  -19.8910   20.1293 C.ar    1  UNL1       -0.0040
      8 C          -8.7866  -19.5738   20.2602 C.ar    1  UNL1       -0.0184
      9 C          -7.6827  -19.4915   19.2480 C.3     1  UNL1        0.0480
     10 C          -5.0682  -18.9433   19.3429 C.3     1  UNL1        0.0394
     11 C          -3.9303  -19.8402   19.7310 C.3     1  UNL1        0.0765
     12 C          -2.2493  -19.5419   21.6894 C.3     1  UNL1        0.0897
     13 N          -2.6637  -19.2510   20.2774 N.3     1  UNL1       -0.2700
     14 C          -1.8115  -18.3709   19.4119 C.3     1  UNL1        0.0897
     15 C          -5.7696  -18.6371   22.5153 C.3     1  UNL1        0.0913
     16 C          -5.9321  -17.3566   23.2794 C.ar    1  UNL1        0.1435
     17 N          -4.9340  -16.9808   24.3342 N.ar    1  UNL1       -0.2288
     18 C          -5.0964  -15.7003   25.0983 C.ar    1  UNL1        0.1019
     19 C          -6.2570  -14.7956   24.8077 C.ar    1  UNL1        0.0413
     20 C          -7.2551  -15.1713   23.7529 C.ar    1  UNL1        0.1019
     21 N          -7.0927  -16.4518   22.9887 N.ar    1  UNL1       -0.2288
@<TRIPOS>BOND
     1    12    13    1
     2    13    14    1
     3    13    11    1
     4    11    10    1
     5    10     1    1
     6     1     2    2
     7     2    15    1
     8    15    16    1
     9    16    17   ar
    10    17    18   ar
    11    18    19   ar
    12    19    20   ar
    13    20    21   ar
    14     2     3    1
    15     3     4   ar
    16     4     5   ar
    17     5     6   ar
    18     6     7   ar
    19     7     8   ar
    20     8     9    1
    21     9     1    1
    22    21    16   ar
    23     8     3   ar
@<TRIPOS>MOLECULE
*****
 21 23 0 0 0
SMALL
GASTEIGER

@<TRIPOS>ATOM
      1 C         -14.5058   -5.9706   19.3105 C.2     1  UNL1       -0.0420
      2 C         -13.4280   -4.9985   19.6893 C.2     1  UNL1       -0.0224
      3 C         -12.1236   -5.5275   19.1710 C.ar    1  UNL1       -0.0078
      4 C         -10.7236   -4.9941   19.2453 C.ar    1  UNL1       -0.0006
      5 C          -9.5952   -5.7598   18.6204 C.ar    1  UNL1       -0.0000
      6 C          -9.8668   -7.0588   17.9213 C.ar    1  UNL1       -0.0003
      7 C         -11.2668   -7.5922   17.8470 C.ar    1  UNL1       -0.0040
      8 C         -12.3952   -6.8265   18.4718 C.ar    1  UNL1       -0.0184
      9 C         -13.8674   -7.1004   18.5581 C.3     1  UNL1        0.0480
     10 C         -15.9656   -5.8365   19.6284 C.3     1  UNL1        0.0394
     11 C         -16.9549   -6.7896   19.0261 C.3     1  UNL1        0.0765
     12 C         -16.5673   -9.1020   20.1452 C.3     1  UNL1        0.0897
     13 N         -17.4695   -7.9452   19.8322 N.3     1  UNL1       -0.2700
     14 C         -18.8861   -7.9440   20.3253 C.3     1  UNL1        0.0897
     15 C         -13.6208   -3.7217   20.4525 C.3     1  UNL1        0.0913
     16 C         -13.6524   -2.4104   19.7246 C.ar    1  UNL1        0.1435
     17 N         -12.4044   -1.8766   19.0863 N.ar    1  UNL1       -0.2288
     18 C         -12.4360   -0.5654   18.3585 C.ar    1  UNL1        0.1019
     19 C         -13.7157    0.2121   18.2691 C.ar    1  UNL1        0.0413
     20 C         -14.9637   -0.3217   18.9074 C.ar    1  UNL1        0.1019
     21 N         -14.9321   -1.6329   19.6352 N.ar    1  UNL1       -0.2288
@<TRIPOS>BOND
     1    12    13    1
     2    13    14    1
     3    13    11    1
     4    11    10    1
     5    10     1    1
     6     1     2    2
     7     2    15    1
     8    15    16    1
     9    16    17   ar
    10    17    18   ar
    11    18    19   ar
    12    19    20   ar
    13    20    21   ar
    14     2     3    1
    15     3     4   ar
    16     4     5   ar
    17     5     6   ar
    18     6     7   ar
    19     7     8   ar
    20     8     9    1
    21     9     1    1
    22    21    16   ar
    23     8     3   ar
@<TRIPOS>MOLECULE
*****
 21 23 0 0 0
SMALL
GASTEIGER

@<TRIPOS>ATOM
      1 C          -3.6588  -19.7031   20.9576 C.2     1  UNL1       -0.0420
      2 C          -4.3908  -19.0430   22.0883 C.2     1  UNL1       -0.0224
      3 C          -5.8542  -19.0482   21.7589 C.ar    1  UNL1       -0.0078
      4 C          -7.0520  -18.5346   22.5016 C.ar    1  UNL1       -0.0006
      5 C          -8.4221  -18.6843   21.9099 C.ar    1  UNL1       -0.0000
      6 C          -8.5946  -19.3475   20.5756 C.ar    1  UNL1       -0.0003
      7 C          -7.3968  -19.8611   19.8329 C.ar    1  UNL1       -0.0040
      8 C          -6.0266  -19.7114   20.4246 C.ar    1  UNL1       -0.0184
      9 C          -4.6698  -20.1161   19.9294 C.3     1  UNL1        0.0480
     10 C          -2.1761  -19.9132   20.8705 C.3     1  UNL1        0.0394
     11 C          -1.2888  -18.8050   20.3861 C.3     1  UNL1        0.0765
     12 C          -2.4831  -17.1745   18.7535 C.3     1  UNL1        0.0897
     13 N          -1.8690  -17.4531   20.0935 N.3     1  UNL1       -0.2700
     14 C          -1.8353  -16.3798   21.1408 C.3     1  UNL1        0.0897
     15 C          -3.7687  -18.4772   23.3304 C.3     1  UNL1        0.0913
     16 C          -4.3855  -17.2864   24.0027 C.ar    1  UNL1        0.1435
     17 N          -4.4900  -17.2401   25.4983 N.ar    1  UNL1       -0.2288
     18 C          -5.1068  -16.0495   26.1705 C.ar    1  UNL1        0.1019
     19 C          -5.6190  -14.9051   25.3471 C.ar    1  UNL1        0.0413
     20 C          -5.5144  -14.9514   23.8515 C.ar    1  UNL1        0.1019
     21 N          -4.8977  -16.1420   23.1792 N.ar    1  UNL1       -0.2288
@<TRIPOS>BOND
     1    12    13    1
     2    13    14    1
     3    13    11    1
     4    11    10    1
     5    10     1    1
     6     1     2    2
     7     2    15    1
     8    15    16    1
     9    16    17   ar
    10    17    18   ar
    11    18    19   ar
    12    19    20   ar
    13    20    21   ar
    14     2     3    1
    15     3     4   ar
    16     4     5   ar
    17     5     6   ar
    18     6     7   ar
    19     7     8   ar
    20     8     9    1
    21     9     1    1
    22    21    16   ar
    23     8     3   ar
@<TRIPOS>MOLECULE
*****
 21 23 0 0 0
SMALL
GASTEIGER

@<TRIPOS>ATOM
      1 C         -15.3260   -4.8949   18.9942 C.2     1  UNL1       -0.0420
      2 C         -14.5475   -5.9185   18.2222 C.2     1  UNL1       -0.0224
      3 C         -15.2070   -7.2507   18.4229 C.ar    1  UNL1       -0.0078
      4 C         -14.8807   -8.6203   17.9054 C.ar    1  UNL1       -0.0006
      5 C         -15.7405   -9.7896   18.2840 C.ar    1  UNL1       -0.0000
      6 C         -16.9267   -9.5893   19.1801 C.ar    1  UNL1       -0.0003
      7 C         -17.2530   -8.2197   19.6975 C.ar    1  UNL1       -0.0040
      8 C         -16.3932   -7.0505   19.3189 C.ar    1  UNL1       -0.0184
      9 C         -16.4667   -5.5945   19.6720 C.3     1  UNL1        0.0480
     10 C         -15.0180   -3.4290   19.0744 C.3     1  UNL1        0.0394
     11 C         -13.6450   -2.9717   19.4688 C.3     1  UNL1        0.0765
     12 C         -11.4864   -1.6251   18.9417 C.3     1  UNL1        0.0897
     13 N         -12.8257   -2.1510   18.5173 N.3     1  UNL1       -0.2700
     14 C         -13.3455   -1.8562   17.1415 C.3     1  UNL1        0.0897
     15 C         -13.3242   -5.6561   17.3948 C.3     1  UNL1        0.0913
     16 C         -11.9989   -6.2184   17.8161 C.ar    1  UNL1        0.1435
     17 N         -11.5614   -7.5631   17.3156 N.ar    1  UNL1       -0.2288
     18 C         -10.2362   -8.1255   17.7369 C.ar    1  UNL1        0.1019
     19 C          -9.3484   -7.3431   18.6587 C.ar    1  UNL1        0.0413
     20 C          -9.7858   -5.9985   19.1592 C.ar    1  UNL1        0.1019
     21 N         -11.1110   -5.4361   18.7379 N.ar    1  UNL1       -0.2288
@<TRIPOS>BOND
     1    12    13    1
     2    13    14    1
     3    13    11    1
     4    11    10    1
     5    10     1    1
     6     1     2    2
     7     2    15    1
     8    15    16    1
     9    16    17   ar
    10    17    18   ar
    11    18    19   ar
    12    19    20   ar
    13    20    21   ar
    14     2     3    1
    15     3     4   ar
    16     4     5   ar
    17     5     6   ar
    18     6     7   ar
    19     7     8   ar
    20     8     9    1
    21     9     1    1
    22    21    16   ar
    23     8     3   ar
