@<TRIPOS>MOLECULE
*****
 22 23 0 0 0
SMALL
GASTEIGER

@<TRIPOS>ATOM
      1 C          -8.4324  -16.5047   22.9227 C.3     1  UNL1        0.1114
      2 C          -8.4174  -16.5049   24.4226 C.ar    1  UNL1        0.2403
      3 C          -7.6071  -15.4838   25.1647 C.ar    1  UNL1        0.2280
      4 O          -6.8116  -14.4625   24.4068 O.3     1  UNL1       -0.4992
      5 C          -7.5921  -15.4839   26.6646 C.ar    1  UNL1        0.1795
      6 O          -6.7817  -14.4628   27.4067 O.3     1  UNL1       -0.5026
      7 C          -8.3874  -16.5052   27.4225 C.ar    1  UNL1        0.1155
      8 C          -9.1978  -17.5263   26.6804 C.ar    1  UNL1        0.2929
      9 N          -9.2128  -17.5261   25.1805 N.ar    1  UNL1       -0.1689
     10 H          -6.8210  -14.4624   23.4699 H       1  UNL1        0.2925
     11 H          -6.2848  -13.8248   26.9332 H       1  UNL1        0.2923
     12 C         -10.0232  -18.5473   24.4385 C.3     1  UNL1        0.2849
     13 C          -9.5006  -19.9436   24.2733 C.3     1  UNL1        0.2162
     14 O          -9.8650  -21.0036   25.2701 O.3     1  UNL1       -0.3762
     15 H          -9.4754  -20.7853   26.1312 H       1  UNL1        0.2107
     16 C         -11.3560  -18.1721   23.8617 C.3     1  UNL1        0.1068
     17 C         -11.4632  -17.7699   22.4205 C.ar    1  UNL1       -0.0153
     18 C         -10.9372  -18.6767   21.3477 C.ar    1  UNL1       -0.0040
     19 C         -11.0444  -18.2745   19.9066 C.ar    1  UNL1       -0.0003
     20 C         -11.6775  -16.9655   19.5384 C.ar    1  UNL1       -0.0000
     21 C         -12.2035  -16.0587   20.6113 C.ar    1  UNL1       -0.0003
     22 C         -12.0963  -16.4609   22.0523 C.ar    1  UNL1       -0.0040
@<TRIPOS>UNITY_ATOM_ATTR
9 1
charge 1
@<TRIPOS>BOND
     1     1     2    1
     2     2     3   ar
     3     3     4    1
     4     3     5   ar
     5     5     6    1
     6     5     7   ar
     7     7     8   ar
     8     8     9   ar
     9     9    12    1
    10    12    13    1
    11    13    14    1
    12    12    16    1
    13    16    17    1
    14    17    18   ar
    15    18    19   ar
    16    19    20   ar
    17    20    21   ar
    18    21    22   ar
    19     9     2   ar
    20    22    17   ar
    21     4    10    1
    22     6    11    1
    23    14    15    1
@<TRIPOS>MOLECULE
*****
 22 23 0 0 0
SMALL
GASTEIGER

@<TRIPOS>ATOM
      1 C          -9.4100  -16.2349   22.7750 C.3     1  UNL1        0.1114
      2 C          -9.0920  -16.4219   24.2290 C.ar    1  UNL1        0.2403
      3 C          -8.2211  -15.4290   24.9400 C.ar    1  UNL1        0.2280
      4 O          -7.6681  -14.2490   24.1971 O.3     1  UNL1       -0.4992
      5 C          -7.9031  -15.6160   26.3939 C.ar    1  UNL1        0.1795
      6 O          -7.0321  -14.6231   27.1049 O.3     1  UNL1       -0.5026
      7 C          -8.4560  -16.7960   27.1368 C.ar    1  UNL1        0.1155
      8 C          -9.3269  -17.7889   26.4258 C.ar    1  UNL1        0.2929
      9 N          -9.6449  -17.6018   24.9719 N.ar    1  UNL1       -0.1689
     10 H          -7.8667  -14.1321   23.2888 H       1  UNL1        0.2925
     11 H          -6.6867  -13.8860   26.6408 H       1  UNL1        0.2923
     12 C         -10.5159  -18.5948   24.2609 C.3     1  UNL1        0.2849
     13 C         -12.0052  -18.4160   24.2533 C.3     1  UNL1        0.2162
     14 O         -12.6810  -17.8042   23.0621 O.3     1  UNL1       -0.3762
     15 H         -12.4059  -16.8781   22.9746 H       1  UNL1        0.2107
     16 C          -9.8976  -19.7665   23.5575 C.3     1  UNL1        0.1068
     17 C          -9.5403  -19.6657   22.1041 C.ar    1  UNL1       -0.0153
     18 C          -8.1059  -19.5111   21.6935 C.ar    1  UNL1       -0.0040
     19 C          -7.7485  -19.4103   20.2402 C.ar    1  UNL1       -0.0003
     20 C          -8.8255  -19.4641   19.1976 C.ar    1  UNL1       -0.0000
     21 C         -10.2599  -19.6186   19.6082 C.ar    1  UNL1       -0.0003
     22 C         -10.6173  -19.7195   21.0615 C.ar    1  UNL1       -0.0040
@<TRIPOS>UNITY_ATOM_ATTR
9 1
charge 1
@<TRIPOS>BOND
     1     1     2    1
     2     2     3   ar
     3     3     4    1
     4     3     5   ar
     5     5     6    1
     6     5     7   ar
     7     7     8   ar
     8     8     9   ar
     9     9    12    1
    10    12    13    1
    11    13    14    1
    12    12    16    1
    13    16    17    1
    14    17    18   ar
    15    18    19   ar
    16    19    20   ar
    17    20    21   ar
    18    21    22   ar
    19     9     2   ar
    20    22    17   ar
    21     4    10    1
    22     6    11    1
    23    14    15    1
@<TRIPOS>MOLECULE
*****
 22 23 0 0 0
SMALL
GASTEIGER

@<TRIPOS>ATOM
      1 C         -10.4084  -16.3140   20.6475 C.3     1  UNL1        0.1114
      2 C         -10.8459  -17.0416   21.8841 C.ar    1  UNL1        0.2403
      3 C         -12.3004  -17.3311   22.1090 C.ar    1  UNL1        0.2280
      4 O         -13.3175  -16.8929   21.0972 O.3     1  UNL1       -0.4992
      5 C         -12.7378  -18.0587   23.3456 C.ar    1  UNL1        0.1795
      6 O         -14.1924  -18.3481   23.5704 O.3     1  UNL1       -0.5026
      7 C         -11.7208  -18.4969   24.3573 C.ar    1  UNL1        0.1155
      8 C         -10.2663  -18.2074   24.1324 C.ar    1  UNL1        0.2929
      9 N          -9.8288  -17.4798   22.8958 N.ar    1  UNL1       -0.1689
     10 H         -13.0442  -16.4384   20.3248 H       1  UNL1        0.2925
     11 H         -14.8277  -18.0744   22.9384 H       1  UNL1        0.2923
     12 C          -8.3743  -17.1904   22.6710 C.3     1  UNL1        0.2849
     13 C          -7.4976  -18.2171   22.0173 C.3     1  UNL1        0.2162
     14 O          -7.1711  -18.1047   20.5576 O.3     1  UNL1       -0.3762
     15 H          -7.9795  -18.2252   20.0352 H       1  UNL1        0.2107
     16 C          -7.7964  -15.8743   23.0998 C.3     1  UNL1        0.1068
     17 C          -7.4065  -15.6573   24.5320 C.ar    1  UNL1       -0.0153
     18 C          -5.9595  -15.5218   24.9030 C.ar    1  UNL1       -0.0040
     19 C          -5.5695  -15.3048   26.3351 C.ar    1  UNL1       -0.0003
     20 C          -6.6267  -15.2234   27.3961 C.ar    1  UNL1       -0.0000
     21 C          -8.0737  -15.3590   27.0250 C.ar    1  UNL1       -0.0003
     22 C          -8.4636  -15.5760   25.5930 C.ar    1  UNL1       -0.0040
@<TRIPOS>UNITY_ATOM_ATTR
9 1
charge 1
@<TRIPOS>BOND
     1     1     2    1
     2     2     3   ar
     3     3     4    1
     4     3     5   ar
     5     5     6    1
     6     5     7   ar
     7     7     8   ar
     8     8     9   ar
     9     9    12    1
    10    12    13    1
    11    13    14    1
    12    12    16    1
    13    16    17    1
    14    17    18   ar
    15    18    19   ar
    16    19    20   ar
    17    20    21   ar
    18    21    22   ar
    19     9     2   ar
    20    22    17   ar
    21     4    10    1
    22     6    11    1
    23    14    15    1
@<TRIPOS>MOLECULE
*****
 22 23 0 0 0
SMALL
GASTEIGER

@<TRIPOS>ATOM
      1 C          -7.3880  -18.7271   22.5474 C.3     1  UNL1        0.1114
      2 C          -8.7553  -18.7487   21.9309 C.ar    1  UNL1        0.2403
      3 C          -8.9395  -19.2596   20.5327 C.ar    1  UNL1        0.2280
      4 O          -7.7564  -19.7489   19.7509 O.3     1  UNL1       -0.4992
      5 C         -10.3067  -19.2812   19.9161 C.ar    1  UNL1        0.1795
      6 O         -10.4909  -19.7921   18.5178 O.3     1  UNL1       -0.5026
      7 C         -11.4898  -18.7919   20.6977 C.ar    1  UNL1        0.1155
      8 C         -11.3055  -18.2810   22.0959 C.ar    1  UNL1        0.2929
      9 N          -9.9383  -18.2595   22.7125 N.ar    1  UNL1       -0.1689
     10 H          -6.9023  -19.7354   20.1361 H       1  UNL1        0.2925
     11 H          -9.7519  -20.0977   18.0295 H       1  UNL1        0.2923
     12 C          -9.7541  -17.7485   24.1108 C.3     1  UNL1        0.2849
     13 C          -9.8907  -18.6842   25.2752 C.3     1  UNL1        0.2162
     14 O         -10.7111  -19.9328   25.1418 O.3     1  UNL1       -0.3762
     15 H         -11.6429  -19.6954   25.0142 H       1  UNL1        0.2107
     16 C          -9.4334  -16.3020   24.3446 C.3     1  UNL1        0.1068
     17 C          -8.1269  -15.9154   24.9721 C.ar    1  UNL1       -0.0153
     18 C          -8.0166  -15.7987   26.4635 C.ar    1  UNL1       -0.0040
     19 C          -6.7102  -15.4121   27.0909 C.ar    1  UNL1       -0.0003
     20 C          -5.5141  -15.1421   26.2270 C.ar    1  UNL1       -0.0000
     21 C          -5.6244  -15.2588   24.7356 C.ar    1  UNL1       -0.0003
     22 C          -6.9308  -15.6454   24.1082 C.ar    1  UNL1       -0.0040
@<TRIPOS>UNITY_ATOM_ATTR
9 1
charge 1
@<TRIPOS>BOND
     1     1     2    1
     2     2     3   ar
     3     3     4    1
     4     3     5   ar
     5     5     6    1
     6     5     7   ar
     7     7     8   ar
     8     8     9   ar
     9     9    12    1
    10    12    13    1
    11    13    14    1
    12    12    16    1
    13    16    17    1
    14    17    18   ar
    15    18    19   ar
    16    19    20   ar
    17    20    21   ar
    18    21    22   ar
    19     9     2   ar
    20    22    17   ar
    21     4    10    1
    22     6    11    1
    23    14    15    1
@<TRIPOS>MOLECULE
*****
 22 23 0 0 0
SMALL
GASTEIGER

@<TRIPOS>ATOM
      1 C          -7.7074  -16.6555   22.4563 C.3     1  UNL1        0.1114
      2 C          -8.8144  -17.6658   22.5207 C.ar    1  UNL1        0.2403
      3 C         -10.1278  -17.3003   23.1462 C.ar    1  UNL1        0.2280
      4 O         -10.3344  -15.9246   23.7072 O.3     1  UNL1       -0.4992
      5 C         -11.2348  -18.3105   23.2106 C.ar    1  UNL1        0.1795
      6 O         -12.5483  -17.9450   23.8360 O.3     1  UNL1       -0.5026
      7 C         -11.0282  -19.6862   22.6495 C.ar    1  UNL1        0.1155
      8 C          -9.7148  -20.0517   22.0241 C.ar    1  UNL1        0.2929
      9 N          -8.6078  -19.0415   21.9597 N.ar    1  UNL1       -0.1689
     10 H          -9.6430  -15.2935   23.6670 H       1  UNL1        0.2925
     11 H         -12.6773  -17.0856   24.1865 H       1  UNL1        0.2923
     12 C          -7.2943  -19.4070   21.3343 C.3     1  UNL1        0.2849
     13 C          -7.0782  -19.1943   19.8652 C.3     1  UNL1        0.2162
     14 O          -8.2491  -19.1892   18.9278 O.3     1  UNL1       -0.3762
     15 H          -8.6502  -20.0722   18.9067 H       1  UNL1        0.2107
     16 C          -6.1970  -19.9852   22.1778 C.3     1  UNL1        0.1068
     17 C          -4.7999  -19.4520   22.0597 C.ar    1  UNL1       -0.0153
     18 C          -4.3613  -18.3015   22.9164 C.ar    1  UNL1       -0.0040
     19 C          -2.9643  -17.7683   22.7983 C.ar    1  UNL1       -0.0003
     20 C          -2.0059  -18.3856   21.8234 C.ar    1  UNL1       -0.0000
     21 C          -2.4445  -19.5360   20.9667 C.ar    1  UNL1       -0.0003
     22 C          -3.8416  -20.0692   21.0848 C.ar    1  UNL1       -0.0040
@<TRIPOS>UNITY_ATOM_ATTR
9 1
charge 1
@<TRIPOS>BOND
     1     1     2    1
     2     2     3   ar
     3     3     4    1
     4     3     5   ar
     5     5     6    1
     6     5     7   ar
     7     7     8   ar
     8     8     9   ar
     9     9    12    1
    10    12    13    1
    11    13    14    1
    12    12    16    1
    13    16    17    1
    14    17    18   ar
    15    18    19   ar
    16    19    20   ar
    17    20    21   ar
    18    21    22   ar
    19     9     2   ar
    20    22    17   ar
    21     4    10    1
    22     6    11    1
    23    14    15    1
@<TRIPOS>MOLECULE
*****
 22 23 0 0 0
SMALL
GASTEIGER

@<TRIPOS>ATOM
      1 C         -14.7570   -9.2654   18.5327 C.3     1  UNL1        0.1114
      2 C         -16.0455   -8.6438   18.9836 C.ar    1  UNL1        0.2403
      3 C         -17.1990   -9.5153   19.3836 C.ar    1  UNL1        0.2280
      4 O         -17.0640  -11.0084   19.3327 O.3     1  UNL1       -0.4992
      5 C         -18.4875   -8.8937   19.8346 C.ar    1  UNL1        0.1795
      6 O         -19.6410   -9.7652   20.2346 O.3     1  UNL1       -0.5026
      7 C         -18.6225   -7.4007   19.8855 C.ar    1  UNL1        0.1155
      8 C         -17.4690   -6.5292   19.4855 C.ar    1  UNL1        0.2929
      9 N         -16.1805   -7.1508   19.0346 N.ar    1  UNL1       -0.1689
     10 H         -16.2591  -11.3967   19.0510 H       1  UNL1        0.2925
     11 H         -19.5567  -10.6978   20.2027 H       1  UNL1        0.2923
     12 C         -15.0270   -6.2793   18.6346 C.3     1  UNL1        0.2849
     13 C         -14.8972   -5.8116   17.2153 C.3     1  UNL1        0.2162
     14 O         -14.1728   -6.6572   16.2102 O.3     1  UNL1       -0.3762
     15 H         -13.2344   -6.7114   16.4497 H       1  UNL1        0.2107
     16 C         -14.0033   -5.8756   19.6539 C.3     1  UNL1        0.1068
     17 C         -12.5589   -5.7667   19.2639 C.ar    1  UNL1       -0.0153
     18 C         -11.8973   -4.4218   19.2049 C.ar    1  UNL1       -0.0040
     19 C         -10.4531   -4.3129   18.8149 C.ar    1  UNL1       -0.0003
     20 C          -9.6704   -5.5489   18.4839 C.ar    1  UNL1       -0.0000
     21 C         -10.3319   -6.8938   18.5429 C.ar    1  UNL1       -0.0003
     22 C         -11.7762   -7.0027   18.9329 C.ar    1  UNL1       -0.0040
@<TRIPOS>UNITY_ATOM_ATTR
9 1
charge 1
@<TRIPOS>BOND
     1     1     2    1
     2     2     3   ar
     3     3     4    1
     4     3     5   ar
     5     5     6    1
     6     5     7   ar
     7     7     8   ar
     8     8     9   ar
     9     9    12    1
    10    12    13    1
    11    13    14    1
    12    12    16    1
    13    16    17    1
    14    17    18   ar
    15    18    19   ar
    16    19    20   ar
    17    20    21   ar
    18    21    22   ar
    19     9     2   ar
    20    22    17   ar
    21     4    10    1
    22     6    11    1
    23    14    15    1
@<TRIPOS>MOLECULE
*****
 22 23 0 0 0
SMALL
GASTEIGER

@<TRIPOS>ATOM
      1 C         -17.6388   -6.8182   19.7300 C.3     1  UNL1        0.1114
      2 C         -16.9102   -8.0144   19.1931 C.ar    1  UNL1        0.2403
      3 C         -17.5318   -9.3762   19.2883 C.ar    1  UNL1        0.2280
      4 O         -18.8820   -9.5418   19.9205 O.3     1  UNL1       -0.4992
      5 C         -16.8032  -10.5724   18.7514 C.ar    1  UNL1        0.1795
      6 O         -17.4249  -11.9342   18.8467 O.3     1  UNL1       -0.5026
      7 C         -15.4531  -10.4068   18.1193 C.ar    1  UNL1        0.1155
      8 C         -14.8315   -9.0450   18.0241 C.ar    1  UNL1        0.2929
      9 N         -15.5601   -7.8488   18.5610 N.ar    1  UNL1       -0.1689
     10 H         -19.3372   -8.7946   20.2559 H       1  UNL1        0.2925
     11 H         -18.2683  -12.0377   19.2415 H       1  UNL1        0.2923
     12 C         -14.9385   -6.4869   18.4657 C.3     1  UNL1        0.2849
     13 C         -15.2702   -5.5902   17.3099 C.3     1  UNL1        0.2162
     14 O         -15.4759   -4.1216   17.5350 O.3     1  UNL1       -0.3762
     15 H         -16.2678   -3.9856   18.0785 H       1  UNL1        0.2107
     16 C         -13.9851   -6.0218   19.5263 C.3     1  UNL1        0.1068
     17 C         -12.5352   -5.8233   19.1967 C.ar    1  UNL1       -0.0153
     18 C         -11.9529   -4.4411   19.1778 C.ar    1  UNL1       -0.0040
     19 C         -10.5031   -4.2425   18.8482 C.ar    1  UNL1       -0.0003
     20 C          -9.6357   -5.4261   18.5375 C.ar    1  UNL1       -0.0000
     21 C         -10.2180   -6.8083   18.5564 C.ar    1  UNL1       -0.0003
     22 C         -11.6678   -7.0069   18.8860 C.ar    1  UNL1       -0.0040
@<TRIPOS>UNITY_ATOM_ATTR
9 1
charge 1
@<TRIPOS>BOND
     1     1     2    1
     2     2     3   ar
     3     3     4    1
     4     3     5   ar
     5     5     6    1
     6     5     7   ar
     7     7     8   ar
     8     8     9   ar
     9     9    12    1
    10    12    13    1
    11    13    14    1
    12    12    16    1
    13    16    17    1
    14    17    18   ar
    15    18    19   ar
    16    19    20   ar
    17    20    21   ar
    18    21    22   ar
    19     9     2   ar
    20    22    17   ar
    21     4    10    1
    22     6    11    1
    23    14    15    1
@<TRIPOS>MOLECULE
*****
 22 23 0 0 0
SMALL
GASTEIGER

@<TRIPOS>ATOM
      1 C         -12.7004   -4.8405   16.4038 C.3     1  UNL1        0.1114
      2 C         -11.6023   -5.3822   17.2702 C.ar    1  UNL1        0.2403
      3 C         -11.2661   -6.8435   17.2290 C.ar    1  UNL1        0.2280
      4 O         -12.0282   -7.7631   16.3214 O.3     1  UNL1       -0.4992
      5 C         -10.1680   -7.3852   18.0954 C.ar    1  UNL1        0.1795
      6 O          -9.8319   -8.8465   18.0542 O.3     1  UNL1       -0.5026
      7 C          -9.4060   -6.4657   19.0030 C.ar    1  UNL1        0.1155
      8 C          -9.7421   -5.0044   19.0442 C.ar    1  UNL1        0.2929
      9 N         -10.8403   -4.4627   18.1778 N.ar    1  UNL1       -0.1689
     10 H         -12.7141   -7.4247   15.7802 H       1  UNL1        0.2925
     11 H         -10.3079   -9.4209   17.4873 H       1  UNL1        0.2923
     12 C         -11.1764   -3.0014   18.2190 C.3     1  UNL1        0.2849
     13 C         -10.7031   -2.0918   17.1241 C.3     1  UNL1        0.2162
     14 O         -10.1590   -0.7347   17.4592 O.3     1  UNL1       -0.3762
     15 H         -10.8666   -0.1857   17.8318 H       1  UNL1        0.2107
     16 C         -11.9857   -2.4497   19.3550 C.3     1  UNL1        0.1068
     17 C         -13.4354   -2.8111   19.4881 C.ar    1  UNL1       -0.0153
     18 C         -13.8287   -4.1145   20.1179 C.ar    1  UNL1       -0.0040
     19 C         -15.2784   -4.4759   20.2509 C.ar    1  UNL1       -0.0003
     20 C         -16.3348   -3.5340   19.7541 C.ar    1  UNL1       -0.0000
     21 C         -15.9415   -2.2307   19.1243 C.ar    1  UNL1       -0.0003
     22 C         -14.4918   -1.8692   18.9913 C.ar    1  UNL1       -0.0040
@<TRIPOS>UNITY_ATOM_ATTR
9 1
charge 1
@<TRIPOS>BOND
     1     1     2    1
     2     2     3   ar
     3     3     4    1
     4     3     5   ar
     5     5     6    1
     6     5     7   ar
     7     7     8   ar
     8     8     9   ar
     9     9    12    1
    10    12    13    1
    11    13    14    1
    12    12    16    1
    13    16    17    1
    14    17    18   ar
    15    18    19   ar
    16    19    20   ar
    17    20    21   ar
    18    21    22   ar
    19     9     2   ar
    20    22    17   ar
    21     4    10    1
    22     6    11    1
    23    14    15    1
@<TRIPOS>MOLECULE
*****
 22 23 0 0 0
SMALL
GASTEIGER

@<TRIPOS>ATOM
      1 C         -14.5396   -5.0258   19.0878 C.3     1  UNL1        0.1114
      2 C         -13.1092   -5.3830   18.8114 C.ar    1  UNL1        0.2403
      3 C         -12.0093   -4.4543   19.2330 C.ar    1  UNL1        0.2280
      4 O         -12.3398   -3.1684   19.9311 O.3     1  UNL1       -0.4992
      5 C         -10.5789   -4.8115   18.9566 C.ar    1  UNL1        0.1795
      6 O          -9.4790   -3.8828   19.3783 O.3     1  UNL1       -0.5026
      7 C         -10.2484   -6.0974   18.2586 C.ar    1  UNL1        0.1155
      8 C         -11.3483   -7.0260   17.8369 C.ar    1  UNL1        0.2929
      9 N         -12.7787   -6.6688   18.1133 N.ar    1  UNL1       -0.1689
     10 H         -13.2333   -2.9453   20.1038 H       1  UNL1        0.2925
     11 H          -9.6855   -3.0796   19.8144 H       1  UNL1        0.2923
     12 C         -13.8786   -7.5975   17.6916 C.3     1  UNL1        0.2849
     13 C         -14.5321   -7.4268   16.3523 C.3     1  UNL1        0.2162
     14 O         -15.7599   -6.5754   16.2199 O.3     1  UNL1       -0.3762
     15 H         -16.4918   -6.9857   16.7065 H       1  UNL1        0.2107
     16 C         -14.3250   -8.6969   18.6092 C.3     1  UNL1        0.1068
     17 C         -15.7878   -8.9234   18.8523 C.ar    1  UNL1       -0.0153
     18 C         -16.4813  -10.0924   18.2180 C.ar    1  UNL1       -0.0040
     19 C         -17.9440  -10.3189   18.4610 C.ar    1  UNL1       -0.0003
     20 C         -18.7132   -9.3764   19.3385 C.ar    1  UNL1       -0.0000
     21 C         -18.0197   -8.2074   19.9728 C.ar    1  UNL1       -0.0003
     22 C         -16.5570   -7.9809   19.7298 C.ar    1  UNL1       -0.0040
@<TRIPOS>UNITY_ATOM_ATTR
9 1
charge 1
@<TRIPOS>BOND
     1     1     2    1
     2     2     3   ar
     3     3     4    1
     4     3     5   ar
     5     5     6    1
     6     5     7   ar
     7     7     8   ar
     8     8     9   ar
     9     9    12    1
    10    12    13    1
    11    13    14    1
    12    12    16    1
    13    16    17    1
    14    17    18   ar
    15    18    19   ar
    16    19    20   ar
    17    20    21   ar
    18    21    22   ar
    19     9     2   ar
    20    22    17   ar
    21     4    10    1
    22     6    11    1
    23    14    15    1
