@<TRIPOS>MOLECULE
*****
 22 24 0 0 0
SMALL
GASTEIGER

@<TRIPOS>ATOM
      1 C         -10.5679  -18.2612   23.4802 C.3     1  UNL1        0.0436
      2 C         -11.2753  -17.5606   22.3583 C.3     1  UNL1        0.0712
      3 N         -12.7692  -17.4282   22.3802 N.3     1  UNL1       -0.2974
      4 C         -13.5558  -17.9964   23.5241 C.3     1  UNL1        0.0689
      5 C         -12.8485  -18.6970   24.6460 C.3     1  UNL1        0.0212
      6 C         -11.3546  -18.8294   24.6241 C.3     1  UNL1        0.0238
      7 C          -9.8605  -18.9619   24.6022 C.3     1  UNL1        0.0082
      8 H         -13.1170  -17.8761   21.5324 H       1  UNL1        0.1232
      9 C         -11.3088  -18.0969   23.3160 C.ar    1  UNL1       -0.0217
     10 C         -11.2973  -16.5970   23.2963 C.ar    1  UNL1       -0.0034
     11 C         -11.2516  -15.8645   21.9881 C.ar    1  UNL1        0.0119
     12 C         -11.2173  -16.6317   20.6997 C.ar    1  UNL1        0.0682
     13 CL        -11.1716  -15.8991   19.3915 Cl      1  UNL1       -0.0814
     14 C         -11.2288  -18.1315   20.7193 C.ar    1  UNL1        0.0679
     15 CL        -11.1946  -18.8987   19.4308 Cl      1  UNL1       -0.0814
     16 C         -11.2746  -18.8641   22.0275 C.ar    1  UNL1        0.0080
     17 C          -9.2513  -18.0097   22.8072 C.3     1  UNL1        0.1211
     18 O          -8.6723  -16.6260   22.7854 O.3     1  UNL1       -0.3532
     19 C          -7.5417  -16.2715   23.7053 C.3     1  UNL1        0.1740
     20 C          -8.5134  -19.1417   22.1559 C.3     1  UNL1        0.0556
     21 C          -7.7221  -19.6110   19.7262 C.2     1  UNL1       -0.0048
     22 C          -7.5716  -18.8687   21.0209 C.2     1  UNL1       -0.0236
@<TRIPOS>BOND
     1    21    22    2
     2    22    20    1
     3    20    17    1
     4    17    18    1
     5    18    19    1
     6     1    17    1
     7     1     2    1
     8     2     3    1
     9     3     4    1
    10     4     5    1
    11     5     6    1
    12     6     9    1
    13     9    10   ar
    14    10    11   ar
    15    11    12   ar
    16    12    13    1
    17    12    14   ar
    18    14    15    1
    19    14    16   ar
    20     6     7    1
    21     6     1    1
    22    16     9   ar
    23     7     1    1
    24     3     8    1
@<TRIPOS>MOLECULE
*****
 22 24 0 0 0
SMALL
GASTEIGER

@<TRIPOS>ATOM
      1 C         -11.5033  -18.0905   22.1201 C.3     1  UNL1        0.0436
      2 C         -10.1299  -18.3219   22.6770 C.3     1  UNL1        0.0712
      3 N          -9.9567  -18.6662   24.1266 N.3     1  UNL1       -0.2974
      4 C         -11.1568  -18.7792   25.0193 C.3     1  UNL1        0.0689
      5 C         -12.5302  -18.5479   24.4623 C.3     1  UNL1        0.0212
      6 C         -12.7035  -18.2035   23.0127 C.3     1  UNL1        0.0238
      7 C         -12.8768  -17.8592   21.5631 C.3     1  UNL1        0.0082
      8 H          -9.3561  -17.9473   24.5303 H       1  UNL1        0.1232
      9 C         -11.2176  -18.2719   22.8189 C.ar    1  UNL1       -0.0217
     10 C         -10.5575  -19.5895   22.5392 C.ar    1  UNL1       -0.0034
     11 C          -9.0717  -19.6578   22.3454 C.ar    1  UNL1        0.0119
     12 C          -8.2459  -18.4086   22.4313 C.ar    1  UNL1        0.0682
     13 CL         -6.7600  -18.4770   22.2375 Cl      1  UNL1       -0.0814
     14 C          -8.9059  -17.0910   22.7111 C.ar    1  UNL1        0.0679
     15 CL         -8.0801  -15.8417   22.7971 Cl      1  UNL1       -0.0814
     16 C         -10.3918  -17.0226   22.9049 C.ar    1  UNL1        0.0080
     17 C         -10.9105  -17.8265   20.7678 C.3     1  UNL1        0.1211
     18 O         -10.4686  -16.4410   20.4001 O.3     1  UNL1       -0.3532
     19 C         -11.2409  -15.6523   19.3843 C.3     1  UNL1        0.1740
     20 C         -10.7594  -18.9480   19.7831 C.3     1  UNL1        0.0556
     21 C          -8.9996  -20.4656   18.6211 C.2     1  UNL1       -0.0048
     22 C          -9.4835  -19.0998   19.0092 C.2     1  UNL1       -0.0236
@<TRIPOS>BOND
     1    21    22    2
     2    22    20    1
     3    20    17    1
     4    17    18    1
     5    18    19    1
     6     1    17    1
     7     1     2    1
     8     2     3    1
     9     3     4    1
    10     4     5    1
    11     5     6    1
    12     6     9    1
    13     9    10   ar
    14    10    11   ar
    15    11    12   ar
    16    12    13    1
    17    12    14   ar
    18    14    15    1
    19    14    16   ar
    20     6     7    1
    21     6     1    1
    22    16     9   ar
    23     7     1    1
    24     3     8    1
@<TRIPOS>MOLECULE
*****
 22 24 0 0 0
SMALL
GASTEIGER

@<TRIPOS>ATOM
      1 C          -9.5704  -18.3999   21.1340 C.3     1  UNL1        0.0436
      2 C          -8.9255  -17.7924   22.3444 C.3     1  UNL1        0.0712
      3 N          -7.5199  -18.1652   22.7120 N.3     1  UNL1       -0.2974
      4 C          -6.7592  -19.1455   21.8692 C.3     1  UNL1        0.0689
      5 C          -7.4041  -19.7530   20.6588 C.3     1  UNL1        0.0212
      6 C          -8.8097  -19.3802   20.2912 C.3     1  UNL1        0.0238
      7 C         -10.2154  -19.0074   19.9236 C.3     1  UNL1        0.0082
      8 H          -7.5550  -18.5525   23.6549 H       1  UNL1        0.1232
      9 C          -8.8765  -18.4635   21.4766 C.ar    1  UNL1       -0.0217
     10 C          -8.4452  -17.0329   21.3437 C.ar    1  UNL1       -0.0034
     11 C          -8.5121  -16.1162   22.5291 C.ar    1  UNL1        0.0119
     12 C          -9.0102  -16.6300   23.8474 C.ar    1  UNL1        0.0682
     13 CL         -9.0770  -15.7132   25.0328 Cl      1  UNL1       -0.0814
     14 C          -9.4415  -18.0604   23.9803 C.ar    1  UNL1        0.0679
     15 CL         -9.9396  -18.5742   25.2986 Cl      1  UNL1       -0.0814
     16 C          -9.3747  -18.9772   22.7949 C.ar    1  UNL1        0.0080
     17 C         -10.8212  -17.6187   21.4083 C.3     1  UNL1        0.1211
     18 O         -10.9268  -16.1907   20.9613 O.3     1  UNL1       -0.3532
     19 C         -11.6170  -15.8576   19.6718 C.3     1  UNL1        0.1740
     20 C         -11.9664  -18.2654   22.1297 C.3     1  UNL1        0.0556
     21 C         -13.7256  -18.0623   24.0308 C.2     1  UNL1       -0.0048
     22 C         -12.9081  -17.4289   22.9442 C.2     1  UNL1       -0.0236
@<TRIPOS>BOND
     1    21    22    2
     2    22    20    1
     3    20    17    1
     4    17    18    1
     5    18    19    1
     6     1    17    1
     7     1     2    1
     8     2     3    1
     9     3     4    1
    10     4     5    1
    11     5     6    1
    12     6     9    1
    13     9    10   ar
    14    10    11   ar
    15    11    12   ar
    16    12    13    1
    17    12    14   ar
    18    14    15    1
    19    14    16   ar
    20     6     7    1
    21     6     1    1
    22    16     9   ar
    23     7     1    1
    24     3     8    1
@<TRIPOS>MOLECULE
*****
 22 24 0 0 0
SMALL
GASTEIGER

@<TRIPOS>ATOM
      1 C         -10.6360  -18.1680   23.5251 C.3     1  UNL1        0.0436
      2 C         -11.3532  -17.5277   22.3738 C.3     1  UNL1        0.0712
      3 N         -12.8521  -17.4715   22.3618 N.3     1  UNL1       -0.2974
      4 C         -13.6337  -18.0556   23.5010 C.3     1  UNL1        0.0689
      5 C         -12.9165  -18.6959   24.6523 C.3     1  UNL1        0.0212
      6 C         -11.4176  -18.7521   24.6644 C.3     1  UNL1        0.0238
      7 C          -9.9186  -18.8083   24.6764 C.3     1  UNL1        0.0082
      8 H         -13.1581  -17.9540   21.5168 H       1  UNL1        0.1232
      9 C         -11.3805  -18.0452   23.3419 C.ar    1  UNL1       -0.0217
     10 C         -11.4853  -16.5498   23.2876 C.ar    1  UNL1       -0.0034
     11 C         -11.4482  -15.8429   21.9651 C.ar    1  UNL1        0.0119
     12 C         -11.3063  -16.6314   20.6970 C.ar    1  UNL1        0.0682
     13 CL        -11.2691  -15.9244   19.3745 Cl      1  UNL1       -0.0814
     14 C         -11.2014  -18.1267   20.7513 C.ar    1  UNL1        0.0679
     15 CL        -11.0594  -18.9151   19.4831 Cl      1  UNL1       -0.0814
     16 C         -11.2385  -18.8336   22.0738 C.ar    1  UNL1        0.0080
     17 C          -9.3194  -17.8633   22.8743 C.3     1  UNL1        0.1211
     18 O          -8.6108  -18.9225   22.0831 O.3     1  UNL1       -0.3532
     19 C          -7.3916  -18.5713   21.2829 C.3     1  UNL1        0.1740
     20 C          -8.7112  -16.4992   23.0147 C.3     1  UNL1        0.0556
     21 C          -8.5117  -15.4350   25.3764 C.2     1  UNL1       -0.0048
     22 C          -7.8887  -16.1655   24.2239 C.2     1  UNL1       -0.0236
@<TRIPOS>BOND
     1    21    22    2
     2    22    20    1
     3    20    17    1
     4    17    18    1
     5    18    19    1
     6     1    17    1
     7     1     2    1
     8     2     3    1
     9     3     4    1
    10     4     5    1
    11     5     6    1
    12     6     9    1
    13     9    10   ar
    14    10    11   ar
    15    11    12   ar
    16    12    13    1
    17    12    14   ar
    18    14    15    1
    19    14    16   ar
    20     6     7    1
    21     6     1    1
    22    16     9   ar
    23     7     1    1
    24     3     8    1
@<TRIPOS>MOLECULE
*****
 22 24 0 0 0
SMALL
GASTEIGER

@<TRIPOS>ATOM
      1 C         -10.4884  -17.0725   22.0252 C.3     1  UNL1        0.0436
      2 C         -10.7120  -18.2531   22.9231 C.3     1  UNL1        0.0712
      3 N         -12.0693  -18.5015   23.5113 N.3     1  UNL1       -0.2974
      4 C         -13.2030  -17.5694   23.2017 C.3     1  UNL1        0.0689
      5 C         -12.9794  -16.3888   22.3038 C.3     1  UNL1        0.0212
      6 C         -11.6221  -16.1404   21.7155 C.3     1  UNL1        0.0238
      7 C         -10.2648  -15.8919   21.1272 C.3     1  UNL1        0.0082
      8 H         -11.9556  -18.5003   24.5250 H       1  UNL1        0.1232
      9 C         -11.0967  -17.3601   22.4127 C.ar    1  UNL1       -0.0217
     10 C         -11.0997  -18.6854   21.7100 C.ar    1  UNL1       -0.0034
     11 C         -10.5743  -19.9052   22.4072 C.ar    1  UNL1        0.0119
     12 C         -10.0459  -19.7997   23.8070 C.ar    1  UNL1        0.0682
     13 CL         -9.5204  -21.0196   24.5042 Cl      1  UNL1       -0.0814
     14 C         -10.0428  -18.4745   24.5097 C.ar    1  UNL1        0.0679
     15 CL         -9.5144  -18.3691   25.9096 Cl      1  UNL1       -0.0814
     16 C         -10.5683  -17.2547   23.8126 C.ar    1  UNL1        0.0080
     17 C          -9.0503  -17.4672   21.8643 C.3     1  UNL1        0.1211
     18 O          -8.6211  -18.2666   20.6698 O.3     1  UNL1       -0.3532
     19 C          -7.3309  -19.0311   20.7032 C.3     1  UNL1        0.1740
     20 C          -8.0413  -17.0626   22.8979 C.3     1  UNL1        0.0556
     21 C          -7.6806  -14.9103   24.3078 C.2     1  UNL1       -0.0048
     22 C          -7.5998  -15.6324   22.9954 C.2     1  UNL1       -0.0236
@<TRIPOS>BOND
     1    21    22    2
     2    22    20    1
     3    20    17    1
     4    17    18    1
     5    18    19    1
     6     1    17    1
     7     1     2    1
     8     2     3    1
     9     3     4    1
    10     4     5    1
    11     5     6    1
    12     6     9    1
    13     9    10   ar
    14    10    11   ar
    15    11    12   ar
    16    12    13    1
    17    12    14   ar
    18    14    15    1
    19    14    16   ar
    20     6     7    1
    21     6     1    1
    22    16     9   ar
    23     7     1    1
    24     3     8    1
@<TRIPOS>MOLECULE
*****
 22 24 0 0 0
SMALL
GASTEIGER

@<TRIPOS>ATOM
      1 C          -9.7597  -17.6921   23.2801 C.3     1  UNL1        0.0436
      2 C          -9.8035  -18.8059   22.2764 C.3     1  UNL1        0.0712
      3 N          -9.9313  -20.2272   22.7384 N.3     1  UNL1       -0.2974
      4 C         -10.0153  -20.5347   24.2042 C.3     1  UNL1        0.0689
      5 C          -9.9715  -19.4209   25.2079 C.3     1  UNL1        0.0212
      6 C          -9.8437  -17.9996   24.7459 C.3     1  UNL1        0.0238
      7 C          -9.7159  -16.5782   24.2838 C.3     1  UNL1        0.0082
      8 H          -9.1188  -20.7280   22.3786 H       1  UNL1        0.1232
      9 C          -9.8205  -18.4652   23.3202 C.ar    1  UNL1       -0.0217
     10 C         -11.1069  -18.6572   22.5728 C.ar    1  UNL1       -0.0034
     11 C         -11.0837  -19.1228   21.1471 C.ar    1  UNL1        0.0119
     12 C          -9.7741  -19.3963   20.4687 C.ar    1  UNL1        0.0682
     13 CL         -9.7510  -19.8619   19.0429 Cl      1  UNL1       -0.0814
     14 C          -8.4878  -19.2043   21.2159 C.ar    1  UNL1        0.0679
     15 CL         -7.1782  -19.4778   20.5375 Cl      1  UNL1       -0.0814
     16 C          -8.5109  -18.7387   22.6417 C.ar    1  UNL1        0.0080
     17 C          -9.6374  -16.6940   22.1672 C.3     1  UNL1        0.1211
     18 O          -8.2849  -16.3347   21.6271 O.3     1  UNL1       -0.3532
     19 C          -7.6246  -15.0555   22.0487 C.3     1  UNL1        0.1740
     20 C         -10.8677  -16.0550   21.5942 C.3     1  UNL1        0.0556
     21 C         -12.0417  -15.8362   19.2868 C.2     1  UNL1       -0.0048
     22 C         -10.8663  -15.5620   20.1775 C.2     1  UNL1       -0.0236
@<TRIPOS>BOND
     1    21    22    2
     2    22    20    1
     3    20    17    1
     4    17    18    1
     5    18    19    1
     6     1    17    1
     7     1     2    1
     8     2     3    1
     9     3     4    1
    10     4     5    1
    11     5     6    1
    12     6     9    1
    13     9    10   ar
    14    10    11   ar
    15    11    12   ar
    16    12    13    1
    17    12    14   ar
    18    14    15    1
    19    14    16   ar
    20     6     7    1
    21     6     1    1
    22    16     9   ar
    23     7     1    1
    24     3     8    1
@<TRIPOS>MOLECULE
*****
 22 24 0 0 0
SMALL
GASTEIGER

@<TRIPOS>ATOM
      1 C         -10.4552  -18.4689   22.2517 C.3     1  UNL1        0.0436
      2 C          -9.8453  -17.2408   22.8598 C.3     1  UNL1        0.0712
      3 N         -10.6548  -15.9842   22.9839 N.3     1  UNL1       -0.2974
      4 C         -12.0742  -15.9555   22.4997 C.3     1  UNL1        0.0689
      5 C         -12.6841  -17.1836   21.8916 C.3     1  UNL1        0.0212
      6 C         -11.8746  -18.4402   21.7675 C.3     1  UNL1        0.0238
      7 C         -11.0651  -19.6970   21.6435 C.3     1  UNL1        0.0082
      8 H         -10.1538  -15.2593   22.4702 H       1  UNL1        0.1232
      9 C         -10.7030  -17.7477   22.3982 C.ar    1  UNL1       -0.0217
     10 C          -9.7102  -17.0211   21.5399 C.ar    1  UNL1       -0.0034
     11 C          -8.5386  -16.3286   22.1706 C.ar    1  UNL1        0.0119
     12 C          -8.3597  -16.3627   23.6595 C.ar    1  UNL1        0.0682
     13 CL         -7.1880  -15.6702   24.2901 Cl      1  UNL1       -0.0814
     14 C          -9.3524  -17.0893   24.5177 C.ar    1  UNL1        0.0679
     15 CL         -9.1735  -17.1233   26.0066 Cl      1  UNL1       -0.0814
     16 C         -10.5241  -17.7818   23.8871 C.ar    1  UNL1        0.0080
     17 C          -9.1683  -19.2109   22.4596 C.3     1  UNL1        0.1211
     18 O          -8.8277  -19.7566   23.8146 O.3     1  UNL1       -0.3532
     19 C          -9.4998  -21.0019   24.3123 C.3     1  UNL1        0.1740
     20 C          -8.2220  -19.4074   21.3123 C.3     1  UNL1        0.0556
     21 C          -5.8075  -18.8875   22.1184 C.2     1  UNL1       -0.0048
     22 C          -6.8138  -19.8552   21.5699 C.2     1  UNL1       -0.0236
@<TRIPOS>BOND
     1    21    22    2
     2    22    20    1
     3    20    17    1
     4    17    18    1
     5    18    19    1
     6     1    17    1
     7     1     2    1
     8     2     3    1
     9     3     4    1
    10     4     5    1
    11     5     6    1
    12     6     9    1
    13     9    10   ar
    14    10    11   ar
    15    11    12   ar
    16    12    13    1
    17    12    14   ar
    18    14    15    1
    19    14    16   ar
    20     6     7    1
    21     6     1    1
    22    16     9   ar
    23     7     1    1
    24     3     8    1
@<TRIPOS>MOLECULE
*****
 22 24 0 0 0
SMALL
GASTEIGER

@<TRIPOS>ATOM
      1 C          -9.9550  -18.6003   21.1522 C.3     1  UNL1        0.0436
      2 C          -9.1974  -18.3016   22.4118 C.3     1  UNL1        0.0712
      3 N          -7.7608  -18.7139   22.5385 N.3     1  UNL1       -0.2974
      4 C          -7.0818  -19.4250   21.4057 C.3     1  UNL1        0.0689
      5 C          -7.8395  -19.7237   20.1461 C.3     1  UNL1        0.0212
      6 C          -9.2761  -19.3114   20.0193 C.3     1  UNL1        0.0238
      7 C         -10.7128  -18.8991   19.8925 C.3     1  UNL1        0.0082
      8 H          -7.7015  -19.3290   23.3500 H       1  UNL1        0.1232
      9 C          -9.2306  -18.7284   21.4006 C.ar    1  UNL1       -0.0217
     10 C          -8.7988  -17.3058   21.6004 C.ar    1  UNL1       -0.0034
     11 C          -8.7534  -16.7228   22.9817 C.ar    1  UNL1        0.0119
     12 C          -9.1397  -17.5623   24.1632 C.ar    1  UNL1        0.0682
     13 CL         -9.0942  -16.9792   25.5445 Cl      1  UNL1       -0.0814
     14 C          -9.5714  -18.9848   23.9634 C.ar    1  UNL1        0.0679
     15 CL         -9.9577  -19.8243   25.1450 Cl      1  UNL1       -0.0814
     16 C          -9.6169  -19.5679   22.5821 C.ar    1  UNL1        0.0080
     17 C         -11.1765  -17.9517   21.7330 C.3     1  UNL1        0.1211
     18 O         -12.1263  -18.7559   22.5704 O.3     1  UNL1       -0.3532
     19 C         -13.0680  -18.0635   23.5106 C.3     1  UNL1        0.1740
     20 C         -11.4481  -16.4990   21.4765 C.3     1  UNL1        0.0556
     21 C         -11.6361  -15.5403   19.0690 C.2     1  UNL1       -0.0048
     22 C         -12.2883  -16.0888   20.3035 C.2     1  UNL1       -0.0236
@<TRIPOS>BOND
     1    21    22    2
     2    22    20    1
     3    20    17    1
     4    17    18    1
     5    18    19    1
     6     1    17    1
     7     1     2    1
     8     2     3    1
     9     3     4    1
    10     4     5    1
    11     5     6    1
    12     6     9    1
    13     9    10   ar
    14    10    11   ar
    15    11    12   ar
    16    12    13    1
    17    12    14   ar
    18    14    15    1
    19    14    16   ar
    20     6     7    1
    21     6     1    1
    22    16     9   ar
    23     7     1    1
    24     3     8    1
@<TRIPOS>MOLECULE
*****
 22 24 0 0 0
SMALL
GASTEIGER

@<TRIPOS>ATOM
      1 C          -9.2744  -17.2975   23.9230 C.3     1  UNL1        0.0436
      2 C          -9.4162  -17.2598   22.4302 C.3     1  UNL1        0.0712
      3 N          -8.6790  -16.2251   21.6328 N.3     1  UNL1       -0.2974
      4 C          -7.8000  -15.2282   22.3281 C.3     1  UNL1        0.0689
      5 C          -7.6581  -15.2659   23.8209 C.3     1  UNL1        0.0212
      6 C          -8.3953  -16.3006   24.6183 C.3     1  UNL1        0.0238
      7 C          -9.1326  -17.3353   25.4159 C.3     1  UNL1        0.0082
      8 H          -9.3820  -15.6916   21.1213 H       1  UNL1        0.1232
      9 C          -8.9847  -16.8543   23.3550 C.ar    1  UNL1       -0.0217
     10 C          -8.2719  -17.9434   22.6093 C.ar    1  UNL1       -0.0034
     11 C          -8.8613  -18.4971   21.3460 C.ar    1  UNL1        0.0119
     12 C         -10.1635  -17.9619   20.8284 C.ar    1  UNL1        0.0682
     13 CL        -10.7528  -18.5157   19.5650 Cl      1  UNL1       -0.0814
     14 C         -10.8762  -16.8729   21.5740 C.ar    1  UNL1        0.0679
     15 CL        -12.1784  -16.3377   21.0564 Cl      1  UNL1       -0.0814
     16 C         -10.2869  -16.3191   22.8374 C.ar    1  UNL1        0.0080
     17 C         -10.2075  -18.4704   23.9820 C.3     1  UNL1        0.1211
     18 O          -9.7713  -19.8034   23.4500 O.3     1  UNL1       -0.3532
     19 C          -9.5485  -20.9500   24.3911 C.3     1  UNL1        0.1740
     20 C         -11.5769  -18.3104   24.5730 C.3     1  UNL1        0.0556
     21 C         -14.1413  -18.1116   24.2062 C.2     1  UNL1       -0.0048
     22 C         -12.7917  -18.5608   23.7296 C.2     1  UNL1       -0.0236
@<TRIPOS>BOND
     1    21    22    2
     2    22    20    1
     3    20    17    1
     4    17    18    1
     5    18    19    1
     6     1    17    1
     7     1     2    1
     8     2     3    1
     9     3     4    1
    10     4     5    1
    11     5     6    1
    12     6     9    1
    13     9    10   ar
    14    10    11   ar
    15    11    12   ar
    16    12    13    1
    17    12    14   ar
    18    14    15    1
    19    14    16   ar
    20     6     7    1
    21     6     1    1
    22    16     9   ar
    23     7     1    1
    24     3     8    1
