@<TRIPOS>MOLECULE
*****
 30 34 0 0 0
SMALL
GASTEIGER

@<TRIPOS>ATOM
      1 N          -9.6906  -16.8936   23.5652 N.ar    1  UNL1       -0.3110
      2 C          -8.4406  -16.2547   23.0365 C.ar    1  UNL1        0.1213
      3 N          -8.7440  -15.6977   21.6772 N.ar    1  UNL1       -0.2309
      4 C         -10.1814  -15.9923   21.3658 C.ar    1  UNL1        0.0983
      5 C         -11.0332  -15.6831   20.1705 C.ar    1  UNL1        0.0206
      6 C         -12.4700  -16.1129   20.1420 C.ar    1  UNL1        0.0016
      7 C         -13.0550  -16.8520   21.3088 C.ar    1  UNL1        0.0016
      8 C         -12.2032  -17.1612   22.5041 C.ar    1  UNL1        0.0188
      9 C         -10.7665  -16.7314   22.5326 C.ar    1  UNL1        0.0787
     10 C          -7.1193  -16.1851   23.7431 C.3     1  UNL1        0.0729
     11 C          -6.9686  -15.3353   24.9699 C.3     1  UNL1        0.0103
     12 C          -5.6473  -15.2657   25.6765 C.3     1  UNL1        0.0178
     13 C          -4.4766  -16.0459   25.1562 C.3     1  UNL1        0.0725
     14 N          -4.6272  -16.8957   23.9294 N.3     1  UNL1       -0.2645
     15 C          -5.9486  -16.9654   23.2229 C.3     1  UNL1        0.0800
     16 C          -3.4565  -17.6760   23.4092 C.3     1  UNL1        0.1587
     17 C          -3.5508  -18.3775   22.0867 C.ar    1  UNL1        0.2223
     18 N          -3.0956  -17.8329   20.7653 N.ar    1  UNL1       -0.2092
     19 C          -3.3804  -18.8655   19.7153 C.ar    1  UNL1        0.1424
     20 C          -4.0116  -20.0485   20.3877 C.ar    1  UNL1        0.2018
     21 O          -4.1169  -19.7468   21.8533 O.2     1  UNL1       -0.4338
     22 C          -9.8387  -17.5750   24.8932 C.3     1  UNL1        0.1544
     23 C         -10.0762  -19.0547   24.9547 C.3     1  UNL1        0.2298
     24 O          -9.2848  -19.9785   24.0770 O.3     1  UNL1       -0.4734
     25 C          -9.4874  -19.5537   19.6017 C.ar    1  UNL1        0.0002
     26 C          -8.1794  -19.3737   20.3137 C.ar    1  UNL1        0.0031
     27 C          -8.1119  -19.5153   21.8055 C.ar    1  UNL1        0.0369
     28 C          -9.3523  -19.8369   22.5853 C.ar    1  UNL1        0.1386
     29 C         -10.6602  -20.0169   21.8732 C.ar    1  UNL1        0.0369
     30 C         -10.7277  -19.8753   20.3814 C.ar    1  UNL1        0.0031
@<TRIPOS>BOND
     1    25    26   ar
     2    26    27   ar
     3    27    28   ar
     4    28    24    1
     5    24    23    1
     6    23    22    1
     7    22     1    1
     8     1     2   ar
     9     2    10    1
    10    10    11    1
    11    11    12    1
    12    12    13    1
    13    13    14    1
    14    14    16    1
    15    16    17    1
    16    17    18   ar
    17    18    19   ar
    18    19    20   ar
    19    20    21   ar
    20    14    15    1
    21     2     3   ar
    22     3     4   ar
    23     4     5   ar
    24     5     6   ar
    25     6     7   ar
    26     7     8   ar
    27     8     9   ar
    28    28    29   ar
    29    29    30   ar
    30    30    25   ar
    31     9     1   ar
    32    15    10    1
    33     9     4   ar
    34    21    17   ar
@<TRIPOS>MOLECULE
*****
 30 34 0 0 0
SMALL
GASTEIGER

@<TRIPOS>ATOM
      1 N          -9.2155  -17.5669   22.0270 N.ar    1  UNL1       -0.3110
      2 C          -8.5173  -18.8661   22.3000 C.ar    1  UNL1        0.1213
      3 N          -9.4344  -19.7210   23.1234 N.ar    1  UNL1       -0.2309
      4 C         -10.6994  -18.9502   23.3593 C.ar    1  UNL1        0.0983
      5 C         -11.9570  -19.2885   24.1036 C.ar    1  UNL1        0.0206
      6 C         -13.0792  -18.2956   24.1703 C.ar    1  UNL1        0.0016
      7 C         -12.9439  -16.9642   23.4927 C.ar    1  UNL1        0.0016
      8 C         -11.6864  -16.6258   22.7484 C.ar    1  UNL1        0.0188
      9 C         -10.5641  -17.6188   22.6817 C.ar    1  UNL1        0.0787
     10 C          -7.1433  -19.2440   21.8317 C.3     1  UNL1        0.0729
     11 C          -6.9724  -20.3133   20.7938 C.3     1  UNL1        0.0103
     12 C          -5.5984  -20.6913   20.3256 C.3     1  UNL1        0.0178
     13 C          -4.3953  -19.9999   20.8953 C.3     1  UNL1        0.0725
     14 N          -4.5662  -18.9306   21.9332 N.3     1  UNL1       -0.2645
     15 C          -5.9403  -18.5527   22.4014 C.3     1  UNL1        0.0800
     16 C          -3.3631  -18.2392   22.5029 C.3     1  UNL1        0.1587
     17 C          -2.2130  -17.8779   21.6104 C.ar    1  UNL1        0.2223
     18 N          -1.8233  -16.4910   21.1922 N.ar    1  UNL1       -0.2092
     19 C          -0.6201  -16.5960   20.3026 C.ar    1  UNL1        0.1424
     20 C          -0.2662  -18.0477   20.1710 C.ar    1  UNL1        0.2018
     21 O          -1.2506  -18.8399   20.9792 O.2     1  UNL1       -0.4338
     22 C          -8.6623  -16.4174   21.2378 C.3     1  UNL1        0.1544
     23 C          -8.2105  -15.1726   21.9421 C.3     1  UNL1        0.2298
     24 O          -6.9352  -15.1784   22.7318 O.3     1  UNL1       -0.4734
     25 C          -7.0638  -15.5996   27.2102 C.ar    1  UNL1        0.0002
     26 C          -5.7441  -15.5090   26.5030 C.ar    1  UNL1        0.0031
     27 C          -5.7013  -15.3686   25.0102 C.ar    1  UNL1        0.0369
     28 C          -6.9781  -15.3188   24.2246 C.ar    1  UNL1        0.1386
     29 C          -8.2978  -15.4093   24.9318 C.ar    1  UNL1        0.0369
     30 C          -8.3406  -15.5497   26.4246 C.ar    1  UNL1        0.0031
@<TRIPOS>BOND
     1    25    26   ar
     2    26    27   ar
     3    27    28   ar
     4    28    24    1
     5    24    23    1
     6    23    22    1
     7    22     1    1
     8     1     2   ar
     9     2    10    1
    10    10    11    1
    11    11    12    1
    12    12    13    1
    13    13    14    1
    14    14    16    1
    15    16    17    1
    16    17    18   ar
    17    18    19   ar
    18    19    20   ar
    19    20    21   ar
    20    14    15    1
    21     2     3   ar
    22     3     4   ar
    23     4     5   ar
    24     5     6   ar
    25     6     7   ar
    26     7     8   ar
    27     8     9   ar
    28    28    29   ar
    29    29    30   ar
    30    30    25   ar
    31     9     1   ar
    32    15    10    1
    33     9     4   ar
    34    21    17   ar
@<TRIPOS>MOLECULE
*****
 30 34 0 0 0
SMALL
GASTEIGER

@<TRIPOS>ATOM
      1 N          -4.5353  -17.9963   22.1955 N.ar    1  UNL1       -0.3110
      2 C          -5.6784  -18.6800   21.5056 C.ar    1  UNL1        0.1213
      3 N          -5.2025  -19.1313   20.1566 N.ar    1  UNL1       -0.2309
      4 C          -3.7653  -18.7265   20.0127 C.ar    1  UNL1        0.0983
      5 C          -2.7789  -18.9060   18.8971 C.ar    1  UNL1        0.0206
      6 C          -1.3801  -18.3840   19.0416 C.ar    1  UNL1        0.0016
      7 C          -0.9678  -17.6825   20.3017 C.ar    1  UNL1        0.0016
      8 C          -1.9542  -17.5030   21.4174 C.ar    1  UNL1        0.0188
      9 C          -3.3530  -18.0250   21.2729 C.ar    1  UNL1        0.0787
     10 C          -7.0555  -18.8778   22.0663 C.3     1  UNL1        0.0729
     11 C          -7.4430  -20.2023   22.6539 C.3     1  UNL1        0.0103
     12 C          -8.8202  -20.4001   23.2146 C.3     1  UNL1        0.0178
     13 C          -9.8098  -19.2733   23.1877 C.3     1  UNL1        0.0725
     14 N          -9.4224  -17.9487   22.6000 N.3     1  UNL1       -0.2645
     15 C          -8.0452  -17.7510   22.0393 C.3     1  UNL1        0.0800
     16 C         -10.4121  -16.8218   22.5730 C.3     1  UNL1        0.1587
     17 C         -10.9528  -16.3298   21.2633 C.ar    1  UNL1        0.2223
     18 N         -12.3399  -16.5587   20.7402 N.ar    1  UNL1       -0.2092
     19 C         -12.4458  -15.8928   19.4002 C.ar    1  UNL1        0.1424
     20 C         -11.1241  -15.2523   19.0952 C.ar    1  UNL1        0.2018
     21 O         -10.2014  -15.5224   20.2466 O.2     1  UNL1       -0.4338
     22 C          -4.5687  -17.3903   23.5672 C.3     1  UNL1        0.1544
     23 C          -4.2568  -15.9348   23.7519 C.3     1  UNL1        0.2298
     24 O          -5.3683  -14.9512   23.9689 O.3     1  UNL1       -0.4734
     25 C          -8.3957  -15.6583   27.2225 C.ar    1  UNL1        0.0002
     26 C          -6.9346  -15.6008   27.5571 C.ar    1  UNL1        0.0031
     27 C          -5.9255  -15.3651   26.4725 C.ar    1  UNL1        0.0369
     28 C          -6.3774  -15.1869   25.0534 C.ar    1  UNL1        0.1386
     29 C          -7.8385  -15.2443   24.7188 C.ar    1  UNL1        0.0369
     30 C          -8.8476  -15.4800   25.8033 C.ar    1  UNL1        0.0031
@<TRIPOS>BOND
     1    25    26   ar
     2    26    27   ar
     3    27    28   ar
     4    28    24    1
     5    24    23    1
     6    23    22    1
     7    22     1    1
     8     1     2   ar
     9     2    10    1
    10    10    11    1
    11    11    12    1
    12    12    13    1
    13    13    14    1
    14    14    16    1
    15    16    17    1
    16    17    18   ar
    17    18    19   ar
    18    19    20   ar
    19    20    21   ar
    20    14    15    1
    21     2     3   ar
    22     3     4   ar
    23     4     5   ar
    24     5     6   ar
    25     6     7   ar
    26     7     8   ar
    27     8     9   ar
    28    28    29   ar
    29    29    30   ar
    30    30    25   ar
    31     9     1   ar
    32    15    10    1
    33     9     4   ar
    34    21    17   ar
@<TRIPOS>MOLECULE
*****
 30 34 0 0 0
SMALL
GASTEIGER

@<TRIPOS>ATOM
      1 N          -9.6333  -19.2015   22.5549 N.ar    1  UNL1       -0.3110
      2 C          -8.7061  -18.8402   21.4326 C.ar    1  UNL1        0.1213
      3 N          -9.4097  -17.8524   20.5499 N.ar    1  UNL1       -0.2309
      4 C         -10.7717  -17.6032   21.1267 C.ar    1  UNL1        0.0983
      5 C         -11.9040  -16.7248   20.6836 C.ar    1  UNL1        0.0206
      6 C         -13.1745  -16.6802   21.4797 C.ar    1  UNL1        0.0016
      7 C         -13.3127  -17.5140   22.7189 C.ar    1  UNL1        0.0016
      8 C         -12.1804  -18.3924   23.1620 C.ar    1  UNL1        0.0188
      9 C         -10.9100  -18.4370   22.3659 C.ar    1  UNL1        0.0787
     10 C          -7.3188  -19.3731   21.2288 C.3     1  UNL1        0.0729
     11 C          -7.0936  -20.5558   20.3341 C.3     1  UNL1        0.0103
     12 C          -5.7064  -21.0887   20.1303 C.3     1  UNL1        0.0178
     13 C          -4.5443  -20.4389   20.8211 C.3     1  UNL1        0.0725
     14 N          -4.7695  -19.2562   21.7157 N.3     1  UNL1       -0.2645
     15 C          -6.1567  -18.7233   21.9196 C.3     1  UNL1        0.0800
     16 C          -3.6074  -18.6063   22.4066 C.3     1  UNL1        0.1587
     17 C          -2.4632  -18.0653   21.6015 C.ar    1  UNL1        0.2223
     18 N          -2.2299  -16.6236   21.2592 N.ar    1  UNL1       -0.2092
     19 C          -0.9740  -16.5382   20.4434 C.ar    1  UNL1        0.1424
     20 C          -0.4311  -17.9271   20.2816 C.ar    1  UNL1        0.2018
     21 O          -1.3515  -18.8709   20.9973 O.2     1  UNL1       -0.4338
     22 C          -9.3361  -20.1592   23.6705 C.3     1  UNL1        0.1544
     23 C          -9.6586  -19.7844   25.0866 C.3     1  UNL1        0.2298
     24 O         -10.0876  -18.3846   25.4130 O.3     1  UNL1       -0.4734
     25 C          -6.9972  -15.1874   26.1038 C.ar    1  UNL1        0.0002
     26 C          -7.5643  -15.9461   27.2669 C.ar    1  UNL1        0.0031
     27 C          -8.5944  -17.0119   27.0366 C.ar    1  UNL1        0.0369
     28 C          -9.0575  -17.3189   25.6433 C.ar    1  UNL1        0.1386
     29 C          -8.4903  -16.5601   24.4803 C.ar    1  UNL1        0.0369
     30 C          -7.4602  -15.4944   24.7106 C.ar    1  UNL1        0.0031
@<TRIPOS>BOND
     1    25    26   ar
     2    26    27   ar
     3    27    28   ar
     4    28    24    1
     5    24    23    1
     6    23    22    1
     7    22     1    1
     8     1     2   ar
     9     2    10    1
    10    10    11    1
    11    11    12    1
    12    12    13    1
    13    13    14    1
    14    14    16    1
    15    16    17    1
    16    17    18   ar
    17    18    19   ar
    18    19    20   ar
    19    20    21   ar
    20    14    15    1
    21     2     3   ar
    22     3     4   ar
    23     4     5   ar
    24     5     6   ar
    25     6     7   ar
    26     7     8   ar
    27     8     9   ar
    28    28    29   ar
    29    29    30   ar
    30    30    25   ar
    31     9     1   ar
    32    15    10    1
    33     9     4   ar
    34    21    17   ar
@<TRIPOS>MOLECULE
*****
 30 34 0 0 0
SMALL
GASTEIGER

@<TRIPOS>ATOM
      1 N          -6.2762  -18.3209   21.9216 N.ar    1  UNL1       -0.3110
      2 C          -6.6148  -19.1251   20.7016 C.ar    1  UNL1        0.1213
      3 N          -5.3392  -19.6888   20.1494 N.ar    1  UNL1       -0.2309
      4 C          -4.2122  -19.2330   21.0282 C.ar    1  UNL1        0.0983
      5 C          -2.7335  -19.4786   20.9725 C.ar    1  UNL1        0.0206
      6 C          -1.8340  -18.8787   22.0122 C.ar    1  UNL1        0.0016
      7 C          -2.4132  -18.0333   23.1075 C.ar    1  UNL1        0.0016
      8 C          -3.8919  -17.7877   23.1632 C.ar    1  UNL1        0.0188
      9 C          -4.7914  -18.3876   22.1235 C.ar    1  UNL1        0.0787
     10 C          -7.9879  -19.3296   20.1334 C.3     1  UNL1        0.0729
     11 C          -8.1923  -20.2767   18.9883 C.3     1  UNL1        0.0103
     12 C          -9.5654  -20.4812   18.4202 C.3     1  UNL1        0.0178
     13 C         -10.7341  -19.7387   18.9972 C.3     1  UNL1        0.0725
     14 N         -10.5296  -18.7917   20.1422 N.3     1  UNL1       -0.2645
     15 C          -9.1565  -18.5871   20.7104 C.3     1  UNL1        0.0800
     16 C         -11.6983  -18.0491   20.7192 C.3     1  UNL1        0.1587
     17 C         -12.0615  -18.2281   22.1636 C.ar    1  UNL1        0.2223
     18 N         -13.3404  -17.7878   22.8122 N.ar    1  UNL1       -0.2092
     19 C         -13.2789  -18.1663   24.2624 C.ar    1  UNL1        0.1424
     20 C         -11.9621  -18.8406   24.5100 C.ar    1  UNL1        0.2018
     21 O         -11.2097  -18.8788   23.2129 O.2     1  UNL1       -0.4338
     22 C          -7.2514  -17.5800   22.7878 C.3     1  UNL1        0.1544
     23 C          -7.8166  -16.2687   22.3288 C.3     1  UNL1        0.2298
     24 O          -7.6844  -15.0507   23.1943 O.3     1  UNL1       -0.4734
     25 C          -6.8713  -15.4972   27.5978 C.ar    1  UNL1        0.0002
     26 C          -5.7349  -15.2774   26.6437 C.ar    1  UNL1        0.0031
     27 C          -6.0059  -15.1286   25.1759 C.ar    1  UNL1        0.0369
     28 C          -7.4133  -15.1995   24.6621 C.ar    1  UNL1        0.1386
     29 C          -8.5498  -15.4193   25.6162 C.ar    1  UNL1        0.0369
     30 C          -8.2787  -15.5681   27.0839 C.ar    1  UNL1        0.0031
@<TRIPOS>BOND
     1    25    26   ar
     2    26    27   ar
     3    27    28   ar
     4    28    24    1
     5    24    23    1
     6    23    22    1
     7    22     1    1
     8     1     2   ar
     9     2    10    1
    10    10    11    1
    11    11    12    1
    12    12    13    1
    13    13    14    1
    14    14    16    1
    15    16    17    1
    16    17    18   ar
    17    18    19   ar
    18    19    20   ar
    19    20    21   ar
    20    14    15    1
    21     2     3   ar
    22     3     4   ar
    23     4     5   ar
    24     5     6   ar
    25     6     7   ar
    26     7     8   ar
    27     8     9   ar
    28    28    29   ar
    29    29    30   ar
    30    30    25   ar
    31     9     1   ar
    32    15    10    1
    33     9     4   ar
    34    21    17   ar
@<TRIPOS>MOLECULE
*****
 30 34 0 0 0
SMALL
GASTEIGER

@<TRIPOS>ATOM
      1 N          -8.5092  -17.9185   24.3011 N.ar    1  UNL1       -0.3110
      2 C          -7.4910  -17.6795   23.2258 C.ar    1  UNL1        0.1213
      3 N          -6.6058  -16.5522   23.6681 N.ar    1  UNL1       -0.2309
      4 C          -7.0769  -16.0945   25.0166 C.ar    1  UNL1        0.0983
      5 C          -6.5866  -15.0179   25.9388 C.ar    1  UNL1        0.0206
      6 C          -7.2728  -14.7857   27.2523 C.ar    1  UNL1        0.0016
      7 C          -8.4491  -15.6302   27.6436 C.ar    1  UNL1        0.0016
      8 C          -8.9394  -16.7068   26.7214 C.ar    1  UNL1        0.0188
      9 C          -8.2532  -16.9389   25.4079 C.ar    1  UNL1        0.0787
     10 C          -7.3779  -18.4352   21.9350 C.3     1  UNL1        0.0729
     11 C          -8.6020  -18.6939   21.1077 C.3     1  UNL1        0.0103
     12 C          -8.4889  -19.4495   19.8169 C.3     1  UNL1        0.0178
     13 C          -7.1517  -19.9464   19.3534 C.3     1  UNL1        0.0725
     14 N          -5.9276  -19.6877   20.1807 N.3     1  UNL1       -0.2645
     15 C          -6.0407  -18.9321   21.4715 C.3     1  UNL1        0.0800
     16 C          -4.5903  -20.1847   19.7173 C.3     1  UNL1        0.1587
     17 C          -3.3938  -19.2817   19.7741 C.ar    1  UNL1        0.2223
     18 N          -3.2920  -17.9137   19.1672 N.ar    1  UNL1       -0.2092
     19 C          -1.9244  -17.3747   19.4658 C.ar    1  UNL1        0.1424
     20 C          -1.1809  -18.4096   20.2572 C.ar    1  UNL1        0.2018
     21 O          -2.0891  -19.5882   20.4477 O.2     1  UNL1       -0.4338
     22 C          -9.5930  -18.9552   24.2744 C.3     1  UNL1        0.1544
     23 C         -10.9577  -18.6272   24.8033 C.3     1  UNL1        0.2298
     24 O         -12.0722  -18.3021   23.8534 O.3     1  UNL1       -0.4734
     25 C         -11.1667  -16.3177   19.9173 C.ar    1  UNL1        0.0002
     26 C         -11.7956  -17.6793   19.9437 C.ar    1  UNL1        0.0031
     27 C         -12.0974  -18.3407   21.2557 C.ar    1  UNL1        0.0369
     28 C         -11.7703  -17.6407   22.5413 C.ar    1  UNL1        0.1386
     29 C         -11.1415  -16.2791   22.5149 C.ar    1  UNL1        0.0369
     30 C         -10.8397  -15.6177   21.2029 C.ar    1  UNL1        0.0031
@<TRIPOS>BOND
     1    25    26   ar
     2    26    27   ar
     3    27    28   ar
     4    28    24    1
     5    24    23    1
     6    23    22    1
     7    22     1    1
     8     1     2   ar
     9     2    10    1
    10    10    11    1
    11    11    12    1
    12    12    13    1
    13    13    14    1
    14    14    16    1
    15    16    17    1
    16    17    18   ar
    17    18    19   ar
    18    19    20   ar
    19    20    21   ar
    20    14    15    1
    21     2     3   ar
    22     3     4   ar
    23     4     5   ar
    24     5     6   ar
    25     6     7   ar
    26     7     8   ar
    27     8     9   ar
    28    28    29   ar
    29    29    30   ar
    30    30    25   ar
    31     9     1   ar
    32    15    10    1
    33     9     4   ar
    34    21    17   ar
@<TRIPOS>MOLECULE
*****
 30 34 0 0 0
SMALL
GASTEIGER

@<TRIPOS>ATOM
      1 N          -6.1073  -16.6007   24.1251 N.ar    1  UNL1       -0.3110
      2 C          -7.3574  -17.2440   23.6024 C.ar    1  UNL1        0.1213
      3 N          -8.4763  -16.9175   24.5466 N.ar    1  UNL1       -0.2309
      4 C          -7.9177  -16.0725   25.6528 C.ar    1  UNL1        0.0983
      5 C          -8.5531  -15.4560   26.8637 C.ar    1  UNL1        0.0206
      6 C          -7.7243  -14.6437   27.8140 C.ar    1  UNL1        0.0016
      7 C          -6.2601  -14.4479   27.5536 C.ar    1  UNL1        0.0016
      8 C          -5.6247  -15.0644   26.3427 C.ar    1  UNL1        0.0188
      9 C          -6.4535  -15.8767   25.3924 C.ar    1  UNL1        0.0787
     10 C          -7.4691  -18.0690   22.3546 C.3     1  UNL1        0.0729
     11 C          -6.3241  -18.9373   21.9246 C.3     1  UNL1        0.0103
     12 C          -6.4357  -19.7622   20.6768 C.3     1  UNL1        0.0178
     13 C          -7.6924  -19.7188   19.8590 C.3     1  UNL1        0.0725
     14 N          -8.8374  -18.8505   20.2890 N.3     1  UNL1       -0.2645
     15 C          -8.7258  -18.0256   21.5368 C.3     1  UNL1        0.0800
     16 C         -10.0942  -18.8071   19.4712 C.3     1  UNL1        0.1587
     17 C         -11.0951  -17.7119   19.6918 C.ar    1  UNL1        0.2223
     18 N         -12.2200  -17.7322   20.6839 N.ar    1  UNL1       -0.2092
     19 C         -12.9670  -16.4370   20.5643 C.ar    1  UNL1        0.1424
     20 C         -12.3037  -15.6161   19.4983 C.ar    1  UNL1        0.2018
     21 O         -11.1469  -16.4041   18.9591 O.2     1  UNL1       -0.4338
     22 C          -4.7493  -16.6694   23.4919 C.3     1  UNL1        0.1544
     23 C          -3.6908  -17.5539   24.0810 C.3     1  UNL1        0.2298
     24 O          -2.3982  -17.7659   23.3501 O.3     1  UNL1       -0.4734
     25 C          -2.4260  -18.6290   18.9337 C.ar    1  UNL1        0.0002
     26 C          -2.0254  -17.2714   19.4301 C.ar    1  UNL1        0.0031
     27 C          -2.0161  -16.9837   20.9022 C.ar    1  UNL1        0.0369
     28 C          -2.4074  -18.0536   21.8780 C.ar    1  UNL1        0.1386
     29 C          -2.8080  -19.4112   21.3816 C.ar    1  UNL1        0.0369
     30 C          -2.8173  -19.6989   19.9095 C.ar    1  UNL1        0.0031
@<TRIPOS>BOND
     1    25    26   ar
     2    26    27   ar
     3    27    28   ar
     4    28    24    1
     5    24    23    1
     6    23    22    1
     7    22     1    1
     8     1     2   ar
     9     2    10    1
    10    10    11    1
    11    11    12    1
    12    12    13    1
    13    13    14    1
    14    14    16    1
    15    16    17    1
    16    17    18   ar
    17    18    19   ar
    18    19    20   ar
    19    20    21   ar
    20    14    15    1
    21     2     3   ar
    22     3     4   ar
    23     4     5   ar
    24     5     6   ar
    25     6     7   ar
    26     7     8   ar
    27     8     9   ar
    28    28    29   ar
    29    29    30   ar
    30    30    25   ar
    31     9     1   ar
    32    15    10    1
    33     9     4   ar
    34    21    17   ar
@<TRIPOS>MOLECULE
*****
 30 34 0 0 0
SMALL
GASTEIGER

@<TRIPOS>ATOM
      1 N          -6.6526  -16.3001   23.8392 N.ar    1  UNL1       -0.3110
      2 C          -5.1615  -16.3388   23.9971 C.ar    1  UNL1        0.1213
      3 N          -4.8302  -15.8767   25.3852 N.ar    1  UNL1       -0.2309
      4 C          -6.1166  -15.5524   26.0851 C.ar    1  UNL1        0.0983
      5 C          -6.4079  -15.0526   27.4691 C.ar    1  UNL1        0.0206
      6 C          -7.8255  -14.8145   27.8975 C.ar    1  UNL1        0.0016
      7 C          -8.9519  -15.0762   26.9421 C.ar    1  UNL1        0.0016
      8 C          -8.6606  -15.5760   25.5582 C.ar    1  UNL1        0.0188
      9 C          -7.2430  -15.8141   25.1297 C.ar    1  UNL1        0.0787
     10 C          -4.1748  -16.7648   22.9507 C.3     1  UNL1        0.0729
     11 C          -2.9822  -15.9060   22.6504 C.3     1  UNL1        0.0103
     12 C          -1.9956  -16.3321   21.6040 C.3     1  UNL1        0.0178
     13 C          -2.2015  -17.6169   20.8579 C.3     1  UNL1        0.0725
     14 N          -3.3940  -18.4757   21.1582 N.3     1  UNL1       -0.2645
     15 C          -4.3807  -18.0497   22.2046 C.3     1  UNL1        0.0800
     16 C          -3.6000  -19.7606   20.4120 C.3     1  UNL1        0.1587
     17 C          -4.9887  -20.2230   20.0838 C.ar    1  UNL1        0.2223
     18 N          -6.1558  -19.3416   19.7509 N.ar    1  UNL1       -0.2092
     19 C          -7.3425  -20.2218   19.4921 C.ar    1  UNL1        0.1424
     20 C          -6.9088  -21.6472   19.6651 C.ar    1  UNL1        0.2018
     21 O          -5.4541  -21.6480   20.0308 O.2     1  UNL1       -0.4338
     22 C          -7.4190  -16.6807   22.6072 C.3     1  UNL1        0.1544
     23 C          -8.0123  -18.0530   22.4870 C.3     1  UNL1        0.2298
     24 O          -9.2288  -18.2724   21.6372 O.3     1  UNL1       -0.4734
     25 C         -13.3318  -17.9657   23.4597 C.ar    1  UNL1        0.0002
     26 C         -12.1807  -18.4630   24.2829 C.ar    1  UNL1        0.0031
     27 C         -10.8130  -18.5652   23.6754 C.ar    1  UNL1        0.0369
     28 C         -10.5964  -18.1702   22.2447 C.ar    1  UNL1        0.1386
     29 C         -11.7475  -17.6729   21.4215 C.ar    1  UNL1        0.0369
     30 C         -13.1152  -17.5707   22.0290 C.ar    1  UNL1        0.0031
@<TRIPOS>BOND
     1    25    26   ar
     2    26    27   ar
     3    27    28   ar
     4    28    24    1
     5    24    23    1
     6    23    22    1
     7    22     1    1
     8     1     2   ar
     9     2    10    1
    10    10    11    1
    11    11    12    1
    12    12    13    1
    13    13    14    1
    14    14    16    1
    15    16    17    1
    16    17    18   ar
    17    18    19   ar
    18    19    20   ar
    19    20    21   ar
    20    14    15    1
    21     2     3   ar
    22     3     4   ar
    23     4     5   ar
    24     5     6   ar
    25     6     7   ar
    26     7     8   ar
    27     8     9   ar
    28    28    29   ar
    29    29    30   ar
    30    30    25   ar
    31     9     1   ar
    32    15    10    1
    33     9     4   ar
    34    21    17   ar
@<TRIPOS>MOLECULE
*****
 30 34 0 0 0
SMALL
GASTEIGER

@<TRIPOS>ATOM
      1 N           5.7756   -3.3274   23.8669 N.ar    1  UNL1       -0.3110
      2 C           6.2035   -4.0227   22.6085 C.ar    1  UNL1        0.1213
      3 N           7.2467   -5.0376   22.9715 N.ar    1  UNL1       -0.2309
      4 C           7.4635   -4.9696   24.4542 C.ar    1  UNL1        0.0983
      5 C           8.3713   -5.7335   25.3719 C.ar    1  UNL1        0.0206
      6 C           8.3699   -5.4405   26.8430 C.ar    1  UNL1        0.0016
      7 C           7.4607   -4.3835   27.3963 C.ar    1  UNL1        0.0016
      8 C           6.5529   -3.6196   26.4787 C.ar    1  UNL1        0.0188
      9 C           6.5543   -3.9126   25.0076 C.ar    1  UNL1        0.0787
     10 C           5.6801   -3.7508   21.2293 C.3     1  UNL1        0.0729
     11 C           4.3509   -4.3042   20.8089 C.3     1  UNL1        0.0103
     12 C           3.8275   -4.0323   19.4297 C.3     1  UNL1        0.0178
     13 C           4.6334   -3.2070   18.4709 C.3     1  UNL1        0.0725
     14 N           5.9626   -2.6535   18.8913 N.3     1  UNL1       -0.2645
     15 C           6.4860   -2.9254   20.2705 C.3     1  UNL1        0.0800
     16 C           6.7686   -1.8282   17.9325 C.3     1  UNL1        0.1587
     17 C           6.4075   -0.3923   17.6917 C.ar    1  UNL1        0.2223
     18 N           6.9856    0.4961   16.6304 N.ar    1  UNL1       -0.2092
     19 C           6.3402    1.8447   16.7526 C.ar    1  UNL1        0.1424
     20 C           5.3633    1.7897   17.8895 C.ar    1  UNL1        0.2018
     21 O           5.4048    0.4071   18.4698 O.2     1  UNL1       -0.4338
     22 C           4.7492   -2.2382   23.9670 C.3     1  UNL1        0.1544
     23 C           5.0395   -0.8797   23.4013 C.3     1  UNL1        0.2298
     24 O           3.9633    0.1647   23.3683 O.3     1  UNL1       -0.4734
     25 C           0.6251   -0.1382   20.3658 C.ar    1  UNL1        0.0002
     26 C           0.5167    0.8214   21.5136 C.ar    1  UNL1        0.0031
     27 C           1.6295    0.9224   22.5144 C.ar    1  UNL1        0.0369
     28 C           2.8506    0.0637   22.3675 C.ar    1  UNL1        0.1386
     29 C           2.9589   -0.8959   21.2197 C.ar    1  UNL1        0.0369
     30 C           1.8462   -0.9968   20.2189 C.ar    1  UNL1        0.0031
@<TRIPOS>BOND
     1    25    26   ar
     2    26    27   ar
     3    27    28   ar
     4    28    24    1
     5    24    23    1
     6    23    22    1
     7    22     1    1
     8     1     2   ar
     9     2    10    1
    10    10    11    1
    11    11    12    1
    12    12    13    1
    13    13    14    1
    14    14    16    1
    15    16    17    1
    16    17    18   ar
    17    18    19   ar
    18    19    20   ar
    19    20    21   ar
    20    14    15    1
    21     2     3   ar
    22     3     4   ar
    23     4     5   ar
    24     5     6   ar
    25     6     7   ar
    26     7     8   ar
    27     8     9   ar
    28    28    29   ar
    29    29    30   ar
    30    30    25   ar
    31     9     1   ar
    32    15    10    1
    33     9     4   ar
    34    21    17   ar
