@<TRIPOS>MOLECULE
*****
 20 22 0 0 0
SMALL
GASTEIGER

@<TRIPOS>ATOM
      1 C          -6.7598  -20.0379   22.0002 C.2     1  UNL1        0.0420
      2 C          -8.1218  -19.6705   21.4905 C.2     1  UNL1        0.0033
      3 C          -9.2467  -19.4397   22.4556 C.ar    1  UNL1        0.0001
      4 C          -9.2221  -20.0923   23.8060 C.ar    1  UNL1        0.0000
      5 C         -10.3470  -19.8615   24.7711 C.ar    1  UNL1        0.0000
      6 C         -11.4964  -18.9782   24.3858 C.ar    1  UNL1        0.0000
      7 C         -11.5211  -18.3256   23.0354 C.ar    1  UNL1        0.0000
      8 C         -12.6705  -17.4423   22.6501 C.ar    1  UNL1        0.0000
      9 C         -12.6951  -16.7898   21.2998 C.ar    1  UNL1        0.0000
     10 C         -11.5702  -17.0205   20.3347 C.ar    1  UNL1        0.0000
     11 C         -10.4208  -17.9038   20.7199 C.ar    1  UNL1        0.0000
     12 C         -10.3962  -18.5564   22.0703 C.ar    1  UNL1        0.0000
     13 O          -5.6989  -21.4140   20.0687 O.2     1  UNL1       -0.2866
     14 C          -5.6349  -20.2687   21.0351 C.2     1  UNL1        0.1957
     15 C          -4.4460  -19.3540   21.0365 C.ar    1  UNL1        0.0420
     16 C          -3.6999  -19.0919   19.7619 C.ar    1  UNL1        0.0239
     17 C          -2.5111  -18.1773   19.7632 C.ar    1  UNL1        0.0990
     18 N          -2.0683  -17.5248   21.0391 N.ar    1  UNL1       -0.2423
     19 C          -2.8143  -17.7869   22.3138 C.ar    1  UNL1        0.0990
     20 C          -4.0032  -18.7015   22.3124 C.ar    1  UNL1        0.0239
@<TRIPOS>BOND
     1    13    14    2
     2    14     1    1
     3     1     2    2
     4     2     3    1
     5     3     4   ar
     6     4     5   ar
     7     5     6   ar
     8     6     7   ar
     9     7     8   ar
    10     8     9   ar
    11     9    10   ar
    12    10    11   ar
    13    11    12   ar
    14    14    15    1
    15    15    16   ar
    16    16    17   ar
    17    17    18   ar
    18    18    19   ar
    19    19    20   ar
    20    12     3   ar
    21    20    15   ar
    22    12     7   ar
@<TRIPOS>MOLECULE
*****
 20 22 0 0 0
SMALL
GASTEIGER

@<TRIPOS>ATOM
      1 C          -8.4416  -20.1537   22.9094 C.2     1  UNL1        0.0420
      2 C          -7.4291  -19.1491   22.4451 C.2     1  UNL1        0.0033
      3 C          -6.2106  -19.6031   21.6973 C.ar    1  UNL1        0.0001
      4 C          -6.3333  -20.6451   20.6254 C.ar    1  UNL1        0.0000
      5 C          -5.1148  -21.0990   19.8776 C.ar    1  UNL1        0.0000
      6 C          -3.7736  -20.5109   20.2017 C.ar    1  UNL1        0.0000
      7 C          -3.6508  -19.4688   21.2737 C.ar    1  UNL1        0.0000
      8 C          -2.3095  -18.8807   21.5978 C.ar    1  UNL1        0.0000
      9 C          -2.1868  -17.8386   22.6697 C.ar    1  UNL1        0.0000
     10 C          -3.4053  -17.3847   23.4174 C.ar    1  UNL1        0.0000
     11 C          -4.7465  -17.9728   23.0933 C.ar    1  UNL1        0.0000
     12 C          -4.8693  -19.0149   22.0215 C.ar    1  UNL1        0.0000
     13 O          -9.7615  -19.9295   25.1360 O.2     1  UNL1       -0.2866
     14 C          -9.6601  -19.6997   23.6572 C.2     1  UNL1        0.1957
     15 C         -10.7773  -19.0160   22.9261 C.ar    1  UNL1        0.0420
     16 C         -10.7524  -18.9310   21.4287 C.ar    1  UNL1        0.0239
     17 C         -11.8695  -18.2472   20.6977 C.ar    1  UNL1        0.0990
     18 N         -13.0116  -17.6485   21.4640 N.ar    1  UNL1       -0.2423
     19 C         -13.0365  -17.7335   22.9613 C.ar    1  UNL1        0.0990
     20 C         -11.9193  -18.4172   23.6924 C.ar    1  UNL1        0.0239
@<TRIPOS>BOND
     1    13    14    2
     2    14     1    1
     3     1     2    2
     4     2     3    1
     5     3     4   ar
     6     4     5   ar
     7     5     6   ar
     8     6     7   ar
     9     7     8   ar
    10     8     9   ar
    11     9    10   ar
    12    10    11   ar
    13    11    12   ar
    14    14    15    1
    15    15    16   ar
    16    16    17   ar
    17    17    18   ar
    18    18    19   ar
    19    19    20   ar
    20    12     3   ar
    21    20    15   ar
    22    12     7   ar
@<TRIPOS>MOLECULE
*****
 20 22 0 0 0
SMALL
GASTEIGER

@<TRIPOS>ATOM
      1 C          -7.0802  -19.2849   20.8775 C.2     1  UNL1        0.0420
      2 C          -8.4141  -19.8376   20.4714 C.2     1  UNL1        0.0033
      3 C          -9.6649  -19.0567   20.7467 C.ar    1  UNL1        0.0001
      4 C         -10.3040  -18.2540   19.6525 C.ar    1  UNL1        0.0000
      5 C         -11.5548  -17.4731   19.9278 C.ar    1  UNL1        0.0000
      6 C         -12.1663  -17.4948   21.2973 C.ar    1  UNL1        0.0000
      7 C         -11.5272  -18.2974   22.3915 C.ar    1  UNL1        0.0000
      8 C         -12.1388  -18.3191   23.7610 C.ar    1  UNL1        0.0000
      9 C         -11.4996  -19.1217   24.8551 C.ar    1  UNL1        0.0000
     10 C         -10.2489  -19.9027   24.5798 C.ar    1  UNL1        0.0000
     11 C          -9.6373  -19.8810   23.2104 C.ar    1  UNL1        0.0000
     12 C         -10.2764  -19.0784   22.1162 C.ar    1  UNL1        0.0000
     13 O          -5.9201  -21.4998   20.1715 O.2     1  UNL1       -0.2866
     14 C          -5.8294  -20.0658   20.6022 C.2     1  UNL1        0.1957
     15 C          -4.4880  -19.4128   20.7577 C.ar    1  UNL1        0.0420
     16 C          -4.0028  -19.0108   22.1189 C.ar    1  UNL1        0.0239
     17 C          -2.6614  -18.3577   22.2744 C.ar    1  UNL1        0.0990
     18 N          -1.8052  -18.1067   21.0687 N.ar    1  UNL1       -0.2423
     19 C          -2.2904  -18.5087   19.7074 C.ar    1  UNL1        0.0990
     20 C          -3.6318  -19.1617   19.5519 C.ar    1  UNL1        0.0239
@<TRIPOS>BOND
     1    13    14    2
     2    14     1    1
     3     1     2    2
     4     2     3    1
     5     3     4   ar
     6     4     5   ar
     7     5     6   ar
     8     6     7   ar
     9     7     8   ar
    10     8     9   ar
    11     9    10   ar
    12    10    11   ar
    13    11    12   ar
    14    14    15    1
    15    15    16   ar
    16    16    17   ar
    17    17    18   ar
    18    18    19   ar
    19    19    20   ar
    20    12     3   ar
    21    20    15   ar
    22    12     7   ar
@<TRIPOS>MOLECULE
*****
 20 22 0 0 0
SMALL
GASTEIGER

@<TRIPOS>ATOM
      1 C          -5.8232  -18.8184   21.3048 C.2     1  UNL1        0.0420
      2 C          -6.9168  -19.7337   21.7698 C.2     1  UNL1        0.0033
      3 C          -8.3302  -19.4997   21.3255 C.ar    1  UNL1        0.0001
      4 C          -8.6716  -19.5262   19.8652 C.ar    1  UNL1        0.0000
      5 C         -10.0850  -19.2922   19.4210 C.ar    1  UNL1        0.0000
      6 C         -11.1572  -19.0317   20.4371 C.ar    1  UNL1        0.0000
      7 C         -10.8159  -19.0052   21.8976 C.ar    1  UNL1        0.0000
      8 C         -11.8880  -18.7447   22.9137 C.ar    1  UNL1        0.0000
      9 C         -11.5467  -18.7182   24.3741 C.ar    1  UNL1        0.0000
     10 C         -10.1332  -18.9522   24.8183 C.ar    1  UNL1        0.0000
     11 C          -9.0611  -19.2127   23.8022 C.ar    1  UNL1        0.0000
     12 C          -9.4024  -19.2392   22.3418 C.ar    1  UNL1        0.0000
     13 O          -4.1360  -19.6335   23.1045 O.2     1  UNL1       -0.2866
     14 C          -4.4097  -19.0524   21.7490 C.2     1  UNL1        0.1957
     15 C          -3.2699  -18.7053   20.8377 C.ar    1  UNL1        0.0420
     16 C          -3.5093  -18.5424   19.3659 C.ar    1  UNL1        0.0239
     17 C          -2.3696  -18.1954   18.4545 C.ar    1  UNL1        0.0990
     18 N          -0.9905  -18.0112   19.0150 N.ar    1  UNL1       -0.2423
     19 C          -0.7511  -18.1741   20.4868 C.ar    1  UNL1        0.0990
     20 C          -1.8908  -18.5212   21.3981 C.ar    1  UNL1        0.0239
@<TRIPOS>BOND
     1    13    14    2
     2    14     1    1
     3     1     2    2
     4     2     3    1
     5     3     4   ar
     6     4     5   ar
     7     5     6   ar
     8     6     7   ar
     9     7     8   ar
    10     8     9   ar
    11     9    10   ar
    12    10    11   ar
    13    11    12   ar
    14    14    15    1
    15    15    16   ar
    16    16    17   ar
    17    17    18   ar
    18    18    19   ar
    19    19    20   ar
    20    12     3   ar
    21    20    15   ar
    22    12     7   ar
@<TRIPOS>MOLECULE
*****
 20 22 0 0 0
SMALL
GASTEIGER

@<TRIPOS>ATOM
      1 C          -7.8245  -17.2901   22.3081 C.2     1  UNL1        0.0420
      2 C          -7.1811  -18.5653   22.7660 C.2     1  UNL1        0.0033
      3 C          -6.2285  -19.2912   21.8628 C.ar    1  UNL1        0.0001
      4 C          -6.7477  -20.2939   20.8754 C.ar    1  UNL1        0.0000
      5 C          -5.7951  -21.0197   19.9722 C.ar    1  UNL1        0.0000
      6 C          -4.3233  -20.7429   20.0564 C.ar    1  UNL1        0.0000
      7 C          -3.8040  -19.7401   21.0439 C.ar    1  UNL1        0.0000
      8 C          -2.3322  -19.4633   21.1281 C.ar    1  UNL1        0.0000
      9 C          -1.8130  -18.4606   22.1155 C.ar    1  UNL1        0.0000
     10 C          -2.7656  -17.7348   23.0187 C.ar    1  UNL1        0.0000
     11 C          -4.2374  -18.0116   22.9345 C.ar    1  UNL1        0.0000
     12 C          -4.7566  -19.0143   21.9471 C.ar    1  UNL1        0.0000
     13 O          -8.2965  -15.4034   24.0308 O.2     1  UNL1       -0.2866
     14 C          -8.7770  -16.5642   23.2113 C.2     1  UNL1        0.1957
     15 C         -10.2102  -16.9993   23.2950 C.ar    1  UNL1        0.0420
     16 C         -10.5966  -18.1405   24.1886 C.ar    1  UNL1        0.0239
     17 C         -12.0296  -18.5755   24.2723 C.ar    1  UNL1        0.0990
     18 N         -13.0763  -17.8694   23.4625 N.ar    1  UNL1       -0.2423
     19 C         -12.6899  -16.7282   22.5690 C.ar    1  UNL1        0.0990
     20 C         -11.2569  -16.2931   22.4853 C.ar    1  UNL1        0.0239
@<TRIPOS>BOND
     1    13    14    2
     2    14     1    1
     3     1     2    2
     4     2     3    1
     5     3     4   ar
     6     4     5   ar
     7     5     6   ar
     8     6     7   ar
     9     7     8   ar
    10     8     9   ar
    11     9    10   ar
    12    10    11   ar
    13    11    12   ar
    14    14    15    1
    15    15    16   ar
    16    16    17   ar
    17    17    18   ar
    18    18    19   ar
    19    19    20   ar
    20    12     3   ar
    21    20    15   ar
    22    12     7   ar
@<TRIPOS>MOLECULE
*****
 20 22 0 0 0
SMALL
GASTEIGER

@<TRIPOS>ATOM
      1 C          -6.1076  -19.1546   21.8325 C.2     1  UNL1        0.0420
      2 C          -7.3227  -18.4615   21.2913 C.2     1  UNL1        0.0033
      3 C          -8.2072  -17.6717   22.2099 C.ar    1  UNL1        0.0001
      4 C          -7.6031  -16.8500   23.3098 C.ar    1  UNL1        0.0000
      5 C          -8.4876  -16.0602   24.2285 C.ar    1  UNL1        0.0000
      6 C          -9.9762  -16.0922   24.0472 C.ar    1  UNL1        0.0000
      7 C         -10.5804  -16.9139   22.9473 C.ar    1  UNL1        0.0000
      8 C         -12.0691  -16.9459   22.7661 C.ar    1  UNL1        0.0000
      9 C         -12.6732  -17.7676   21.6662 C.ar    1  UNL1        0.0000
     10 C         -11.7887  -18.5573   20.7475 C.ar    1  UNL1        0.0000
     11 C         -10.3001  -18.5254   20.9288 C.ar    1  UNL1        0.0000
     12 C          -9.6959  -17.7037   22.0287 C.ar    1  UNL1        0.0000
     13 O          -5.7431  -21.1897   20.2592 O.2     1  UNL1       -0.2866
     14 C          -5.2231  -19.9444   20.9139 C.2     1  UNL1        0.1957
     15 C          -3.8184  -19.4888   20.6500 C.ar    1  UNL1        0.0420
     16 C          -2.7656  -19.6539   21.7056 C.ar    1  UNL1        0.0239
     17 C          -1.3611  -19.1984   21.4418 C.ar    1  UNL1        0.0990
     18 N          -1.0093  -18.5776   20.1223 N.ar    1  UNL1       -0.2423
     19 C          -2.0622  -18.4125   19.0667 C.ar    1  UNL1        0.0990
     20 C          -3.4667  -18.8681   19.3306 C.ar    1  UNL1        0.0239
@<TRIPOS>BOND
     1    13    14    2
     2    14     1    1
     3     1     2    2
     4     2     3    1
     5     3     4   ar
     6     4     5   ar
     7     5     6   ar
     8     6     7   ar
     9     7     8   ar
    10     8     9   ar
    11     9    10   ar
    12    10    11   ar
    13    11    12   ar
    14    14    15    1
    15    15    16   ar
    16    16    17   ar
    17    17    18   ar
    18    18    19   ar
    19    19    20   ar
    20    12     3   ar
    21    20    15   ar
    22    12     7   ar
@<TRIPOS>MOLECULE
*****
 20 22 0 0 0
SMALL
GASTEIGER

@<TRIPOS>ATOM
      1 C          -6.5767  -19.8178   21.6039 C.2     1  UNL1        0.0420
      2 C          -7.2796  -18.5742   21.1466 C.2     1  UNL1        0.0033
      3 C          -8.3909  -17.9947   21.9708 C.ar    1  UNL1        0.0001
      4 C          -9.8134  -18.3754   21.6855 C.ar    1  UNL1        0.0000
      5 C         -10.9247  -17.7959   22.5097 C.ar    1  UNL1        0.0000
      6 C         -10.6134  -16.8356   23.6191 C.ar    1  UNL1        0.0000
      7 C          -9.1909  -16.4548   23.9045 C.ar    1  UNL1        0.0000
      8 C          -8.8796  -15.4945   25.0139 C.ar    1  UNL1        0.0000
      9 C          -7.4571  -15.1138   25.2992 C.ar    1  UNL1        0.0000
     10 C          -6.3458  -15.6933   24.4751 C.ar    1  UNL1        0.0000
     11 C          -6.6571  -16.6536   23.3656 C.ar    1  UNL1        0.0000
     12 C          -8.0796  -17.0343   23.0803 C.ar    1  UNL1        0.0000
     13 O          -5.7013  -21.6363   19.9679 O.2     1  UNL1       -0.2866
     14 C          -5.4654  -20.3973   20.7798 C.2     1  UNL1        0.1957
     15 C          -4.1182  -19.7378   20.7675 C.ar    1  UNL1        0.0420
     16 C          -3.4872  -19.3452   19.4646 C.ar    1  UNL1        0.0239
     17 C          -2.1400  -18.6857   19.4523 C.ar    1  UNL1        0.0990
     18 N          -1.4239  -18.4188   20.7430 N.ar    1  UNL1       -0.2423
     19 C          -2.0549  -18.8114   22.0459 C.ar    1  UNL1        0.0990
     20 C          -3.4021  -19.4709   22.0582 C.ar    1  UNL1        0.0239
@<TRIPOS>BOND
     1    13    14    2
     2    14     1    1
     3     1     2    2
     4     2     3    1
     5     3     4   ar
     6     4     5   ar
     7     5     6   ar
     8     6     7   ar
     9     7     8   ar
    10     8     9   ar
    11     9    10   ar
    12    10    11   ar
    13    11    12   ar
    14    14    15    1
    15    15    16   ar
    16    16    17   ar
    17    17    18   ar
    18    18    19   ar
    19    19    20   ar
    20    12     3   ar
    21    20    15   ar
    22    12     7   ar
@<TRIPOS>MOLECULE
*****
 20 22 0 0 0
SMALL
GASTEIGER

@<TRIPOS>ATOM
      1 C          -5.3730  -17.2730   23.1738 C.2     1  UNL1        0.0420
      2 C          -6.4253  -18.2386   22.7154 C.2     1  UNL1        0.0033
      3 C          -7.8569  -17.8001   22.6240 C.ar    1  UNL1        0.0001
      4 C          -8.4224  -16.8662   23.6525 C.ar    1  UNL1        0.0000
      5 C          -9.8540  -16.4277   23.5610 C.ar    1  UNL1        0.0000
      6 C         -10.7200  -16.9231   22.4410 C.ar    1  UNL1        0.0000
      7 C         -10.1545  -17.8570   21.4123 C.ar    1  UNL1        0.0000
      8 C         -11.0205  -18.3524   20.2923 C.ar    1  UNL1        0.0000
      9 C         -10.4550  -19.2863   19.2637 C.ar    1  UNL1        0.0000
     10 C          -9.0234  -19.7248   19.3552 C.ar    1  UNL1        0.0000
     11 C          -8.1574  -19.2295   20.4753 C.ar    1  UNL1        0.0000
     12 C          -8.7229  -18.2956   21.5038 C.ar    1  UNL1        0.0000
     13 O          -3.3721  -18.1433   24.5842 O.2     1  UNL1       -0.2866
     14 C          -3.9414  -17.7115   23.2653 C.2     1  UNL1        0.1957
     15 C          -3.0792  -17.7183   22.0378 C.ar    1  UNL1        0.0420
     16 C          -3.2128  -18.8244   21.0335 C.ar    1  UNL1        0.0239
     17 C          -2.3507  -18.8312   19.8061 C.ar    1  UNL1        0.0990
     18 N          -1.3549  -17.7318   19.5830 N.ar    1  UNL1       -0.2423
     19 C          -1.2212  -16.6257   20.5874 C.ar    1  UNL1        0.0990
     20 C          -2.0834  -16.6190   21.8148 C.ar    1  UNL1        0.0239
@<TRIPOS>BOND
     1    13    14    2
     2    14     1    1
     3     1     2    2
     4     2     3    1
     5     3     4   ar
     6     4     5   ar
     7     5     6   ar
     8     6     7   ar
     9     7     8   ar
    10     8     9   ar
    11     9    10   ar
    12    10    11   ar
    13    11    12   ar
    14    14    15    1
    15    15    16   ar
    16    16    17   ar
    17    17    18   ar
    18    18    19   ar
    19    19    20   ar
    20    12     3   ar
    21    20    15   ar
    22    12     7   ar
@<TRIPOS>MOLECULE
*****
 20 22 0 0 0
SMALL
GASTEIGER

@<TRIPOS>ATOM
      1 C          -5.7873  -18.1129   22.3633 C.2     1  UNL1        0.0420
      2 C          -6.2675  -19.3708   21.7023 C.2     1  UNL1        0.0033
      3 C          -7.6647  -19.4479   21.1620 C.ar    1  UNL1        0.0001
      4 C          -7.8908  -19.6263   19.6899 C.ar    1  UNL1        0.0000
      5 C          -9.2879  -19.7034   19.1496 C.ar    1  UNL1        0.0000
      6 C         -10.4590  -19.6021   20.0814 C.ar    1  UNL1        0.0000
      7 C         -10.2330  -19.4237   21.5536 C.ar    1  UNL1        0.0000
      8 C         -11.4041  -19.3223   22.4853 C.ar    1  UNL1        0.0000
      9 C         -11.1780  -19.1440   23.9574 C.ar    1  UNL1        0.0000
     10 C          -9.7808  -19.0669   24.4977 C.ar    1  UNL1        0.0000
     11 C          -8.6097  -19.1682   23.5659 C.ar    1  UNL1        0.0000
     12 C          -8.8358  -19.3466   22.0939 C.ar    1  UNL1        0.0000
     13 O          -4.1592  -18.0132   24.3856 O.2     1  UNL1       -0.2866
     14 C          -4.3901  -18.0358   22.9036 C.2     1  UNL1        0.1957
     15 C          -3.2238  -17.9814   21.9619 C.ar    1  UNL1        0.0420
     16 C          -2.8130  -19.2096   21.2050 C.ar    1  UNL1        0.0239
     17 C          -1.6467  -19.1552   20.2634 C.ar    1  UNL1        0.0990
     18 N          -0.8912  -17.8726   20.0786 N.ar    1  UNL1       -0.2423
     19 C          -1.3020  -16.6445   20.8355 C.ar    1  UNL1        0.0990
     20 C          -2.4682  -16.6988   21.7771 C.ar    1  UNL1        0.0239
@<TRIPOS>BOND
     1    13    14    2
     2    14     1    1
     3     1     2    2
     4     2     3    1
     5     3     4   ar
     6     4     5   ar
     7     5     6   ar
     8     6     7   ar
     9     7     8   ar
    10     8     9   ar
    11     9    10   ar
    12    10    11   ar
    13    11    12   ar
    14    14    15    1
    15    15    16   ar
    16    16    17   ar
    17    17    18   ar
    18    18    19   ar
    19    19    20   ar
    20    12     3   ar
    21    20    15   ar
    22    12     7   ar
