@<TRIPOS>MOLECULE
*****
 29 32 0 0 0
SMALL
GASTEIGER

@<TRIPOS>ATOM
      1 C          -8.1720  -18.7490   22.9434 C.ar    1  UNL1        0.0579
      2 C          -6.9335  -19.1495   22.1978 C.ar    1  UNL1        0.0833
      3 N          -5.8987  -18.0852   22.4126 N.ar    1  UNL1       -0.3028
      4 C          -6.4975  -17.0268   23.2909 C.ar    1  UNL1        0.0917
      5 C          -5.9449  -15.7426   23.8343 C.ar    1  UNL1        0.1561
      6 F          -4.5399  -15.3323   23.5062 F       1  UNL1       -0.2026
      7 C          -6.7973  -14.8686   24.7057 C.ar    1  UNL1        0.0311
      8 C          -8.2024  -15.2789   25.0337 C.ar    1  UNL1        0.0024
      9 C          -8.7549  -16.5631   24.4904 C.ar    1  UNL1        0.0017
     10 C          -7.9025  -17.4371   23.6189 C.ar    1  UNL1        0.0229
     11 C          -4.5089  -18.0800   21.8482 C.ar    1  UNL1        0.0641
     12 C          -4.2862  -18.4030   20.4003 C.ar    1  UNL1        0.0176
     13 C          -2.8964  -18.3979   19.8359 C.ar    1  UNL1        0.0026
     14 C          -1.7294  -18.0697   20.7193 C.ar    1  UNL1        0.0141
     15 C          -1.9521  -17.7467   22.1670 C.ar    1  UNL1        0.0026
     16 C          -3.3419  -17.7519   22.7315 C.ar    1  UNL1        0.0176
     17 C          -0.3396  -18.0646   20.1549 C.2     1  UNL1        0.0729
     18 O           0.4267  -16.7786   20.0603 O.co2   1  UNL1       -0.5446
     19 O           0.2837  -19.3454   19.6851 O.co2   1  UNL1       -0.5446
     20 C          -9.4547  -19.5242   23.0030 C.2     1  UNL1        0.1976
     21 O          -9.4507  -20.9452   23.4832 O.2     1  UNL1       -0.2865
     22 C          -9.9426  -18.8967   20.1102 C.3     1  UNL1        0.0312
     23 C         -10.9856  -18.5646   21.1359 C.ar    1  UNL1       -0.0179
     24 C         -12.2724  -17.9188   20.7152 C.ar    1  UNL1       -0.0041
     25 C         -13.3153  -17.5868   21.7409 C.ar    1  UNL1        0.0005
     26 C         -13.0713  -17.9005   23.1873 C.ar    1  UNL1        0.0115
     27 C         -11.7845  -18.5463   23.6080 C.ar    1  UNL1        0.0604
     28 CL        -11.5406  -18.8601   25.0544 Cl      1  UNL1       -0.0822
     29 C         -10.7416  -18.8784   22.5823 C.ar    1  UNL1        0.0456
@<TRIPOS>UNITY_ATOM_ATTR
18 1
charge -1
@<TRIPOS>BOND
     1    22    23    1
     2    23    24   ar
     3    24    25   ar
     4    25    26   ar
     5    26    27   ar
     6    27    28    1
     7    27    29   ar
     8    29    20    1
     9    20    21    2
    10    20     1    1
    11     1     2   ar
    12     2     3   ar
    13     3    11    1
    14    11    12   ar
    15    12    13   ar
    16    13    14   ar
    17    14    17    1
    18    17    18   ar
    19    17    19   ar
    20    14    15   ar
    21    15    16   ar
    22     3     4   ar
    23     4     5   ar
    24     5     6    1
    25     5     7   ar
    26     7     8   ar
    27     8     9   ar
    28     9    10   ar
    29    29    23   ar
    30    10     1   ar
    31    16    11   ar
    32    10     4   ar
@<TRIPOS>MOLECULE
*****
 29 32 0 0 0
SMALL
GASTEIGER

@<TRIPOS>ATOM
      1 C          -8.1965  -18.7179   22.9257 C.ar    1  UNL1        0.0579
      2 C          -6.9579  -19.1127   22.1772 C.ar    1  UNL1        0.0833
      3 N          -5.9198  -18.0549   22.4084 N.ar    1  UNL1       -0.3028
      4 C          -6.5168  -17.0064   23.2996 C.ar    1  UNL1        0.0917
      5 C          -5.9609  -15.7315   23.8613 C.ar    1  UNL1        0.1561
      6 F          -4.5538  -15.3218   23.5416 F       1  UNL1       -0.2026
      7 C          -6.8121  -14.8664   24.7428 C.ar    1  UNL1        0.0311
      8 C          -8.2192  -15.2761   25.0625 C.ar    1  UNL1        0.0024
      9 C          -8.7751  -16.5510   24.5007 C.ar    1  UNL1        0.0017
     10 C          -7.9239  -17.4162   23.6193 C.ar    1  UNL1        0.0229
     11 C          -4.5289  -18.0470   21.8468 C.ar    1  UNL1        0.0641
     12 C          -4.2926  -18.4556   20.4230 C.ar    1  UNL1        0.0176
     13 C          -2.9016  -18.4477   19.8615 C.ar    1  UNL1        0.0026
     14 C          -1.7471  -18.0312   20.7237 C.ar    1  UNL1        0.0141
     15 C          -1.9834  -17.6226   22.1475 C.ar    1  UNL1        0.0026
     16 C          -3.3744  -17.6305   22.7090 C.ar    1  UNL1        0.0176
     17 C          -0.3562  -18.0233   20.1622 C.2     1  UNL1        0.0729
     18 O           0.2560  -19.2961   19.6571 O.co2   1  UNL1       -0.5446
     19 O           0.4225  -16.7425   20.1057 O.co2   1  UNL1       -0.5446
     20 C          -9.4820  -19.4894   22.9722 C.2     1  UNL1        0.1976
     21 O          -9.4864  -20.9116   23.4490 O.2     1  UNL1       -0.2865
     22 C         -11.6085  -18.8793   24.9985 C.3     1  UNL1        0.0312
     23 C         -11.8266  -18.5336   23.5552 C.ar    1  UNL1       -0.0179
     24 C         -13.1078  -17.8829   23.1251 C.ar    1  UNL1       -0.0041
     25 C         -13.3257  -17.5372   21.6818 C.ar    1  UNL1        0.0005
     26 C         -12.2625  -17.8423   20.6687 C.ar    1  UNL1        0.0115
     27 C         -10.9813  -18.4930   21.0988 C.ar    1  UNL1        0.0604
     28 CL         -9.9180  -18.7981   20.0857 Cl      1  UNL1       -0.0822
     29 C         -10.7633  -18.8387   22.5421 C.ar    1  UNL1        0.0456
@<TRIPOS>UNITY_ATOM_ATTR
18 1
charge -1
@<TRIPOS>BOND
     1    22    23    1
     2    23    24   ar
     3    24    25   ar
     4    25    26   ar
     5    26    27   ar
     6    27    28    1
     7    27    29   ar
     8    29    20    1
     9    20    21    2
    10    20     1    1
    11     1     2   ar
    12     2     3   ar
    13     3    11    1
    14    11    12   ar
    15    12    13   ar
    16    13    14   ar
    17    14    17    1
    18    17    18   ar
    19    17    19   ar
    20    14    15   ar
    21    15    16   ar
    22     3     4   ar
    23     4     5   ar
    24     5     6    1
    25     5     7   ar
    26     7     8   ar
    27     8     9   ar
    28     9    10   ar
    29    29    23   ar
    30    10     1   ar
    31    16    11   ar
    32    10     4   ar
@<TRIPOS>MOLECULE
*****
 29 32 0 0 0
SMALL
GASTEIGER

@<TRIPOS>ATOM
      1 C           1.0251    2.4218   24.3085 C.ar    1  UNL1        0.0579
      2 C           2.0045    1.5988   23.5253 C.ar    1  UNL1        0.0833
      3 N           1.5061    1.5044   22.1137 N.ar    1  UNL1       -0.3028
      4 C           0.2187    2.2690   22.0245 C.ar    1  UNL1        0.0917
      5 C          -0.7213    2.5221   20.8833 C.ar    1  UNL1        0.1561
      6 F          -0.4240    1.9551   19.5268 F       1  UNL1       -0.2026
      7 C          -1.9585    3.3423   21.0987 C.ar    1  UNL1        0.0311
      8 C          -2.2559    3.9093   22.4552 C.ar    1  UNL1        0.0024
      9 C          -1.3159    3.6561   23.5963 C.ar    1  UNL1        0.0017
     10 C          -0.0786    2.8360   23.3810 C.ar    1  UNL1        0.0229
     11 C           2.1773    0.7737   20.9887 C.ar    1  UNL1        0.0641
     12 C           2.2342   -0.7253   20.9963 C.ar    1  UNL1        0.0176
     13 C           2.9054   -1.4561   19.8713 C.ar    1  UNL1        0.0026
     14 C           3.5197   -0.6879   18.7388 C.ar    1  UNL1        0.0141
     15 C           3.4628    0.8110   18.7313 C.ar    1  UNL1        0.0026
     16 C           2.7916    1.5417   19.8563 C.ar    1  UNL1        0.0176
     17 C           4.1909   -1.4187   17.6139 C.2     1  UNL1        0.0729
     18 O           3.9140   -1.0253   16.1931 O.co2   1  UNL1       -0.5446
     19 O           5.1389   -2.5428   17.9098 O.co2   1  UNL1       -0.5446
     20 C           1.1308    2.7696   25.7638 C.2     1  UNL1        0.1976
     21 O           1.6384    4.1190   26.1776 O.2     1  UNL1       -0.2865
     22 C          -1.6907    2.7141   26.7818 C.3     1  UNL1        0.0312
     23 C          -0.6819    1.7400   27.3145 C.ar    1  UNL1       -0.0179
     24 C          -1.0839    0.7383   28.3561 C.ar    1  UNL1       -0.0041
     25 C          -0.0751   -0.2357   28.8887 C.ar    1  UNL1        0.0005
     26 C           1.3356   -0.2080   28.3797 C.ar    1  UNL1        0.0115
     27 C           1.7376    0.7937   27.3381 C.ar    1  UNL1        0.0604
     28 CL          3.1483    0.8215   26.8291 Cl      1  UNL1       -0.0822
     29 C           0.7288    1.7678   26.8055 C.ar    1  UNL1        0.0456
@<TRIPOS>UNITY_ATOM_ATTR
18 1
charge -1
@<TRIPOS>BOND
     1    22    23    1
     2    23    24   ar
     3    24    25   ar
     4    25    26   ar
     5    26    27   ar
     6    27    28    1
     7    27    29   ar
     8    29    20    1
     9    20    21    2
    10    20     1    1
    11     1     2   ar
    12     2     3   ar
    13     3    11    1
    14    11    12   ar
    15    12    13   ar
    16    13    14   ar
    17    14    17    1
    18    17    18   ar
    19    17    19   ar
    20    14    15   ar
    21    15    16   ar
    22     3     4   ar
    23     4     5   ar
    24     5     6    1
    25     5     7   ar
    26     7     8   ar
    27     8     9   ar
    28     9    10   ar
    29    29    23   ar
    30    10     1   ar
    31    16    11   ar
    32    10     4   ar
@<TRIPOS>MOLECULE
*****
 29 32 0 0 0
SMALL
GASTEIGER

@<TRIPOS>ATOM
      1 C           3.2855   -1.2880   22.2766 C.ar    1  UNL1        0.0579
      2 C           3.1275   -0.7214   23.6564 C.ar    1  UNL1        0.0833
      3 N           2.0964    0.3663   23.5955 N.ar    1  UNL1       -0.3028
      4 C           1.6173    0.4720   22.1780 C.ar    1  UNL1        0.0917
      5 C           0.6067    1.3672   21.5243 C.ar    1  UNL1        0.1561
      6 F          -0.1282    2.3896   22.3394 F       1  UNL1       -0.2026
      7 C           0.3311    1.2399   20.0554 C.ar    1  UNL1        0.0311
      8 C           1.0660    0.2174   19.2402 C.ar    1  UNL1        0.0024
      9 C           2.0765   -0.6777   19.8939 C.ar    1  UNL1        0.0017
     10 C           2.3522   -0.5504   21.3629 C.ar    1  UNL1        0.0229
     11 C           1.6270    1.2017   24.7495 C.ar    1  UNL1        0.0641
     12 C           0.2222    1.0593   25.2560 C.ar    1  UNL1        0.0176
     13 C          -0.2473    1.8947   26.4100 C.ar    1  UNL1        0.0026
     14 C           0.6879    2.8726   27.0574 C.ar    1  UNL1        0.0141
     15 C           2.0926    3.0150   26.5509 C.ar    1  UNL1        0.0026
     16 C           2.5620    2.1796   25.3969 C.ar    1  UNL1        0.0176
     17 C           0.2184    3.7080   28.2114 C.2     1  UNL1        0.0729
     18 O           0.5419    3.2953   29.6168 O.co2   1  UNL1       -0.5446
     19 O          -0.5746    4.9561   27.9600 O.co2   1  UNL1       -0.5446
     20 C           4.2139   -2.3974   21.8800 C.2     1  UNL1        0.1976
     21 O           4.3259   -3.6239   22.7361 O.2     1  UNL1       -0.2865
     22 C           3.5173   -4.0507   19.4755 C.3     1  UNL1        0.0312
     23 C           4.6822   -3.1069   19.4248 C.ar    1  UNL1       -0.0179
     24 C           5.4986   -2.9899   18.1720 C.ar    1  UNL1       -0.0041
     25 C           6.6634   -2.0461   18.1214 C.ar    1  UNL1        0.0005
     26 C           7.0117   -1.2195   19.3236 C.ar    1  UNL1        0.0115
     27 C           6.1953   -1.3366   20.5765 C.ar    1  UNL1        0.0604
     28 CL          6.5436   -0.5099   21.7787 Cl      1  UNL1       -0.0822
     29 C           5.0305   -2.2803   20.6271 C.ar    1  UNL1        0.0456
@<TRIPOS>UNITY_ATOM_ATTR
18 1
charge -1
@<TRIPOS>BOND
     1    22    23    1
     2    23    24   ar
     3    24    25   ar
     4    25    26   ar
     5    26    27   ar
     6    27    28    1
     7    27    29   ar
     8    29    20    1
     9    20    21    2
    10    20     1    1
    11     1     2   ar
    12     2     3   ar
    13     3    11    1
    14    11    12   ar
    15    12    13   ar
    16    13    14   ar
    17    14    17    1
    18    17    18   ar
    19    17    19   ar
    20    14    15   ar
    21    15    16   ar
    22     3     4   ar
    23     4     5   ar
    24     5     6    1
    25     5     7   ar
    26     7     8   ar
    27     8     9   ar
    28     9    10   ar
    29    29    23   ar
    30    10     1   ar
    31    16    11   ar
    32    10     4   ar
@<TRIPOS>MOLECULE
*****
 29 32 0 0 0
SMALL
GASTEIGER

@<TRIPOS>ATOM
      1 C          -8.0441  -17.7168   22.8929 C.ar    1  UNL1        0.0579
      2 C          -6.5642  -17.4721   22.8868 C.ar    1  UNL1        0.0833
      3 N          -5.9853  -18.1619   21.6872 N.ar    1  UNL1       -0.3028
      4 C          -7.1074  -18.8329   20.9519 C.ar    1  UNL1        0.0917
      5 C          -7.1348  -19.6588   19.7000 C.ar    1  UNL1        0.1561
      6 F          -5.8624  -19.9338   18.9549 F       1  UNL1       -0.2026
      7 C          -8.4347  -20.2096   19.1934 C.ar    1  UNL1        0.0311
      8 C          -9.7072  -19.9346   19.9385 C.ar    1  UNL1        0.0024
      9 C          -9.6797  -19.1087   21.1903 C.ar    1  UNL1        0.0017
     10 C          -8.3798  -18.5578   21.6970 C.ar    1  UNL1        0.0229
     11 C          -4.5383  -18.1778   21.2923 C.ar    1  UNL1        0.0641
     12 C          -4.1558  -18.1211   19.8429 C.ar    1  UNL1        0.0176
     13 C          -2.7088  -18.1371   19.4479 C.ar    1  UNL1        0.0026
     14 C          -1.6443  -18.2097   20.5022 C.ar    1  UNL1        0.0141
     15 C          -2.0269  -18.2664   21.9515 C.ar    1  UNL1        0.0026
     16 C          -3.4739  -18.2505   22.3465 C.ar    1  UNL1        0.0176
     17 C          -0.1974  -18.2257   20.1073 C.2     1  UNL1        0.0729
     18 O           0.4555  -19.5142   19.7029 O.co2   1  UNL1       -0.5446
     19 O           0.5966  -16.9532   20.1167 O.co2   1  UNL1       -0.5446
     20 C          -9.0175  -17.2096   23.9153 C.2     1  UNL1        0.1976
     21 O          -8.5220  -16.4541   25.1126 O.2     1  UNL1       -0.2865
     22 C         -10.3516  -19.4371   25.4181 C.3     1  UNL1        0.0312
     23 C         -11.1536  -18.5717   24.4917 C.ar    1  UNL1       -0.0179
     24 C         -12.6224  -18.8201   24.3168 C.ar    1  UNL1       -0.0041
     25 C         -13.4243  -17.9547   23.3905 C.ar    1  UNL1        0.0005
     26 C         -12.7572  -16.8409   22.6391 C.ar    1  UNL1        0.0115
     27 C         -11.2883  -16.5926   22.8140 C.ar    1  UNL1        0.0604
     28 CL        -10.6213  -15.4788   22.0626 Cl      1  UNL1       -0.0822
     29 C         -10.4865  -17.4580   23.7403 C.ar    1  UNL1        0.0456
@<TRIPOS>UNITY_ATOM_ATTR
18 1
charge -1
@<TRIPOS>BOND
     1    22    23    1
     2    23    24   ar
     3    24    25   ar
     4    25    26   ar
     5    26    27   ar
     6    27    28    1
     7    27    29   ar
     8    29    20    1
     9    20    21    2
    10    20     1    1
    11     1     2   ar
    12     2     3   ar
    13     3    11    1
    14    11    12   ar
    15    12    13   ar
    16    13    14   ar
    17    14    17    1
    18    17    18   ar
    19    17    19   ar
    20    14    15   ar
    21    15    16   ar
    22     3     4   ar
    23     4     5   ar
    24     5     6    1
    25     5     7   ar
    26     7     8   ar
    27     8     9   ar
    28     9    10   ar
    29    29    23   ar
    30    10     1   ar
    31    16    11   ar
    32    10     4   ar
@<TRIPOS>MOLECULE
*****
 29 32 0 0 0
SMALL
GASTEIGER

@<TRIPOS>ATOM
      1 C          -0.9137    3.3459   21.0937 C.ar    1  UNL1        0.0579
      2 C          -0.0956    2.5989   20.0824 C.ar    1  UNL1        0.0833
      3 N           0.7782    1.6276   20.8193 N.ar    1  UNL1       -0.3028
      4 C           0.5001    1.7743   22.2860 C.ar    1  UNL1        0.0917
      5 C           1.0639    1.0781   23.4891 C.ar    1  UNL1        0.1561
      6 F           2.1096    0.0161   23.3195 F       1  UNL1       -0.2026
      7 C           0.5821    1.4439   24.8616 C.ar    1  UNL1        0.0311
      8 C          -0.4636    2.5058   25.0312 C.ar    1  UNL1        0.0024
      9 C          -1.0275    3.2020   23.8281 C.ar    1  UNL1        0.0017
     10 C          -0.5456    2.8363   22.4556 C.ar    1  UNL1        0.0229
     11 C           1.7581    0.6766   20.1986 C.ar    1  UNL1        0.0641
     12 C           1.5799   -0.8028   20.3715 C.ar    1  UNL1        0.0176
     13 C           2.5598   -1.7539   19.7508 C.ar    1  UNL1        0.0026
     14 C           3.7179   -1.2256   18.9571 C.ar    1  UNL1        0.0141
     15 C           3.8960    0.2537   18.7843 C.ar    1  UNL1        0.0026
     16 C           2.9161    1.2047   19.4050 C.ar    1  UNL1        0.0176
     17 C           4.6978   -2.1767   18.3364 C.2     1  UNL1        0.0729
     18 O           5.7248   -1.6693   17.3680 O.co2   1  UNL1       -0.5446
     19 O           4.6505   -3.6350   18.6840 O.co2   1  UNL1       -0.5446
     20 C          -1.9229    4.4149   20.7954 C.2     1  UNL1        0.1976
     21 O          -1.7077    5.8111   21.2994 O.2     1  UNL1       -0.2865
     22 C          -4.4005    3.4330   22.1728 C.3     1  UNL1        0.0312
     23 C          -4.3862    3.5966   20.6818 C.ar    1  UNL1       -0.0179
     24 C          -5.6106    3.2692   19.8796 C.ar    1  UNL1       -0.0041
     25 C          -5.5962    3.4328   18.3886 C.ar    1  UNL1        0.0005
     26 C          -4.3574    3.9237   17.6999 C.ar    1  UNL1        0.0115
     27 C          -3.1330    4.2511   18.5021 C.ar    1  UNL1        0.0604
     28 CL         -1.8942    4.7420   17.8134 Cl      1  UNL1       -0.0822
     29 C          -3.1474    4.0875   19.9931 C.ar    1  UNL1        0.0456
@<TRIPOS>UNITY_ATOM_ATTR
18 1
charge -1
@<TRIPOS>BOND
     1    22    23    1
     2    23    24   ar
     3    24    25   ar
     4    25    26   ar
     5    26    27   ar
     6    27    28    1
     7    27    29   ar
     8    29    20    1
     9    20    21    2
    10    20     1    1
    11     1     2   ar
    12     2     3   ar
    13     3    11    1
    14    11    12   ar
    15    12    13   ar
    16    13    14   ar
    17    14    17    1
    18    17    18   ar
    19    17    19   ar
    20    14    15   ar
    21    15    16   ar
    22     3     4   ar
    23     4     5   ar
    24     5     6    1
    25     5     7   ar
    26     7     8   ar
    27     8     9   ar
    28     9    10   ar
    29    29    23   ar
    30    10     1   ar
    31    16    11   ar
    32    10     4   ar
@<TRIPOS>MOLECULE
*****
 29 32 0 0 0
SMALL
GASTEIGER

@<TRIPOS>ATOM
      1 C          -0.8887    3.3515   21.1871 C.ar    1  UNL1        0.0579
      2 C          -0.0429    2.6221   20.1858 C.ar    1  UNL1        0.0833
      3 N           0.8088    1.6362   20.9292 N.ar    1  UNL1       -0.3028
      4 C           0.4893    1.7562   22.3899 C.ar    1  UNL1        0.0917
      5 C           1.0181    1.0372   23.5954 C.ar    1  UNL1        0.1561
      6 F           2.0672   -0.0230   23.4360 F       1  UNL1       -0.2026
      7 C           0.4978    1.3783   24.9602 C.ar    1  UNL1        0.0311
      8 C          -0.5513    2.4385   25.1196 C.ar    1  UNL1        0.0024
      9 C          -1.0801    3.1576   23.9141 C.ar    1  UNL1        0.0017
     10 C          -0.5598    2.8164   22.5493 C.ar    1  UNL1        0.0229
     11 C           1.8050    0.6953   20.3191 C.ar    1  UNL1        0.0641
     12 C           1.5725   -0.7855   20.3790 C.ar    1  UNL1        0.0176
     13 C           2.5688   -1.7263   19.7688 C.ar    1  UNL1        0.0026
     14 C           3.7975   -1.1866   19.0988 C.ar    1  UNL1        0.0141
     15 C           4.0300    0.2941   19.0390 C.ar    1  UNL1        0.0026
     16 C           3.0337    1.2350   19.6491 C.ar    1  UNL1        0.0176
     17 C           4.7937   -2.1274   18.4887 C.2     1  UNL1        0.0729
     18 O           4.9284   -3.5242   19.0187 O.co2   1  UNL1       -0.5446
     19 O           5.6553   -1.6714   17.3487 O.co2   1  UNL1       -0.5446
     20 C          -1.8880    4.4273   20.8801 C.2     1  UNL1        0.1976
     21 O          -1.6853    5.8140   21.4146 O.2     1  UNL1       -0.2865
     22 C          -1.8222    4.9365   17.9244 C.3     1  UNL1        0.0312
     23 C          -3.0573    4.3708   18.5606 C.ar    1  UNL1       -0.0179
     24 C          -4.2593    4.0598   17.7190 C.ar    1  UNL1       -0.0041
     25 C          -5.4942    3.4941   18.3553 C.ar    1  UNL1        0.0005
     26 C          -5.5271    3.2394   19.8332 C.ar    1  UNL1        0.0115
     27 C          -4.3251    3.5505   20.6748 C.ar    1  UNL1        0.0604
     28 CL         -4.3580    3.2958   22.1526 Cl      1  UNL1       -0.0822
     29 C          -3.0901    4.1162   20.0385 C.ar    1  UNL1        0.0456
@<TRIPOS>UNITY_ATOM_ATTR
18 1
charge -1
@<TRIPOS>BOND
     1    22    23    1
     2    23    24   ar
     3    24    25   ar
     4    25    26   ar
     5    26    27   ar
     6    27    28    1
     7    27    29   ar
     8    29    20    1
     9    20    21    2
    10    20     1    1
    11     1     2   ar
    12     2     3   ar
    13     3    11    1
    14    11    12   ar
    15    12    13   ar
    16    13    14   ar
    17    14    17    1
    18    17    18   ar
    19    17    19   ar
    20    14    15   ar
    21    15    16   ar
    22     3     4   ar
    23     4     5   ar
    24     5     6    1
    25     5     7   ar
    26     7     8   ar
    27     8     9   ar
    28     9    10   ar
    29    29    23   ar
    30    10     1   ar
    31    16    11   ar
    32    10     4   ar
@<TRIPOS>MOLECULE
*****
 29 32 0 0 0
SMALL
GASTEIGER

@<TRIPOS>ATOM
      1 C           7.1978   -2.8464   23.1472 C.ar    1  UNL1        0.0579
      2 C           6.9316   -2.6418   24.6092 C.ar    1  UNL1        0.0833
      3 N           7.3833   -3.8719   25.3391 N.ar    1  UNL1       -0.3028
      4 C           7.9286   -4.8368   24.3282 C.ar    1  UNL1        0.0917
      5 C           8.5147   -6.2105   24.4663 C.ar    1  UNL1        0.1561
      6 F           8.6294   -6.8444   25.8210 F       1  UNL1       -0.2026
      7 C           8.9862   -6.9505   23.2497 C.ar    1  UNL1        0.0311
      8 C           8.8716   -6.3167   21.8951 C.ar    1  UNL1        0.0024
      9 C           8.2854   -4.9429   21.7570 C.ar    1  UNL1        0.0017
     10 C           7.8140   -4.2029   22.9736 C.ar    1  UNL1        0.0229
     11 C           7.3037   -4.0976   26.8198 C.ar    1  UNL1        0.0641
     12 C           6.4663   -5.2170   27.3640 C.ar    1  UNL1        0.0176
     13 C           6.3867   -5.4427   28.8447 C.ar    1  UNL1        0.0026
     14 C           7.1443   -4.5491   29.7814 C.ar    1  UNL1        0.0141
     15 C           7.9816   -3.4298   29.2374 C.ar    1  UNL1        0.0026
     16 C           8.0612   -3.2041   27.7566 C.ar    1  UNL1        0.0176
     17 C           7.0647   -4.7748   31.2622 C.2     1  UNL1        0.0729
     18 O           7.3234   -3.6404   32.2088 O.co2   1  UNL1       -0.5446
     19 O           6.7263   -6.1350   31.7963 O.co2   1  UNL1       -0.5446
     20 C           6.9001   -1.8665   22.0512 C.2     1  UNL1        0.1976
     21 O           7.5504   -0.5149   22.0565 O.2     1  UNL1       -0.2865
     22 C           3.9469   -1.9363   22.5743 C.3     1  UNL1        0.0312
     23 C           4.4753   -2.2731   21.2114 C.ar    1  UNL1       -0.0179
     24 C           3.5271   -2.6449   20.1102 C.ar    1  UNL1       -0.0041
     25 C           4.0556   -2.9816   18.7474 C.ar    1  UNL1        0.0005
     26 C           5.5322   -2.9467   18.4859 C.ar    1  UNL1        0.0115
     27 C           6.4804   -2.5750   19.5871 C.ar    1  UNL1        0.0604
     28 CL          7.9570   -2.5401   19.3255 Cl      1  UNL1       -0.0822
     29 C           5.9519   -2.2382   20.9499 C.ar    1  UNL1        0.0456
@<TRIPOS>UNITY_ATOM_ATTR
18 1
charge -1
@<TRIPOS>BOND
     1    22    23    1
     2    23    24   ar
     3    24    25   ar
     4    25    26   ar
     5    26    27   ar
     6    27    28    1
     7    27    29   ar
     8    29    20    1
     9    20    21    2
    10    20     1    1
    11     1     2   ar
    12     2     3   ar
    13     3    11    1
    14    11    12   ar
    15    12    13   ar
    16    13    14   ar
    17    14    17    1
    18    17    18   ar
    19    17    19   ar
    20    14    15   ar
    21    15    16   ar
    22     3     4   ar
    23     4     5   ar
    24     5     6    1
    25     5     7   ar
    26     7     8   ar
    27     8     9   ar
    28     9    10   ar
    29    29    23   ar
    30    10     1   ar
    31    16    11   ar
    32    10     4   ar
@<TRIPOS>MOLECULE
*****
 29 32 0 0 0
SMALL
GASTEIGER

@<TRIPOS>ATOM
      1 C           2.8329   -0.0136   25.4902 C.ar    1  UNL1        0.0579
      2 C           3.6258   -0.5445   24.3328 C.ar    1  UNL1        0.0833
      3 N           3.0233   -0.0021   23.0707 N.ar    1  UNL1       -0.3028
      4 C           1.8582    0.8639   23.4481 C.ar    1  UNL1        0.0917
      5 C           0.8892    1.6580   22.6233 C.ar    1  UNL1        0.1561
      6 F           1.0068    1.6652   21.1279 F       1  UNL1       -0.2026
      7 C          -0.1975    2.4450   23.2938 C.ar    1  UNL1        0.0311
      8 C          -0.3152    2.4379   24.7892 C.ar    1  UNL1        0.0024
      9 C           0.6538    1.6438   25.6140 C.ar    1  UNL1        0.0017
     10 C           1.7405    0.8568   24.9434 C.ar    1  UNL1        0.0229
     11 C           3.5020   -0.2774   21.6760 C.ar    1  UNL1        0.0641
     12 C           2.8397   -1.3418   20.8521 C.ar    1  UNL1        0.0176
     13 C           3.3184   -1.6171   19.4575 C.ar    1  UNL1        0.0026
     14 C           4.4593   -0.8281   18.8867 C.ar    1  UNL1        0.0141
     15 C           5.1215    0.2362   19.7105 C.ar    1  UNL1        0.0026
     16 C           4.6429    0.5115   21.1052 C.ar    1  UNL1        0.0176
     17 C           4.9380   -1.1034   17.4920 C.2     1  UNL1        0.0729
     18 O           6.3672   -1.4904   17.2523 O.co2   1  UNL1       -0.5446
     19 O           3.9874   -0.9917   16.3371 O.co2   1  UNL1       -0.5446
     20 C           3.0877   -0.3025   26.9399 C.2     1  UNL1        0.1976
     21 O           3.4194   -1.6976   27.3797 O.2     1  UNL1       -0.2865
     22 C           0.7757   -0.1705   28.8470 C.3     1  UNL1        0.0312
     23 C           1.8548    0.8699   28.9035 C.ar    1  UNL1       -0.0179
     24 C           1.7779    1.9762   29.9135 C.ar    1  UNL1       -0.0041
     25 C           2.8570    3.0166   29.9699 C.ar    1  UNL1        0.0005
     26 C           4.0130    2.9506   29.0163 C.ar    1  UNL1        0.0115
     27 C           4.0900    1.8443   28.0063 C.ar    1  UNL1        0.0604
     28 CL          5.2460    1.7783   27.0528 Cl      1  UNL1       -0.0822
     29 C           3.0108    0.8039   27.9499 C.ar    1  UNL1        0.0456
@<TRIPOS>UNITY_ATOM_ATTR
18 1
charge -1
@<TRIPOS>BOND
     1    22    23    1
     2    23    24   ar
     3    24    25   ar
     4    25    26   ar
     5    26    27   ar
     6    27    28    1
     7    27    29   ar
     8    29    20    1
     9    20    21    2
    10    20     1    1
    11     1     2   ar
    12     2     3   ar
    13     3    11    1
    14    11    12   ar
    15    12    13   ar
    16    13    14   ar
    17    14    17    1
    18    17    18   ar
    19    17    19   ar
    20    14    15   ar
    21    15    16   ar
    22     3     4   ar
    23     4     5   ar
    24     5     6    1
    25     5     7   ar
    26     7     8   ar
    27     8     9   ar
    28     9    10   ar
    29    29    23   ar
    30    10     1   ar
    31    16    11   ar
    32    10     4   ar
