@<TRIPOS>MOLECULE
*****
 33 37 0 0 0
SMALL
GASTEIGER

@<TRIPOS>ATOM
      1 N          -2.8519  -17.7800   21.8609 N.3     1  UNL1       -0.2726
      2 C          -1.6864  -18.5849   21.3672 C.3     1  UNL1        0.0721
      3 C          -2.2241  -19.7608   20.6068 C.3     1  UNL1        0.0190
      4 C          -3.7219  -19.6826   20.6306 C.3     1  UNL1        0.0201
      5 C          -3.9567  -20.9294   19.8303 C.3     1  UNL1        0.0061
      6 C          -5.1222  -20.1245   20.3241 C.3     1  UNL1        0.0237
      7 C          -4.1099  -18.4584   21.4057 C.3     1  UNL1        0.0724
      8 C          -6.6035  -19.9149   20.4321 C.ar    1  UNL1       -0.0225
      9 C          -7.4286  -19.7395   19.1918 C.ar    1  UNL1       -0.0043
     10 C          -8.9100  -19.5299   19.2999 C.ar    1  UNL1        0.0035
     11 C          -9.5662  -19.4956   20.6483 C.ar    1  UNL1        0.0714
     12 C          -8.7410  -19.6710   21.8886 C.ar    1  UNL1        0.0035
     13 C          -7.2597  -19.8806   21.7805 C.ar    1  UNL1       -0.0043
     14 C         -11.0475  -19.2860   20.7564 C.3     1  UNL1        0.4186
     15 F         -12.5289  -19.0763   20.8644 F       1  UNL1       -0.1659
     16 F         -11.1519  -20.4854   21.6510 F       1  UNL1       -0.1659
     17 F         -10.9430  -18.0865   19.8617 F       1  UNL1       -0.1659
     18 C          -2.7732  -16.5182   22.6682 C.3     1  UNL1        0.0730
     19 C          -3.9914  -15.6597   22.8385 C.3     1  UNL1        0.0294
     20 C          -4.9151  -15.8897   23.9978 C.3     1  UNL1        0.0666
     21 S          -6.1851  -15.1000   24.1130 S.3     1  UNL1       -0.0756
     22 C          -9.6652  -16.5424   23.1778 C.ar    1  UNL1        0.2029
     23 N          -9.1017  -16.2417   21.8206 N.ar    1  UNL1       -0.1250
     24 N          -7.7295  -15.6648   22.0057 N.ar    1  UNL1       -0.1220
     25 C          -7.4449  -15.6089   23.4774 C.ar    1  UNL1        0.1933
     26 N          -8.6411  -16.1513   24.2018 N.ar    1  UNL1       -0.2860
     27 C          -8.7877  -16.2799   25.6891 C.3     1  UNL1        0.1341
     28 C         -10.2533  -19.2574   24.8902 C.3     1  UNL1        0.0556
     29 C         -11.2858  -18.3787   24.2484 C.ar    1  UNL1        0.1001
     30 N         -12.7700  -18.5937   24.2810 N.ar    1  UNL1       -0.2085
     31 C         -13.4169  -17.4787   23.5141 C.ar    1  UNL1        0.2849
     32 O         -12.3325  -16.5745   23.0075 O.2     1  UNL1       -0.4283
     33 C         -11.0155  -17.1308   23.4613 C.ar    1  UNL1        0.1964
@<TRIPOS>BOND
     1    28    29    1
     2    29    30   ar
     3    30    31   ar
     4    31    32   ar
     5    32    33   ar
     6    33    22    1
     7    22    23   ar
     8    23    24   ar
     9    24    25   ar
    10    25    21    1
    11    21    20    1
    12    20    19    1
    13    19    18    1
    14    18     1    1
    15     1     2    1
    16     2     3    1
    17     4     3    1
    18     4     5    1
    19     5     6    1
    20     6     8    1
    21     8     9   ar
    22     9    10   ar
    23    10    11   ar
    24    11    14    1
    25    14    15    1
    26    14    16    1
    27    14    17    1
    28    11    12   ar
    29    12    13   ar
    30     4     7    1
    31    25    26   ar
    32    26    27    1
    33    33    29   ar
    34    26    22   ar
    35     7     1    1
    36     6     4    1
    37    13     8   ar
@<TRIPOS>MOLECULE
*****
 33 37 0 0 0
SMALL
GASTEIGER

@<TRIPOS>ATOM
      1 N          -3.3765  -19.3228   20.4807 N.3     1  UNL1       -0.2726
      2 C          -2.0921  -18.9063   19.8273 C.3     1  UNL1        0.0721
      3 C          -1.6404  -17.6269   20.4669 C.3     1  UNL1        0.0190
      4 C          -2.6455  -17.2527   21.5156 C.3     1  UNL1        0.0201
      5 C          -1.9534  -15.9967   21.9552 C.3     1  UNL1        0.0061
      6 C          -3.2377  -16.4133   22.6086 C.3     1  UNL1        0.0237
      7 C          -3.7185  -18.3009   21.5241 C.3     1  UNL1        0.0724
      8 C          -4.3211  -16.1691   23.6168 C.ar    1  UNL1       -0.0225
      9 C          -5.5429  -15.3891   23.2309 C.ar    1  UNL1       -0.0043
     10 C          -6.6263  -15.1449   24.2391 C.ar    1  UNL1        0.0035
     11 C          -6.4879  -15.6808   25.6333 C.ar    1  UNL1        0.0714
     12 C          -5.2662  -16.4609   26.0192 C.ar    1  UNL1        0.0035
     13 C          -4.1828  -16.7050   25.0110 C.ar    1  UNL1       -0.0043
     14 C          -7.5714  -15.4367   26.6415 C.3     1  UNL1        0.4186
     15 F          -8.6548  -15.1925   27.6499 F       1  UNL1       -0.1659
     16 F          -8.5402  -15.1538   25.5319 F       1  UNL1       -0.1659
     17 F          -6.6025  -15.7195   27.7511 F       1  UNL1       -0.1659
     18 C          -4.1781  -20.5465   20.1489 C.3     1  UNL1        0.0730
     19 C          -5.4848  -20.7975   20.8413 C.3     1  UNL1        0.0294
     20 C          -6.7721  -20.6762   20.0808 C.3     1  UNL1        0.0666
     21 S          -7.4837  -19.3573   20.0164 S.3     1  UNL1       -0.0756
     22 C         -10.0699  -18.3691   22.7368 C.ar    1  UNL1        0.2029
     23 N          -8.8033  -17.8273   23.3304 N.ar    1  UNL1       -0.1250
     24 N          -7.6804  -18.1315   22.3836 N.ar    1  UNL1       -0.1220
     25 C          -8.2529  -18.8614   21.2048 C.ar    1  UNL1        0.1933
     26 N          -9.7297  -19.0083   21.4231 N.ar    1  UNL1       -0.2860
     27 C         -10.6965  -19.6768   20.4913 C.3     1  UNL1        0.1341
     28 C         -12.6152  -16.7198   21.5323 C.3     1  UNL1        0.0556
     29 C         -12.6065  -17.5283   22.7957 C.ar    1  UNL1        0.1001
     30 N         -13.7663  -17.7206   23.7273 N.ar    1  UNL1       -0.2085
     31 C         -13.3132  -18.5976   24.8568 C.ar    1  UNL1        0.2849
     32 O         -11.8734  -18.9473   24.6232 O.2     1  UNL1       -0.4283
     33 C         -11.4366  -18.2864   23.3494 C.ar    1  UNL1        0.1964
@<TRIPOS>BOND
     1    28    29    1
     2    29    30   ar
     3    30    31   ar
     4    31    32   ar
     5    32    33   ar
     6    33    22    1
     7    22    23   ar
     8    23    24   ar
     9    24    25   ar
    10    25    21    1
    11    21    20    1
    12    20    19    1
    13    19    18    1
    14    18     1    1
    15     1     2    1
    16     2     3    1
    17     4     3    1
    18     4     5    1
    19     5     6    1
    20     6     8    1
    21     8     9   ar
    22     9    10   ar
    23    10    11   ar
    24    11    14    1
    25    14    15    1
    26    14    16    1
    27    14    17    1
    28    11    12   ar
    29    12    13   ar
    30     4     7    1
    31    25    26   ar
    32    26    27    1
    33    33    29   ar
    34    26    22   ar
    35     7     1    1
    36     6     4    1
    37    13     8   ar
@<TRIPOS>MOLECULE
*****
 33 37 0 0 0
SMALL
GASTEIGER

@<TRIPOS>ATOM
      1 N         -10.4152  -19.1110   20.6944 N.3     1  UNL1       -0.2726
      2 C         -11.1596  -19.7322   21.8390 C.3     1  UNL1        0.0721
      3 C         -10.1510  -20.2569   22.8175 C.3     1  UNL1        0.0190
      4 C          -8.7833  -19.9600   22.2777 C.3     1  UNL1        0.0201
      5 C          -8.0277  -20.5735   23.4189 C.3     1  UNL1        0.0061
      6 C          -7.2833  -19.9523   22.2743 C.3     1  UNL1        0.0237
      7 C          -8.9467  -19.2517   20.9655 C.3     1  UNL1        0.0724
      8 C          -5.9876  -19.5893   21.6116 C.ar    1  UNL1       -0.0225
      9 C          -5.9706  -19.1917   20.1653 C.ar    1  UNL1       -0.0043
     10 C          -4.6748  -18.8286   19.5025 C.ar    1  UNL1        0.0035
     11 C          -3.3962  -18.8632   20.2860 C.ar    1  UNL1        0.0714
     12 C          -3.4133  -19.2608   21.7323 C.ar    1  UNL1        0.0035
     13 C          -4.7090  -19.6238   22.3951 C.ar    1  UNL1       -0.0043
     14 C          -2.1005  -18.5001   19.6232 C.3     1  UNL1        0.4186
     15 F          -0.8047  -18.1371   18.9605 F       1  UNL1       -0.1659
     16 F          -2.8407  -17.6252   18.6554 F       1  UNL1       -0.1659
     17 F          -1.3603  -19.3750   20.5911 F       1  UNL1       -0.1659
     18 C         -11.0313  -18.4628   19.4902 C.3     1  UNL1        0.0730
     19 C         -11.5232  -17.0480   19.5691 C.3     1  UNL1        0.0294
     20 C         -12.3926  -16.6188   20.7138 C.3     1  UNL1        0.0666
     21 S         -11.7686  -16.1465   21.9934 S.3     1  UNL1       -0.0756
     22 C          -7.9873  -15.7759   22.7872 C.ar    1  UNL1        0.2029
     23 N          -8.0817  -15.0476   21.4792 N.ar    1  UNL1       -0.1250
     24 N          -9.5097  -15.0978   21.0227 N.ar    1  UNL1       -0.1220
     25 C         -10.2978  -15.8571   22.0485 C.ar    1  UNL1        0.1933
     26 N          -9.3570  -16.2762   23.1390 N.ar    1  UNL1       -0.2860
     27 C          -9.7218  -17.0583   24.3659 C.3     1  UNL1        0.1341
     28 C          -7.6583  -15.1442   25.9719 C.3     1  UNL1        0.0556
     29 C          -6.5907  -15.6795   25.0643 C.ar    1  UNL1        0.1001
     30 N          -5.1845  -16.0185   25.4612 N.ar    1  UNL1       -0.2085
     31 C          -4.4666  -16.5183   24.2427 C.ar    1  UNL1        0.2849
     32 O          -5.4291  -16.4883   23.0927 O.2     1  UNL1       -0.4283
     33 C          -6.7419  -15.9699   23.6005 C.ar    1  UNL1        0.1964
@<TRIPOS>BOND
     1    28    29    1
     2    29    30   ar
     3    30    31   ar
     4    31    32   ar
     5    32    33   ar
     6    33    22    1
     7    22    23   ar
     8    23    24   ar
     9    24    25   ar
    10    25    21    1
    11    21    20    1
    12    20    19    1
    13    19    18    1
    14    18     1    1
    15     1     2    1
    16     2     3    1
    17     4     3    1
    18     4     5    1
    19     5     6    1
    20     6     8    1
    21     8     9   ar
    22     9    10   ar
    23    10    11   ar
    24    11    14    1
    25    14    15    1
    26    14    16    1
    27    14    17    1
    28    11    12   ar
    29    12    13   ar
    30     4     7    1
    31    25    26   ar
    32    26    27    1
    33    33    29   ar
    34    26    22   ar
    35     7     1    1
    36     6     4    1
    37    13     8   ar
@<TRIPOS>MOLECULE
*****
 33 37 0 0 0
SMALL
GASTEIGER

@<TRIPOS>ATOM
      1 N         -10.2142  -18.8721   20.2324 N.3     1  UNL1       -0.2726
      2 C         -11.7088  -18.8763   20.1059 C.3     1  UNL1        0.0721
      3 C         -12.2696  -18.0270   21.2079 C.3     1  UNL1        0.0190
      4 C         -11.1215  -17.4979   22.0154 C.3     1  UNL1        0.0201
      5 C         -11.9589  -16.7255   22.9911 C.3     1  UNL1        0.0061
      6 C         -10.4642  -16.7213   23.1176 C.3     1  UNL1        0.0237
      7 C          -9.8512  -18.0202   21.4125 C.3     1  UNL1        0.0724
      8 C          -9.2218  -16.2705   23.8270 C.ar    1  UNL1       -0.0225
      9 C          -8.1116  -15.6207   23.0555 C.ar    1  UNL1       -0.0043
     10 C          -6.8692  -15.1699   23.7649 C.ar    1  UNL1        0.0035
     11 C          -6.7371  -15.3690   25.2457 C.ar    1  UNL1        0.0714
     12 C          -7.8473  -16.0188   26.0172 C.ar    1  UNL1        0.0035
     13 C          -9.0897  -16.4695   25.3078 C.ar    1  UNL1       -0.0043
     14 C          -5.4947  -14.9182   25.9551 C.3     1  UNL1        0.4186
     15 F          -4.2522  -14.4674   26.6645 F       1  UNL1       -0.1659
     16 F          -4.7193  -15.0445   24.6773 F       1  UNL1       -0.1659
     17 F          -6.2701  -14.7919   27.2329 F       1  UNL1       -0.1659
     18 C          -9.2514  -19.5931   19.3361 C.3     1  UNL1        0.0730
     19 C          -7.7887  -19.6124   19.6676 C.3     1  UNL1        0.0294
     20 C          -7.2686  -20.5554   20.7118 C.3     1  UNL1        0.0666
     21 S          -6.6475  -20.0167   21.9664 S.3     1  UNL1       -0.0756
     22 C          -3.2347  -18.3227   21.2254 C.ar    1  UNL1        0.2029
     23 N          -3.7694  -17.4353   22.3101 N.ar    1  UNL1       -0.1250
     24 N          -5.1129  -17.9618   22.7197 N.ar    1  UNL1       -0.1220
     25 C          -5.4086  -19.1747   21.8881 C.ar    1  UNL1        0.1933
     26 N          -4.2478  -19.3978   20.9646 N.ar    1  UNL1       -0.2860
     27 C          -4.1222  -20.5020   19.9572 C.3     1  UNL1        0.1341
     28 C          -2.8093  -17.3382   18.1433 C.3     1  UNL1        0.0556
     29 C          -1.7226  -17.7106   19.1078 C.ar    1  UNL1        0.1001
     30 N          -0.2496  -17.6959   18.8251 N.ar    1  UNL1       -0.2085
     31 C           0.4653  -18.1394   20.0670 C.ar    1  UNL1        0.2849
     32 O          -0.5660  -18.4282   21.1173 O.2     1  UNL1       -0.4283
     33 C          -1.9181  -18.1632   20.5245 C.ar    1  UNL1        0.1964
@<TRIPOS>BOND
     1    28    29    1
     2    29    30   ar
     3    30    31   ar
     4    31    32   ar
     5    32    33   ar
     6    33    22    1
     7    22    23   ar
     8    23    24   ar
     9    24    25   ar
    10    25    21    1
    11    21    20    1
    12    20    19    1
    13    19    18    1
    14    18     1    1
    15     1     2    1
    16     2     3    1
    17     4     3    1
    18     4     5    1
    19     5     6    1
    20     6     8    1
    21     8     9   ar
    22     9    10   ar
    23    10    11   ar
    24    11    14    1
    25    14    15    1
    26    14    16    1
    27    14    17    1
    28    11    12   ar
    29    12    13   ar
    30     4     7    1
    31    25    26   ar
    32    26    27    1
    33    33    29   ar
    34    26    22   ar
    35     7     1    1
    36     6     4    1
    37    13     8   ar
@<TRIPOS>MOLECULE
*****
 33 37 0 0 0
SMALL
GASTEIGER

@<TRIPOS>ATOM
      1 N          -3.1614  -19.0980   20.0253 N.3     1  UNL1       -0.2726
      2 C          -1.8901  -18.6344   19.3781 C.3     1  UNL1        0.0721
      3 C          -1.4122  -17.4179   20.1141 C.3     1  UNL1        0.0190
      4 C          -2.3882  -17.1296   21.2161 C.3     1  UNL1        0.0201
      5 C          -1.6751  -15.9205   21.7447 C.3     1  UNL1        0.0061
      6 C          -2.9464  -16.3841   22.3919 C.3     1  UNL1        0.0237
      7 C          -3.4693  -18.1680   21.1612 C.3     1  UNL1        0.0724
      8 C          -4.0027  -16.2213   23.4444 C.ar    1  UNL1       -0.0225
      9 C          -3.9235  -17.0140   24.7154 C.ar    1  UNL1       -0.0043
     10 C          -4.9798  -16.8513   25.7678 C.ar    1  UNL1        0.0035
     11 C          -6.1153  -15.8958   25.5493 C.ar    1  UNL1        0.0714
     12 C          -6.1945  -15.1031   24.2783 C.ar    1  UNL1        0.0035
     13 C          -5.1382  -15.2659   23.2259 C.ar    1  UNL1       -0.0043
     14 C          -7.1716  -15.7331   26.6018 C.3     1  UNL1        0.4186
     15 F          -8.2280  -15.5703   27.6543 F       1  UNL1       -0.1659
     16 F          -6.1577  -15.1257   27.5254 F       1  UNL1       -0.1659
     17 F          -8.1855  -16.3404   25.6782 F       1  UNL1       -0.1659
     18 C          -3.9810  -20.2835   19.6095 C.3     1  UNL1        0.0730
     19 C          -4.8712  -20.9663   20.6052 C.3     1  UNL1        0.0294
     20 C          -6.3283  -20.6166   20.6722 C.3     1  UNL1        0.0666
     21 S          -6.9421  -20.2072   21.9782 S.3     1  UNL1       -0.0756
     22 C          -9.6651  -17.4898   21.4620 C.ar    1  UNL1        0.2029
     23 N          -9.0487  -17.0408   22.7537 N.ar    1  UNL1       -0.1250
     24 N          -7.9536  -18.0041   23.1043 N.ar    1  UNL1       -0.1220
     25 C          -7.8933  -19.0484   22.0292 C.ar    1  UNL1        0.1933
     26 N          -8.9510  -18.7306   21.0142 N.ar    1  UNL1       -0.2860
     27 C          -9.2433  -19.5157   19.7700 C.3     1  UNL1        0.1341
     28 C         -12.7764  -17.4008   22.4425 C.3     1  UNL1        0.0556
     29 C         -12.2270  -16.7753   21.1948 C.ar    1  UNL1        0.1001
     30 N         -13.0112  -15.9991   20.1786 N.ar    1  UNL1       -0.2085
     31 C         -12.0658  -15.5603   19.0999 C.ar    1  UNL1        0.2849
     32 O         -10.6972  -16.0653   19.4494 O.2     1  UNL1       -0.4283
     33 C         -10.7969  -16.8162   20.7441 C.ar    1  UNL1        0.1964
@<TRIPOS>BOND
     1    28    29    1
     2    29    30   ar
     3    30    31   ar
     4    31    32   ar
     5    32    33   ar
     6    33    22    1
     7    22    23   ar
     8    23    24   ar
     9    24    25   ar
    10    25    21    1
    11    21    20    1
    12    20    19    1
    13    19    18    1
    14    18     1    1
    15     1     2    1
    16     2     3    1
    17     4     3    1
    18     4     5    1
    19     5     6    1
    20     6     8    1
    21     8     9   ar
    22     9    10   ar
    23    10    11   ar
    24    11    14    1
    25    14    15    1
    26    14    16    1
    27    14    17    1
    28    11    12   ar
    29    12    13   ar
    30     4     7    1
    31    25    26   ar
    32    26    27    1
    33    33    29   ar
    34    26    22   ar
    35     7     1    1
    36     6     4    1
    37    13     8   ar
@<TRIPOS>MOLECULE
*****
 33 37 0 0 0
SMALL
GASTEIGER

@<TRIPOS>ATOM
      1 N          -4.5859  -16.5974   24.0792 N.3     1  UNL1       -0.2726
      2 C          -4.3167  -16.3099   25.5266 C.3     1  UNL1        0.0721
      3 C          -5.6047  -15.8741   26.1599 C.3     1  UNL1        0.0190
      4 C          -6.6699  -15.8923   25.1041 C.3     1  UNL1        0.0201
      5 C          -7.7839  -15.4326   25.9972 C.3     1  UNL1        0.0061
      6 C          -8.0531  -15.7201   24.5499 C.3     1  UNL1        0.0237
      7 C          -6.0403  -16.3393   23.8181 C.3     1  UNL1        0.0724
      8 C          -9.0072  -15.7868   23.3943 C.ar    1  UNL1       -0.0225
      9 C          -8.5772  -15.3109   22.0383 C.ar    1  UNL1       -0.0043
     10 C          -9.5312  -15.3776   20.8827 C.ar    1  UNL1        0.0035
     11 C         -10.9152  -15.9200   21.0832 C.ar    1  UNL1        0.0714
     12 C         -11.3452  -16.3959   22.4392 C.ar    1  UNL1        0.0035
     13 C         -10.3912  -16.3292   23.5947 C.ar    1  UNL1       -0.0043
     14 C         -11.8692  -15.9867   19.9276 C.3     1  UNL1        0.4186
     15 F         -12.8233  -16.0533   18.7720 F       1  UNL1       -0.1659
     16 F         -10.9129  -15.1885   19.0920 F       1  UNL1       -0.1659
     17 F         -12.8256  -16.7848   20.7632 F       1  UNL1       -0.1659
     18 C          -3.5778  -17.0616   23.0702 C.3     1  UNL1        0.0730
     19 C          -3.1792  -18.5067   23.0182 C.3     1  UNL1        0.0294
     20 C          -2.7903  -19.1310   21.7109 C.3     1  UNL1        0.0666
     21 S          -3.8099  -19.8791   20.9042 S.3     1  UNL1       -0.0756
     22 C          -7.6117  -19.2788   21.4060 C.ar    1  UNL1        0.2029
     23 N          -7.2788  -18.2100   20.4075 N.ar    1  UNL1       -0.1250
     24 N          -5.8141  -18.3048   20.0980 N.ar    1  UNL1       -0.1220
     25 C          -5.2418  -19.4321   20.9052 C.ar    1  UNL1        0.1933
     26 N          -6.3528  -20.0341   21.7136 N.ar    1  UNL1       -0.2860
     27 C          -6.2269  -21.1887   22.6628 C.3     1  UNL1        0.1341
     28 C         -10.4205  -19.4486   19.7531 C.3     1  UNL1        0.0556
     29 C         -10.2569  -19.6234   21.2339 C.ar    1  UNL1        0.1001
     30 N         -11.3555  -19.9070   22.2150 N.ar    1  UNL1       -0.2085
     31 C         -10.7436  -20.0042   23.5810 C.ar    1  UNL1        0.2849
     32 O          -9.2666  -19.7807   23.4442 O.2     1  UNL1       -0.4283
     33 C          -8.9658  -19.5454   21.9936 C.ar    1  UNL1        0.1964
@<TRIPOS>BOND
     1    28    29    1
     2    29    30   ar
     3    30    31   ar
     4    31    32   ar
     5    32    33   ar
     6    33    22    1
     7    22    23   ar
     8    23    24   ar
     9    24    25   ar
    10    25    21    1
    11    21    20    1
    12    20    19    1
    13    19    18    1
    14    18     1    1
    15     1     2    1
    16     2     3    1
    17     4     3    1
    18     4     5    1
    19     5     6    1
    20     6     8    1
    21     8     9   ar
    22     9    10   ar
    23    10    11   ar
    24    11    14    1
    25    14    15    1
    26    14    16    1
    27    14    17    1
    28    11    12   ar
    29    12    13   ar
    30     4     7    1
    31    25    26   ar
    32    26    27    1
    33    33    29   ar
    34    26    22   ar
    35     7     1    1
    36     6     4    1
    37    13     8   ar
@<TRIPOS>MOLECULE
*****
 33 37 0 0 0
SMALL
GASTEIGER

@<TRIPOS>ATOM
      1 N          -5.6666  -19.4253   21.1698 N.3     1  UNL1       -0.2726
      2 C          -5.3347  -19.6936   19.7318 C.3     1  UNL1        0.0721
      3 C          -6.6209  -19.7497   18.9621 C.3     1  UNL1        0.0190
      4 C          -7.7477  -19.5162   19.9243 C.3     1  UNL1        0.0201
      5 C          -8.8463  -19.6259   18.9090 C.3     1  UNL1        0.0061
      6 C          -9.1782  -19.3577   20.3470 C.3     1  UNL1        0.0237
      7 C          -7.1579  -19.3157   21.2888 C.3     1  UNL1        0.0724
      8 C         -10.1956  -19.1113   21.4213 C.ar    1  UNL1       -0.0225
      9 C         -10.0860  -19.8251   22.7360 C.ar    1  UNL1       -0.0043
     10 C         -11.1034  -19.5788   23.8103 C.ar    1  UNL1        0.0035
     11 C         -12.2305  -18.6186   23.5698 C.ar    1  UNL1        0.0714
     12 C         -12.3401  -17.9048   22.2551 C.ar    1  UNL1        0.0035
     13 C         -11.3227  -18.1512   21.1808 C.ar    1  UNL1       -0.0043
     14 C         -13.2479  -18.3723   24.6441 C.3     1  UNL1        0.4186
     15 F         -14.2654  -18.1259   25.7184 F       1  UNL1       -0.1659
     16 F         -12.3644  -19.0639   25.6395 F       1  UNL1       -0.1659
     17 F         -14.1315  -17.6806   23.6487 F       1  UNL1       -0.1659
     18 C          -4.6803  -19.2904   22.2920 C.3     1  UNL1        0.0730
     19 C          -3.2085  -19.3402   22.0069 C.3     1  UNL1        0.0294
     20 C          -2.2737  -18.4120   22.7242 C.3     1  UNL1        0.0666
     21 S          -2.4049  -16.9287   22.5440 S.3     1  UNL1       -0.0756
     22 C          -5.5328  -15.5590   24.3896 C.ar    1  UNL1        0.2029
     23 N          -5.5234  -14.7012   23.1591 N.ar    1  UNL1       -0.1250
     24 N          -4.3506  -15.1098   22.3180 N.ar    1  UNL1       -0.1220
     25 C          -3.6351  -16.2202   23.0286 C.ar    1  UNL1        0.1933
     26 N          -4.3657  -16.4979   24.3089 N.ar    1  UNL1       -0.2860
     27 C          -3.9944  -17.5327   25.3294 C.3     1  UNL1        0.1341
     28 C          -8.7312  -16.1554   24.1364 C.3     1  UNL1        0.0556
     29 C          -8.0037  -15.7642   25.3884 C.ar    1  UNL1        0.1001
     30 N          -8.6185  -15.5784   26.7440 N.ar    1  UNL1       -0.2085
     31 C          -7.5284  -15.1895   27.6981 C.ar    1  UNL1        0.2849
     32 O          -6.2398  -15.1349   26.9323 O.2     1  UNL1       -0.4283
     33 C          -6.5335  -15.4901   25.5048 C.ar    1  UNL1        0.1964
@<TRIPOS>BOND
     1    28    29    1
     2    29    30   ar
     3    30    31   ar
     4    31    32   ar
     5    32    33   ar
     6    33    22    1
     7    22    23   ar
     8    23    24   ar
     9    24    25   ar
    10    25    21    1
    11    21    20    1
    12    20    19    1
    13    19    18    1
    14    18     1    1
    15     1     2    1
    16     2     3    1
    17     4     3    1
    18     4     5    1
    19     5     6    1
    20     6     8    1
    21     8     9   ar
    22     9    10   ar
    23    10    11   ar
    24    11    14    1
    25    14    15    1
    26    14    16    1
    27    14    17    1
    28    11    12   ar
    29    12    13   ar
    30     4     7    1
    31    25    26   ar
    32    26    27    1
    33    33    29   ar
    34    26    22   ar
    35     7     1    1
    36     6     4    1
    37    13     8   ar
@<TRIPOS>MOLECULE
*****
 33 37 0 0 0
SMALL
GASTEIGER

@<TRIPOS>ATOM
      1 N         -11.9064  -16.4824   20.7418 N.3     1  UNL1       -0.2726
      2 C         -11.7596  -15.8204   19.4039 C.3     1  UNL1        0.0721
      3 C         -10.4802  -15.0373   19.4122 C.3     1  UNL1        0.0190
      4 C          -9.8365  -15.2153   20.7553 C.3     1  UNL1        0.0201
      5 C          -8.6394  -14.3575   20.4704 C.3     1  UNL1        0.0061
      6 C          -8.7863  -15.0196   21.8083 C.3     1  UNL1        0.0237
      7 C         -10.7179  -16.1085   21.5770 C.3     1  UNL1        0.0724
      8 C          -8.2648  -15.2888   23.1887 C.ar    1  UNL1       -0.0225
      9 C          -9.1628  -15.8984   24.2241 C.ar    1  UNL1       -0.0043
     10 C          -8.6413  -16.1677   25.6045 C.ar    1  UNL1        0.0035
     11 C          -7.2218  -15.8273   25.9495 C.ar    1  UNL1        0.0714
     12 C          -6.3237  -15.2177   24.9141 C.ar    1  UNL1        0.0035
     13 C          -6.8452  -14.9485   23.5337 C.ar    1  UNL1       -0.0043
     14 C          -6.7003  -16.0966   27.3299 C.3     1  UNL1        0.4186
     15 F          -6.1787  -16.3658   28.7104 F       1  UNL1       -0.1659
     16 F          -8.1056  -16.1372   27.8528 F       1  UNL1       -0.1659
     17 F          -5.2950  -16.0559   26.8069 F       1  UNL1       -0.1659
     18 C         -13.0424  -17.3637   21.1695 C.3     1  UNL1        0.0730
     19 C         -12.9365  -18.1629   22.4344 C.3     1  UNL1        0.0294
     20 C         -11.7950  -19.1170   22.6256 C.3     1  UNL1        0.0666
     21 S         -11.1759  -19.7933   21.4384 S.3     1  UNL1       -0.0756
     22 C          -7.3761  -19.0692   21.1174 C.ar    1  UNL1        0.2029
     23 N          -7.8367  -18.8303   19.7099 N.ar    1  UNL1       -0.1250
     24 N          -9.3162  -19.0725   19.6589 N.ar    1  UNL1       -0.1220
     25 C          -9.7700  -19.4610   21.0348 C.ar    1  UNL1        0.1933
     26 N          -8.5710  -19.4590   21.9362 N.ar    1  UNL1       -0.2860
     27 C          -8.5675  -19.7889   23.3995 C.3     1  UNL1        0.1341
     28 C          -4.8235  -20.8534   20.1426 C.3     1  UNL1        0.0556
     29 C          -4.7947  -19.7609   21.1700 C.ar    1  UNL1        0.1001
     30 N          -3.5876  -19.2967   21.9298 N.ar    1  UNL1       -0.2085
     31 C          -4.0148  -18.1896   22.8474 C.ar    1  UNL1        0.2849
     32 O          -5.4860  -17.9697   22.6548 O.2     1  UNL1       -0.4283
     33 C          -5.9680  -18.9408   21.6181 C.ar    1  UNL1        0.1964
@<TRIPOS>BOND
     1    28    29    1
     2    29    30   ar
     3    30    31   ar
     4    31    32   ar
     5    32    33   ar
     6    33    22    1
     7    22    23   ar
     8    23    24   ar
     9    24    25   ar
    10    25    21    1
    11    21    20    1
    12    20    19    1
    13    19    18    1
    14    18     1    1
    15     1     2    1
    16     2     3    1
    17     4     3    1
    18     4     5    1
    19     5     6    1
    20     6     8    1
    21     8     9   ar
    22     9    10   ar
    23    10    11   ar
    24    11    14    1
    25    14    15    1
    26    14    16    1
    27    14    17    1
    28    11    12   ar
    29    12    13   ar
    30     4     7    1
    31    25    26   ar
    32    26    27    1
    33    33    29   ar
    34    26    22   ar
    35     7     1    1
    36     6     4    1
    37    13     8   ar
@<TRIPOS>MOLECULE
*****
 33 37 0 0 0
SMALL
GASTEIGER

@<TRIPOS>ATOM
      1 N          -5.1244  -15.6449   24.4002 N.3     1  UNL1       -0.2726
      2 C          -4.6240  -15.2093   25.7455 C.3     1  UNL1        0.0721
      3 C          -5.7843  -15.2163   26.6961 C.3     1  UNL1        0.0190
      4 C          -7.0018  -15.6563   25.9383 C.3     1  UNL1        0.0201
      5 C          -7.9489  -15.5674   27.0980 C.3     1  UNL1        0.0061
      6 C          -8.4493  -16.0030   25.7527 C.3     1  UNL1        0.0237
      7 C          -6.5939  -15.9211   24.5193 C.3     1  UNL1        0.0724
      8 C          -9.5739  -16.4547   24.8688 C.ar    1  UNL1       -0.0225
      9 C         -10.2184  -17.7896   25.0983 C.ar    1  UNL1       -0.0043
     10 C         -11.3430  -18.2413   24.2144 C.ar    1  UNL1        0.0035
     11 C         -11.8231  -17.3581   23.1011 C.ar    1  UNL1        0.0714
     12 C         -11.1785  -16.0232   22.8716 C.ar    1  UNL1        0.0035
     13 C         -10.0539  -15.5715   23.7555 C.ar    1  UNL1       -0.0043
     14 C         -12.9476  -17.8097   22.2172 C.3     1  UNL1        0.4186
     15 F         -14.0723  -18.2614   21.3332 F       1  UNL1       -0.1659
     16 F         -13.6438  -18.4029   23.4061 F       1  UNL1       -0.1659
     17 F         -12.2515  -17.2165   21.0283 F       1  UNL1       -0.1659
     18 C          -4.2999  -15.7805   23.1544 C.3     1  UNL1        0.0730
     19 C          -3.1188  -16.7049   23.1336 C.3     1  UNL1        0.0294
     20 C          -2.8970  -17.6122   21.9599 C.3     1  UNL1        0.0666
     21 S          -3.2733  -19.0614   22.0506 S.3     1  UNL1       -0.0756
     22 C          -6.7076  -19.8991   20.4476 C.ar    1  UNL1        0.2029
     23 N          -5.8092  -20.8608   19.7276 N.ar    1  UNL1       -0.1250
     24 N          -4.4134  -20.6640   20.2404 N.ar    1  UNL1       -0.1220
     25 C          -4.4491  -19.5807   21.2774 C.ar    1  UNL1        0.1933
     26 N          -5.8668  -19.1080   21.4055 N.ar    1  UNL1       -0.2860
     27 C          -6.3578  -18.0330   22.3292 C.3     1  UNL1        0.1341
     28 C          -8.9999  -20.2337   22.7460 C.3     1  UNL1        0.0556
     29 C          -9.2404  -19.9079   21.3017 C.ar    1  UNL1        0.1001
     30 N         -10.5768  -19.6786   20.6603 N.ar    1  UNL1       -0.2085
     31 C         -10.3491  -19.3831   19.2074 C.ar    1  UNL1        0.2849
     32 O          -8.8720  -19.4298   18.9509 O.2     1  UNL1       -0.4283
     33 C          -8.1868  -19.7541   20.2452 C.ar    1  UNL1        0.1964
@<TRIPOS>BOND
     1    28    29    1
     2    29    30   ar
     3    30    31   ar
     4    31    32   ar
     5    32    33   ar
     6    33    22    1
     7    22    23   ar
     8    23    24   ar
     9    24    25   ar
    10    25    21    1
    11    21    20    1
    12    20    19    1
    13    19    18    1
    14    18     1    1
    15     1     2    1
    16     2     3    1
    17     4     3    1
    18     4     5    1
    19     5     6    1
    20     6     8    1
    21     8     9   ar
    22     9    10   ar
    23    10    11   ar
    24    11    14    1
    25    14    15    1
    26    14    16    1
    27    14    17    1
    28    11    12   ar
    29    12    13   ar
    30     4     7    1
    31    25    26   ar
    32    26    27    1
    33    33    29   ar
    34    26    22   ar
    35     7     1    1
    36     6     4    1
    37    13     8   ar
