@<TRIPOS>MOLECULE
*****
 34 36 0 0 0
SMALL
GASTEIGER

@<TRIPOS>ATOM
      1 N           0.2390    3.2468   20.1474 N.pl3   1  UNL1       -0.2120
      2 H           0.6638    4.0176   19.7061 H       1  UNL1        0.1738
      3 C           2.3597    2.0172   21.0082 C.ar    1  UNL1        0.1532
      4 C           3.1334    0.7481   21.2099 C.ar    1  UNL1        0.0382
      5 C           2.5603   -0.5604   20.7525 C.ar    1  UNL1        0.0032
      6 C           1.2135   -0.5999   20.0934 C.ar    1  UNL1        0.0015
      7 C           0.4397    0.6692   19.8918 C.ar    1  UNL1        0.0189
      8 C           1.0128    1.9777   20.3491 C.ar    1  UNL1        0.0986
      9 C           3.3341   -1.8296   20.9542 C.ar    1  UNL1        0.0028
     10 C           3.9016   -2.1555   22.3039 C.ar    1  UNL1        0.0207
     11 C           4.6754   -3.4245   22.5057 C.ar    1  UNL1        0.0984
     12 N           4.8818   -4.3677   21.3576 N.ar    1  UNL1       -0.2481
     13 C           4.3143   -4.0418   20.0079 C.ar    1  UNL1        0.0594
     14 C           4.5205   -4.9849   18.8600 C.3     1  UNL1        0.0521
     15 C           3.5404   -2.7727   19.8062 C.ar    1  UNL1        0.0147
     16 C           2.7729    3.7565   22.8934 C.3     1  UNL1        0.2525
     17 O           2.9328    3.3258   21.4656 O.3     1  UNL1       -0.4701
     18 S          -1.1820    3.3416   20.6182 S.O2    1  UNL1        0.0737
     19 O          -0.7249    3.1583   22.0350 O.2     1  UNL1       -0.1499
     20 O          -1.6392    3.5250   19.2014 O.2     1  UNL1       -0.1499
     21 C          -2.6031    3.4364   21.0890 C.ar    1  UNL1        0.1251
     22 C          -2.9069    3.4548   22.5578 C.ar    1  UNL1        0.0240
     23 C          -4.3280    3.5496   23.0286 C.ar    1  UNL1        0.0727
     24 C          -5.4452    3.6260   22.0305 C.ar    1  UNL1        0.0078
     25 C          -5.1413    3.6077   20.5618 C.ar    1  UNL1        0.0727
     26 C          -3.7203    3.5129   20.0910 C.ar    1  UNL1        0.0240
     27 C          -4.6319    3.5680   24.4973 C.3     1  UNL1        0.4186
     28 F          -4.9357    3.5863   25.9661 F       1  UNL1       -0.1659
     29 F          -3.2114    3.1898   24.7959 F       1  UNL1       -0.1659
     30 F          -6.0523    3.9461   24.1987 F       1  UNL1       -0.1659
     31 C          -6.2585    3.6841   19.5637 C.3     1  UNL1        0.4186
     32 F          -7.3757    3.7605   18.5656 F       1  UNL1       -0.1659
     33 F          -5.3696    3.0723   18.5219 F       1  UNL1       -0.1659
     34 F          -7.1475    4.2959   20.6055 F       1  UNL1       -0.1659
@<TRIPOS>BOND
     1    16    17    1
     2    17     3    1
     3     3     4   ar
     4     4     5   ar
     5     5     9    1
     6     9    10   ar
     7    10    11   ar
     8    11    12   ar
     9    12    13   ar
    10    13    14    1
    11    13    15   ar
    12     5     6   ar
    13     6     7   ar
    14     7     8   ar
    15     8     1    1
    16     1    18    1
    17    18    19    2
    18    18    20    2
    19    18    21    1
    20    21    22   ar
    21    22    23   ar
    22    23    27    1
    23    27    28    1
    24    27    29    1
    25    27    30    1
    26    23    24   ar
    27    24    25   ar
    28    25    31    1
    29    31    32    1
    30    31    33    1
    31    31    34    1
    32    25    26   ar
    33     8     3   ar
    34    26    21   ar
    35    15     9   ar
    36     1     2    1
@<TRIPOS>MOLECULE
*****
 34 36 0 0 0
SMALL
GASTEIGER

@<TRIPOS>ATOM
      1 N           0.2731    3.2408   20.1899 N.pl3   1  UNL1       -0.2120
      2 H           0.7001    4.0133   19.7539 H       1  UNL1        0.1738
      3 C           2.3982    2.0031   21.0279 C.ar    1  UNL1        0.1532
      4 C           3.1688    0.7309   21.2222 C.ar    1  UNL1        0.0382
      5 C           2.5849   -0.5757   20.7730 C.ar    1  UNL1        0.0032
      6 C           1.2304   -0.6102   20.1295 C.ar    1  UNL1        0.0015
      7 C           0.4598    0.6620   19.9352 C.ar    1  UNL1        0.0189
      8 C           1.0437    1.9686   20.3843 C.ar    1  UNL1        0.0986
      9 C           3.3555   -1.8479   20.9674 C.ar    1  UNL1        0.0028
     10 C           3.9252   -2.1813   22.3144 C.ar    1  UNL1        0.0207
     11 C           4.6958   -3.4534   22.5088 C.ar    1  UNL1        0.0984
     12 N           4.8967   -4.3922   21.3562 N.ar    1  UNL1       -0.2481
     13 C           4.3270   -4.0588   20.0093 C.ar    1  UNL1        0.0594
     14 C           4.5279   -4.9976   18.8568 C.3     1  UNL1        0.0521
     15 C           3.5564   -2.7866   19.8149 C.ar    1  UNL1        0.0147
     16 C           2.8546    3.7352   22.9097 C.3     1  UNL1        0.2525
     17 O           2.9821    3.3097   21.4770 O.3     1  UNL1       -0.4701
     18 S          -1.1482    3.3360   20.6600 S.O2    1  UNL1        0.0737
     19 O          -0.6927    3.1431   22.0761 O.2     1  UNL1       -0.1499
     20 O          -1.6036    3.5288   19.2439 O.2     1  UNL1       -0.1499
     21 C          -2.5694    3.4312   21.1300 C.ar    1  UNL1        0.1251
     22 C          -3.6861    3.5078   20.1314 C.ar    1  UNL1        0.0240
     23 C          -5.1074    3.6030   20.6014 C.ar    1  UNL1        0.0727
     24 C          -5.4120    3.6215   22.0701 C.ar    1  UNL1        0.0078
     25 C          -4.2953    3.5448   23.0687 C.ar    1  UNL1        0.0727
     26 C          -2.8741    3.4497   22.5986 C.ar    1  UNL1        0.0240
     27 C          -6.2241    3.6797   19.6029 C.3     1  UNL1        0.4186
     28 F          -7.3407    3.7563   18.6043 F       1  UNL1       -0.1659
     29 F          -5.3389    3.0557   18.5651 F       1  UNL1       -0.1659
     30 F          -7.1092    4.3036   20.6407 F       1  UNL1       -0.1659
     31 C          -4.5999    3.5633   24.5374 C.3     1  UNL1        0.4186
     32 F          -4.9045    3.5818   26.0059 F       1  UNL1       -0.1659
     33 F          -6.0181    3.9496   24.2383 F       1  UNL1       -0.1659
     34 F          -3.1817    3.1771   24.8364 F       1  UNL1       -0.1659
@<TRIPOS>BOND
     1    16    17    1
     2    17     3    1
     3     3     4   ar
     4     4     5   ar
     5     5     9    1
     6     9    10   ar
     7    10    11   ar
     8    11    12   ar
     9    12    13   ar
    10    13    14    1
    11    13    15   ar
    12     5     6   ar
    13     6     7   ar
    14     7     8   ar
    15     8     1    1
    16     1    18    1
    17    18    19    2
    18    18    20    2
    19    18    21    1
    20    21    22   ar
    21    22    23   ar
    22    23    27    1
    23    27    28    1
    24    27    29    1
    25    27    30    1
    26    23    24   ar
    27    24    25   ar
    28    25    31    1
    29    31    32    1
    30    31    33    1
    31    31    34    1
    32    25    26   ar
    33     8     3   ar
    34    26    21   ar
    35    15     9   ar
    36     1     2    1
@<TRIPOS>MOLECULE
*****
 34 36 0 0 0
SMALL
GASTEIGER

@<TRIPOS>ATOM
      1 N           0.1943    3.2894   19.9067 N.pl3   1  UNL1       -0.2120
      2 H           0.6149    4.0715   19.4816 H       1  UNL1        0.1738
      3 C           2.4622    2.0232   19.9634 C.ar    1  UNL1        0.1532
      4 C           3.2330    0.7449   20.1114 C.ar    1  UNL1        0.0382
      5 C           2.5065   -0.5455   20.3506 C.ar    1  UNL1        0.0032
      6 C           1.0094   -0.5576   20.4419 C.ar    1  UNL1        0.0015
      7 C           0.2387    0.7207   20.2939 C.ar    1  UNL1        0.0189
      8 C           0.9651    2.0111   20.0547 C.ar    1  UNL1        0.0986
      9 C           3.2774   -1.8238   20.4986 C.ar    1  UNL1        0.0028
     10 C           3.3433   -2.7961   19.3583 C.ar    1  UNL1        0.0207
     11 C           4.1141   -4.0743   19.5063 C.ar    1  UNL1        0.0984
     12 N           4.8190   -4.3804   20.7945 N.ar    1  UNL1       -0.2481
     13 C           4.7530   -3.4081   21.9348 C.ar    1  UNL1        0.0594
     14 C           5.4578   -3.7140   23.2231 C.3     1  UNL1        0.0521
     15 C           3.9822   -2.1298   21.7869 C.ar    1  UNL1        0.0147
     16 C           3.7411    3.6222   18.3643 C.3     1  UNL1        0.2525
     17 O           3.1886    3.3136   19.7242 O.3     1  UNL1       -0.4701
     18 S          -1.2174    3.3760   20.4064 S.O2    1  UNL1        0.0737
     19 O          -1.7173    3.3878   18.9921 O.2     1  UNL1       -0.1499
     20 O          -0.7176    3.3643   21.8206 O.2     1  UNL1       -0.1499
     21 C          -2.6291    3.4627   20.9060 C.ar    1  UNL1        0.1251
     22 C          -2.9043    3.4589   22.3806 C.ar    1  UNL1        0.0240
     23 C          -4.3160    3.5456   22.8803 C.ar    1  UNL1        0.0727
     24 C          -5.4525    3.6360   21.9053 C.ar    1  UNL1        0.0078
     25 C          -5.1772    3.6399   20.4308 C.ar    1  UNL1        0.0727
     26 C          -3.7655    3.5532   19.9312 C.ar    1  UNL1        0.0240
     27 C          -4.5913    3.5417   24.3547 C.3     1  UNL1        0.4186
     28 F          -4.8666    3.5379   25.8292 F       1  UNL1       -0.1659
     29 F          -6.0219    3.9055   24.0886 F       1  UNL1       -0.1659
     30 F          -3.1606    3.1780   24.6209 F       1  UNL1       -0.1659
     31 C          -6.3136    3.7303   19.4559 C.3     1  UNL1        0.4186
     32 F          -7.4500    3.8208   18.4811 F       1  UNL1       -0.1659
     33 F          -7.1772    4.3412   20.5194 F       1  UNL1       -0.1659
     34 F          -5.4500    3.1195   18.3925 F       1  UNL1       -0.1659
@<TRIPOS>BOND
     1    16    17    1
     2    17     3    1
     3     3     4   ar
     4     4     5   ar
     5     5     9    1
     6     9    10   ar
     7    10    11   ar
     8    11    12   ar
     9    12    13   ar
    10    13    14    1
    11    13    15   ar
    12     5     6   ar
    13     6     7   ar
    14     7     8   ar
    15     8     1    1
    16     1    18    1
    17    18    19    2
    18    18    20    2
    19    18    21    1
    20    21    22   ar
    21    22    23   ar
    22    23    27    1
    23    27    28    1
    24    27    29    1
    25    27    30    1
    26    23    24   ar
    27    24    25   ar
    28    25    31    1
    29    31    32    1
    30    31    33    1
    31    31    34    1
    32    25    26   ar
    33     8     3   ar
    34    26    21   ar
    35    15     9   ar
    36     1     2    1
@<TRIPOS>MOLECULE
*****
 34 36 0 0 0
SMALL
GASTEIGER

@<TRIPOS>ATOM
      1 N          -0.6385    3.2558   20.0106 N.pl3   1  UNL1       -0.2120
      2 H          -0.8205    3.9280   19.3148 H       1  UNL1        0.1738
      3 C           1.5864    2.4423   18.9437 C.ar    1  UNL1        0.1532
      4 C           2.5812    1.3491   18.6885 C.ar    1  UNL1        0.0382
      5 C           2.3460   -0.0239   19.2449 C.ar    1  UNL1        0.0032
      6 C           1.1160   -0.3037   20.0565 C.ar    1  UNL1        0.0015
      7 C           0.1212    0.7896   20.3118 C.ar    1  UNL1        0.0189
      8 C           0.3564    2.1625   19.7554 C.ar    1  UNL1        0.0986
      9 C           3.3409   -1.1172   18.9896 C.ar    1  UNL1        0.0028
     10 C           4.6313   -0.8085   18.2899 C.ar    1  UNL1        0.0207
     11 C           5.6261   -1.9017   18.0346 C.ar    1  UNL1        0.0984
     12 N           5.3306   -3.3036   18.4791 N.ar    1  UNL1       -0.2481
     13 C           4.0402   -3.6122   19.1788 C.ar    1  UNL1        0.0594
     14 C           3.7447   -5.0140   19.6232 C.3     1  UNL1        0.0521
     15 C           3.0454   -2.5189   19.4341 C.ar    1  UNL1        0.0147
     16 C           3.1803    4.1957   17.8783 C.3     1  UNL1        0.2525
     17 O           1.8216    3.8153   18.3873 O.3     1  UNL1       -0.4701
     18 S          -1.3559    3.3248   21.3261 S.O2    1  UNL1        0.0737
     19 O          -0.1158    3.8651   21.9742 O.2     1  UNL1       -0.1499
     20 O          -2.5961    2.7844   20.6781 O.2     1  UNL1       -0.1499
     21 C          -2.0734    3.3937   22.6416 C.ar    1  UNL1        0.1251
     22 C          -3.5475    3.6693   22.6784 C.ar    1  UNL1        0.0240
     23 C          -4.2649    3.7383   23.9939 C.ar    1  UNL1        0.0727
     24 C          -3.5083    3.5316   25.2726 C.ar    1  UNL1        0.0078
     25 C          -2.0344    3.2561   25.2357 C.ar    1  UNL1        0.0727
     26 C          -1.3169    3.1871   23.9202 C.ar    1  UNL1        0.0240
     27 C          -5.7389    4.0138   24.0307 C.3     1  UNL1        0.4186
     28 F          -7.2129    4.2894   24.0676 F       1  UNL1       -0.1659
     29 F          -5.6042    4.5477   25.4260 F       1  UNL1       -0.1659
     30 F          -5.8736    3.4799   22.6355 F       1  UNL1       -0.1659
     31 C          -1.2778    3.0495   26.5144 C.3     1  UNL1        0.4186
     32 F          -0.5212    2.8429   27.7930 F       1  UNL1       -0.1659
     33 F          -1.8321    4.3361   27.0502 F       1  UNL1       -0.1659
     34 F          -0.7234    1.7628   25.9786 F       1  UNL1       -0.1659
@<TRIPOS>BOND
     1    16    17    1
     2    17     3    1
     3     3     4   ar
     4     4     5   ar
     5     5     9    1
     6     9    10   ar
     7    10    11   ar
     8    11    12   ar
     9    12    13   ar
    10    13    14    1
    11    13    15   ar
    12     5     6   ar
    13     6     7   ar
    14     7     8   ar
    15     8     1    1
    16     1    18    1
    17    18    19    2
    18    18    20    2
    19    18    21    1
    20    21    22   ar
    21    22    23   ar
    22    23    27    1
    23    27    28    1
    24    27    29    1
    25    27    30    1
    26    23    24   ar
    27    24    25   ar
    28    25    31    1
    29    31    32    1
    30    31    33    1
    31    31    34    1
    32    25    26   ar
    33     8     3   ar
    34    26    21   ar
    35    15     9   ar
    36     1     2    1
@<TRIPOS>MOLECULE
*****
 34 36 0 0 0
SMALL
GASTEIGER

@<TRIPOS>ATOM
      1 N           5.5264   -1.0260   24.5293 N.pl3   1  UNL1       -0.2120
      2 H           5.5451   -0.0954   24.8500 H       1  UNL1        0.1738
      3 C           5.9105   -2.1548   26.8376 C.ar    1  UNL1        0.1532
      4 C           6.5246   -3.2455   27.6642 C.ar    1  UNL1        0.0382
      5 C           7.3688   -4.2981   27.0089 C.ar    1  UNL1        0.0032
      6 C           7.5988   -4.2601   25.5272 C.ar    1  UNL1        0.0015
      7 C           6.9847   -3.1694   24.7007 C.ar    1  UNL1        0.0189
      8 C           6.1405   -2.1168   25.3559 C.ar    1  UNL1        0.0986
      9 C           7.9829   -5.3889   27.8355 C.ar    1  UNL1        0.0028
     10 C           8.5481   -5.0761   29.1893 C.ar    1  UNL1        0.0207
     11 C           9.1622   -6.1667   30.0159 C.ar    1  UNL1        0.0984
     12 N           9.2112   -7.5703   29.4887 N.ar    1  UNL1       -0.2481
     13 C           8.6460   -7.8830   28.1350 C.ar    1  UNL1        0.0594
     14 C           8.6950   -9.2864   27.6078 C.3     1  UNL1        0.0521
     15 C           8.0319   -6.7923   27.3083 C.ar    1  UNL1        0.0147
     16 C           3.5775   -1.2705   27.5621 C.3     1  UNL1        0.2525
     17 O           5.0663   -1.1021   27.4929 O.3     1  UNL1       -0.4701
     18 S           4.8837   -1.3532   23.2140 S.O2    1  UNL1        0.0737
     19 O           3.7357   -1.9957   23.9348 O.2     1  UNL1       -0.1499
     20 O           6.0316   -0.7108   22.4933 O.2     1  UNL1       -0.1499
     21 C           4.2410   -1.6804   21.8988 C.ar    1  UNL1        0.1251
     22 C           4.6353   -2.9252   21.1604 C.ar    1  UNL1        0.0240
     23 C           3.9927   -3.2524   19.8452 C.ar    1  UNL1        0.0727
     24 C           2.9556   -2.3349   19.2683 C.ar    1  UNL1        0.0078
     25 C           2.5614   -1.0902   20.0066 C.ar    1  UNL1        0.0727
     26 C           3.2040   -0.7630   21.3219 C.ar    1  UNL1        0.0240
     27 C           4.3869   -4.4971   19.1068 C.3     1  UNL1        0.4186
     28 F           4.7812   -5.7418   18.3685 F       1  UNL1       -0.1659
     29 F           3.5697   -5.3202   20.0579 F       1  UNL1       -0.1659
     30 F           5.2042   -3.6741   18.1557 F       1  UNL1       -0.1659
     31 C           1.5243   -0.1726   19.4297 C.3     1  UNL1        0.4186
     32 F           0.4874    0.7449   18.8529 F       1  UNL1       -0.1659
     33 F           0.5137   -0.7031   20.4029 F       1  UNL1       -0.1659
     34 F           2.5350    0.3579   18.4566 F       1  UNL1       -0.1659
@<TRIPOS>BOND
     1    16    17    1
     2    17     3    1
     3     3     4   ar
     4     4     5   ar
     5     5     9    1
     6     9    10   ar
     7    10    11   ar
     8    11    12   ar
     9    12    13   ar
    10    13    14    1
    11    13    15   ar
    12     5     6   ar
    13     6     7   ar
    14     7     8   ar
    15     8     1    1
    16     1    18    1
    17    18    19    2
    18    18    20    2
    19    18    21    1
    20    21    22   ar
    21    22    23   ar
    22    23    27    1
    23    27    28    1
    24    27    29    1
    25    27    30    1
    26    23    24   ar
    27    24    25   ar
    28    25    31    1
    29    31    32    1
    30    31    33    1
    31    31    34    1
    32    25    26   ar
    33     8     3   ar
    34    26    21   ar
    35    15     9   ar
    36     1     2    1
@<TRIPOS>MOLECULE
*****
 34 36 0 0 0
SMALL
GASTEIGER

@<TRIPOS>ATOM
      1 N           5.4490   -1.0217   24.6404 N.pl3   1  UNL1       -0.2120
      2 H           5.4380   -0.0964   24.9763 H       1  UNL1        0.1738
      3 C           5.8767   -2.1584   26.9372 C.ar    1  UNL1        0.1532
      4 C           6.5179   -3.2438   27.7501 C.ar    1  UNL1        0.0382
      5 C           7.3726   -4.2778   27.0792 C.ar    1  UNL1        0.0032
      6 C           7.5861   -4.2266   25.5954 C.ar    1  UNL1        0.0015
      7 C           6.9450   -3.1412   24.7825 C.ar    1  UNL1        0.0189
      8 C           6.0902   -2.1071   25.4534 C.ar    1  UNL1        0.0986
      9 C           8.0138   -5.3632   27.8922 C.ar    1  UNL1        0.0028
     10 C           8.6173   -5.0430   29.2275 C.ar    1  UNL1        0.0207
     11 C           9.2585   -6.1283   30.0405 C.ar    1  UNL1        0.0984
     12 N           9.2962   -7.5339   29.5181 N.ar    1  UNL1       -0.2481
     13 C           8.6926   -7.8542   28.1828 C.ar    1  UNL1        0.0594
     14 C           8.7303   -9.2597   27.6604 C.3     1  UNL1        0.0521
     15 C           8.0514   -6.7688   27.3698 C.ar    1  UNL1        0.0147
     16 C           3.5288   -1.2676   27.6036 C.3     1  UNL1        0.2525
     17 O           5.0219   -1.1243   27.6081 O.3     1  UNL1       -0.4701
     18 S           4.8247   -1.3463   23.3157 S.O2    1  UNL1        0.0737
     19 O           5.8667   -0.5197   22.6221 O.2     1  UNL1       -0.1499
     20 O           3.7827   -2.1729   24.0093 O.2     1  UNL1       -0.1499
     21 C           4.2004   -1.6709   21.9910 C.ar    1  UNL1        0.1251
     22 C           3.1628   -0.7583   21.4072 C.ar    1  UNL1        0.0240
     23 C           2.5385   -1.0829   20.0824 C.ar    1  UNL1        0.0727
     24 C           2.9517   -2.3200   19.3416 C.ar    1  UNL1        0.0078
     25 C           3.9892   -3.2325   19.9254 C.ar    1  UNL1        0.0727
     26 C           4.6135   -2.9080   21.2502 C.ar    1  UNL1        0.0240
     27 C           1.5010   -0.1704   19.4986 C.3     1  UNL1        0.4186
     28 F           0.4635    0.7421   18.9147 F       1  UNL1       -0.1659
     29 F           2.4987    0.3195   18.4913 F       1  UNL1       -0.1659
     30 F           0.5033   -0.6603   20.5058 F       1  UNL1       -0.1659
     31 C           4.4024   -4.4697   19.1846 C.3     1  UNL1        0.4186
     32 F           4.8156   -5.7068   18.4438 F       1  UNL1       -0.1659
     33 F           5.8168   -4.2717   19.6429 F       1  UNL1       -0.1659
     34 F           2.9879   -4.6677   18.7262 F       1  UNL1       -0.1659
@<TRIPOS>BOND
     1    16    17    1
     2    17     3    1
     3     3     4   ar
     4     4     5   ar
     5     5     9    1
     6     9    10   ar
     7    10    11   ar
     8    11    12   ar
     9    12    13   ar
    10    13    14    1
    11    13    15   ar
    12     5     6   ar
    13     6     7   ar
    14     7     8   ar
    15     8     1    1
    16     1    18    1
    17    18    19    2
    18    18    20    2
    19    18    21    1
    20    21    22   ar
    21    22    23   ar
    22    23    27    1
    23    27    28    1
    24    27    29    1
    25    27    30    1
    26    23    24   ar
    27    24    25   ar
    28    25    31    1
    29    31    32    1
    30    31    33    1
    31    31    34    1
    32    25    26   ar
    33     8     3   ar
    34    26    21   ar
    35    15     9   ar
    36     1     2    1
@<TRIPOS>MOLECULE
*****
 34 36 0 0 0
SMALL
GASTEIGER

@<TRIPOS>ATOM
      1 N           6.8833   -4.2718   22.5011 N.pl3   1  UNL1       -0.2120
      2 H           7.4659   -4.8116   21.9195 H       1  UNL1        0.1738
      3 C           7.5080   -5.6546   24.6101 C.ar    1  UNL1        0.1532
      4 C           7.6233   -5.7689   26.1012 C.ar    1  UNL1        0.0382
      5 C           7.2293   -4.6148   26.9747 C.ar    1  UNL1        0.0032
      6 C           6.7200   -3.3464   26.3569 C.ar    1  UNL1        0.0015
      7 C           6.6046   -3.2321   24.8658 C.ar    1  UNL1        0.0189
      8 C           6.9986   -4.3862   23.9924 C.ar    1  UNL1        0.0986
      9 C           7.3447   -4.7292   28.4659 C.ar    1  UNL1        0.0028
     10 C           6.5549   -3.8119   29.3518 C.ar    1  UNL1        0.0207
     11 C           6.6702   -3.9263   30.8429 C.ar    1  UNL1        0.0984
     12 N           7.5754   -4.9580   31.4483 N.ar    1  UNL1       -0.2481
     13 C           8.3651   -5.8753   30.5624 C.ar    1  UNL1        0.0594
     14 C           9.2702   -6.9070   31.1677 C.3     1  UNL1        0.0521
     15 C           8.2498   -5.7609   29.0712 C.ar    1  UNL1        0.0147
     16 C           9.3268   -6.9617   23.2937 C.3     1  UNL1        0.2525
     17 O           7.9020   -6.8086   23.7367 O.3     1  UNL1       -0.4701
     18 S           5.8801   -3.3349   21.8962 S.O2    1  UNL1        0.0737
     19 O           4.7928   -4.3375   22.1464 O.2     1  UNL1       -0.1499
     20 O           6.9674   -2.3323   21.6460 O.2     1  UNL1       -0.1499
     21 C           4.8770   -2.3980   21.2913 C.ar    1  UNL1        0.1251
     22 C           4.8231   -2.2156   19.8033 C.ar    1  UNL1        0.0240
     23 C           3.8200   -1.2787   19.1984 C.ar    1  UNL1        0.0727
     24 C           2.8707   -0.5242   20.0814 C.ar    1  UNL1        0.0078
     25 C           2.9245   -0.7067   21.5693 C.ar    1  UNL1        0.0727
     26 C           3.9277   -1.6436   22.1742 C.ar    1  UNL1        0.0240
     27 C           3.7661   -1.0963   17.7105 C.3     1  UNL1        0.4186
     28 F           3.7123   -0.9139   16.2227 F       1  UNL1       -0.1659
     29 F           4.8063   -2.1638   17.5420 F       1  UNL1       -0.1659
     30 F           2.7260   -0.0288   17.8791 F       1  UNL1       -0.1659
     31 C           1.9752    0.0478   22.4523 C.3     1  UNL1        0.4186
     32 F           1.0259    0.8022   23.3352 F       1  UNL1       -0.1659
     33 F           1.3917    0.7239   21.2472 F       1  UNL1       -0.1659
     34 F           2.5587   -0.6283   23.6574 F       1  UNL1       -0.1659
@<TRIPOS>BOND
     1    16    17    1
     2    17     3    1
     3     3     4   ar
     4     4     5   ar
     5     5     9    1
     6     9    10   ar
     7    10    11   ar
     8    11    12   ar
     9    12    13   ar
    10    13    14    1
    11    13    15   ar
    12     5     6   ar
    13     6     7   ar
    14     7     8   ar
    15     8     1    1
    16     1    18    1
    17    18    19    2
    18    18    20    2
    19    18    21    1
    20    21    22   ar
    21    22    23   ar
    22    23    27    1
    23    27    28    1
    24    27    29    1
    25    27    30    1
    26    23    24   ar
    27    24    25   ar
    28    25    31    1
    29    31    32    1
    30    31    33    1
    31    31    34    1
    32    25    26   ar
    33     8     3   ar
    34    26    21   ar
    35    15     9   ar
    36     1     2    1
@<TRIPOS>MOLECULE
*****
 34 36 0 0 0
SMALL
GASTEIGER

@<TRIPOS>ATOM
      1 N           0.9834    1.1994   20.5346 N.pl3   1  UNL1       -0.2120
      2 H           0.3427    1.6667   19.9511 H       1  UNL1        0.1738
      3 C          -0.1286    2.2699   22.6245 C.ar    1  UNL1        0.1532
      4 C          -0.2423    2.3946   24.1149 C.ar    1  UNL1        0.0382
      5 C           0.6421    1.5738   25.0060 C.ar    1  UNL1        0.0032
      6 C           1.6403    0.6281   24.4066 C.ar    1  UNL1        0.0015
      7 C           1.7540    0.5033   22.9161 C.ar    1  UNL1        0.0189
      8 C           0.8696    1.3242   22.0251 C.ar    1  UNL1        0.0986
      9 C           0.5284    1.6986   26.4965 C.ar    1  UNL1        0.0028
     10 C           1.4288    2.6391   27.2412 C.ar    1  UNL1        0.0207
     11 C           1.3151    2.7640   28.7316 C.ar    1  UNL1        0.0984
     12 N           0.3009    1.9483   29.4774 N.ar    1  UNL1       -0.2481
     13 C          -0.5996    1.0078   28.7327 C.ar    1  UNL1        0.0594
     14 C          -1.6138    0.1921   29.4784 C.3     1  UNL1        0.0521
     15 C          -0.4858    0.8829   27.2422 C.ar    1  UNL1        0.0147
     16 C          -0.5637    4.4458   21.2732 C.3     1  UNL1        0.2525
     17 O          -1.0130    3.0907   21.7335 O.3     1  UNL1       -0.4701
     18 S           2.0733    0.3626   19.9331 S.O2    1  UNL1        0.0737
     19 O           1.1695   -0.8343   19.9605 O.2     1  UNL1       -0.1499
     20 O           2.9771    1.5594   19.9057 O.2     1  UNL1       -0.1499
     21 C           3.1632   -0.4743   19.3316 C.ar    1  UNL1        0.1251
     22 C           4.2682    0.1787   18.5551 C.ar    1  UNL1        0.0240
     23 C           5.3581   -0.6582   17.9536 C.ar    1  UNL1        0.0727
     24 C           5.3430   -2.1479   18.1286 C.ar    1  UNL1        0.0078
     25 C           4.2381   -2.8007   18.9050 C.ar    1  UNL1        0.0727
     26 C           3.1482   -1.9639   19.5065 C.ar    1  UNL1        0.0240
     27 C           6.4631   -0.0053   17.1772 C.3     1  UNL1        0.4186
     28 F           7.5680    0.6475   16.4008 F       1  UNL1       -0.1659
     29 F           5.4542    0.5826   16.2358 F       1  UNL1       -0.1659
     30 F           7.4720   -0.5932   18.1187 F       1  UNL1       -0.1659
     31 C           4.2230   -4.2905   19.0799 C.3     1  UNL1        0.4186
     32 F           4.2079   -5.7801   19.2548 F       1  UNL1       -0.1659
     33 F           2.7451   -4.3055   18.8243 F       1  UNL1       -0.1659
     34 F           5.7010   -4.2755   19.3356 F       1  UNL1       -0.1659
@<TRIPOS>BOND
     1    16    17    1
     2    17     3    1
     3     3     4   ar
     4     4     5   ar
     5     5     9    1
     6     9    10   ar
     7    10    11   ar
     8    11    12   ar
     9    12    13   ar
    10    13    14    1
    11    13    15   ar
    12     5     6   ar
    13     6     7   ar
    14     7     8   ar
    15     8     1    1
    16     1    18    1
    17    18    19    2
    18    18    20    2
    19    18    21    1
    20    21    22   ar
    21    22    23   ar
    22    23    27    1
    23    27    28    1
    24    27    29    1
    25    27    30    1
    26    23    24   ar
    27    24    25   ar
    28    25    31    1
    29    31    32    1
    30    31    33    1
    31    31    34    1
    32    25    26   ar
    33     8     3   ar
    34    26    21   ar
    35    15     9   ar
    36     1     2    1
@<TRIPOS>MOLECULE
*****
 34 36 0 0 0
SMALL
GASTEIGER

@<TRIPOS>ATOM
      1 N           5.6896   -1.3640   24.5594 N.pl3   1  UNL1       -0.2120
      2 H           6.6590   -1.5064   24.6554 H       1  UNL1        0.1738
      3 C           5.2472   -1.2839   27.1183 C.ar    1  UNL1        0.1532
      4 C           4.4433   -0.7858   28.2826 C.ar    1  UNL1        0.0382
      5 C           3.2780    0.1301   28.0525 C.ar    1  UNL1        0.0032
      6 C           2.9165    0.5481   26.6580 C.ar    1  UNL1        0.0015
      7 C           3.7204    0.0500   25.4937 C.ar    1  UNL1        0.0189
      8 C           4.8857   -0.8660   25.7238 C.ar    1  UNL1        0.0986
      9 C           2.4741    0.6282   29.2169 C.ar    1  UNL1        0.0028
     10 C           1.0520    1.0610   29.0161 C.ar    1  UNL1        0.0207
     11 C           0.2481    1.5590   30.1804 C.ar    1  UNL1        0.0984
     12 N           0.8664    1.6243   31.5456 N.ar    1  UNL1       -0.2481
     13 C           2.2885    1.1915   31.7464 C.ar    1  UNL1        0.0594
     14 C           2.9067    1.2568   33.1115 C.3     1  UNL1        0.0521
     15 C           3.0924    0.6934   30.5820 C.ar    1  UNL1        0.0147
     16 C           6.1903   -3.5651   27.9287 C.3     1  UNL1        0.2525
     17 O           6.4126   -2.1999   27.3485 O.3     1  UNL1       -0.4701
     18 S           5.0164   -1.6452   23.2488 S.O2    1  UNL1        0.0737
     19 O           5.5588   -0.3611   22.6948 O.2     1  UNL1       -0.1499
     20 O           4.4741   -2.9293   23.8028 O.2     1  UNL1       -0.1499
     21 C           4.3433   -1.9263   21.9381 C.ar    1  UNL1        0.1251
     22 C           3.2882   -0.9935   21.4216 C.ar    1  UNL1        0.0240
     23 C           2.6150   -1.2747   20.1110 C.ar    1  UNL1        0.0727
     24 C           2.9969   -2.4886   19.3168 C.ar    1  UNL1        0.0078
     25 C           4.0519   -3.4214   19.8334 C.ar    1  UNL1        0.0727
     26 C           4.7251   -3.1402   21.1440 C.ar    1  UNL1        0.0240
     27 C           1.5600   -0.3419   19.5944 C.3     1  UNL1        0.4186
     28 F           0.5049    0.5908   19.0779 F       1  UNL1       -0.1659
     29 F           0.6575   -0.7361   20.7259 F       1  UNL1       -0.1659
     30 F           2.4624    0.0522   18.4629 F       1  UNL1       -0.1659
     31 C           4.4338   -4.6353   19.0393 C.3     1  UNL1        0.4186
     32 F           4.8157   -5.8492   18.2453 F       1  UNL1       -0.1659
     33 F           3.5001   -5.4694   19.8654 F       1  UNL1       -0.1659
     34 F           5.3676   -3.8013   18.2132 F       1  UNL1       -0.1659
@<TRIPOS>BOND
     1    16    17    1
     2    17     3    1
     3     3     4   ar
     4     4     5   ar
     5     5     9    1
     6     9    10   ar
     7    10    11   ar
     8    11    12   ar
     9    12    13   ar
    10    13    14    1
    11    13    15   ar
    12     5     6   ar
    13     6     7   ar
    14     7     8   ar
    15     8     1    1
    16     1    18    1
    17    18    19    2
    18    18    20    2
    19    18    21    1
    20    21    22   ar
    21    22    23   ar
    22    23    27    1
    23    27    28    1
    24    27    29    1
    25    27    30    1
    26    23    24   ar
    27    24    25   ar
    28    25    31    1
    29    31    32    1
    30    31    33    1
    31    31    34    1
    32    25    26   ar
    33     8     3   ar
    34    26    21   ar
    35    15     9   ar
    36     1     2    1
