@<TRIPOS>MOLECULE
*****
 34 39 0 0 0
SMALL
GASTEIGER

@<TRIPOS>ATOM
      1 C           3.1098   -1.9000   20.0212 C.ar    1  UNL1        0.1095
      2 N           3.3145   -2.9744   18.9947 N.ar    1  UNL1       -0.1677
      3 N           4.2361   -4.0038   19.5786 N.ar    1  UNL1       -0.2319
      4 C           4.7097   -5.2522   18.8951 C.3     1  UNL1        0.1554
      5 C           4.6009   -3.5657   20.9660 C.ar    1  UNL1        0.1654
      6 N           5.4771   -4.1827   22.0156 N.ar    1  UNL1       -0.2050
      7 C           5.6571   -3.4995   23.3387 C.ar    1  UNL1        0.2014
      8 N           4.9610   -2.1992   23.6123 N.ar    1  UNL1       -0.2089
      9 C           4.0849   -1.5822   22.5627 C.ar    1  UNL1        0.1379
     10 C           3.9049   -2.2654   21.2396 C.ar    1  UNL1        0.0865
     11 C           2.6649    0.5945   19.1700 C.ar    1  UNL1        0.0809
     12 C           2.2594   -0.6752   19.8581 C.ar    1  UNL1        0.0577
     13 C           0.8542   -0.5050   20.3543 C.ar    1  UNL1        0.1231
     14 N           0.3911    0.8698   19.9730 N.ar    1  UNL1       -0.1676
     15 N           1.5103    1.5493   19.2410 N.ar    1  UNL1       -0.2488
     16 C           1.4801    2.9397   18.6788 C.3     1  UNL1        0.1537
     17 C           7.9735    1.6664   16.5873 C.3     1  UNL1        0.0310
     18 C           6.6463    1.3984   17.2330 C.ar    1  UNL1       -0.0218
     19 C           6.2069    2.2158   18.4114 C.ar    1  UNL1       -0.0042
     20 C           4.8798    1.9478   19.0570 C.ar    1  UNL1        0.0012
     21 C           3.9921    0.8624   18.5243 C.ar    1  UNL1        0.0174
     22 C           4.4315    0.0449   17.3459 C.ar    1  UNL1        0.0012
     23 C           5.7586    0.3129   16.7002 C.ar    1  UNL1       -0.0042
     24 N           3.3888   -0.2820   22.8363 N.pl3   1  UNL1       -0.2917
     25 C           3.8787    1.0802   22.4432 C.3     1  UNL1        0.0937
     26 C           2.8733    2.0884   22.9149 C.3     1  UNL1        0.0391
     27 C           1.7619    1.3494   23.5996 C.3     1  UNL1        0.0790
     28 C           2.0805   -0.1156   23.5510 C.3     1  UNL1        0.1081
     29 N           0.5455    1.9669   24.2233 N.3     1  UNL1       -0.2723
     30 C          -0.3036    2.9163   23.4311 C.3     1  UNL1        0.0721
     31 C          -1.5199    3.5338   24.0549 C.3     1  UNL1        0.0174
     32 C          -1.8872    3.2019   25.4708 C.3     1  UNL1        0.0029
     33 C          -1.0381    2.2525   26.2630 C.3     1  UNL1        0.0174
     34 C           0.1783    1.6350   25.6393 C.3     1  UNL1        0.0721
@<TRIPOS>BOND
     1    17    18    1
     2    18    19   ar
     3    19    20   ar
     4    20    21   ar
     5    21    11    1
     6    11    12   ar
     7    12     1    1
     8     1     2   ar
     9     2     3   ar
    10     3     4    1
    11     3     5   ar
    12     5     6   ar
    13     6     7   ar
    14     7     8   ar
    15     8     9   ar
    16     9    24    1
    17    24    25    1
    18    25    26    1
    19    26    27    1
    20    27    29    1
    21    29    30    1
    22    30    31    1
    23    31    32    1
    24    32    33    1
    25    33    34    1
    26    27    28    1
    27     9    10   ar
    28    12    13   ar
    29    13    14   ar
    30    14    15   ar
    31    15    16    1
    32    21    22   ar
    33    22    23   ar
    34    23    18   ar
    35    15    11   ar
    36    10     1   ar
    37    10     5   ar
    38    28    24    1
    39    34    29    1
@<TRIPOS>MOLECULE
*****
 34 39 0 0 0
SMALL
GASTEIGER

@<TRIPOS>ATOM
      1 C           6.0958   -1.3138   20.4564 C.ar    1  UNL1        0.1095
      2 N           7.3938   -1.9216   20.8991 N.ar    1  UNL1       -0.1677
      3 N           7.3019   -3.4057   20.7013 N.ar    1  UNL1       -0.2319
      4 C           8.3762   -4.4049   21.0136 C.3     1  UNL1        0.1554
      5 C           5.9472   -3.7151   20.1364 C.ar    1  UNL1        0.1654
      6 N           5.2962   -5.0070   19.7403 N.ar    1  UNL1       -0.2050
      7 C           3.8997   -5.0061   19.1928 C.ar    1  UNL1        0.2014
      8 N           3.1543   -3.7133   19.0414 N.ar    1  UNL1       -0.2089
      9 C           3.8053   -2.4213   19.4376 C.ar    1  UNL1        0.1379
     10 C           5.2018   -2.4223   19.9850 C.ar    1  UNL1        0.0865
     11 C           5.1851    0.8989   21.6477 C.ar    1  UNL1        0.0809
     12 C           5.7522    0.1461   20.4808 C.ar    1  UNL1        0.0577
     13 C           5.9153    1.1094   19.3428 C.ar    1  UNL1        0.1231
     14 N           5.4490    2.4577   19.8061 N.ar    1  UNL1       -0.1676
     15 N           4.9977    2.3276   21.2307 N.ar    1  UNL1       -0.2488
     16 C           4.4544    3.4322   22.0879 C.3     1  UNL1        0.1537
     17 C           3.8925   -1.4001   27.0369 C.3     1  UNL1        0.0310
     18 C           4.2157   -0.8253   25.6896 C.ar    1  UNL1       -0.0218
     19 C           3.1179   -0.5723   24.6993 C.ar    1  UNL1       -0.0042
     20 C           3.4411    0.0024   23.3520 C.ar    1  UNL1        0.0012
     21 C           4.8620    0.3242   22.9951 C.ar    1  UNL1        0.0174
     22 C           5.9598    0.0712   23.9854 C.ar    1  UNL1        0.0012
     23 C           5.6366   -0.5036   25.3327 C.ar    1  UNL1       -0.0042
     24 N           3.0599   -1.1285   19.2862 N.pl3   1  UNL1       -0.2917
     25 C           3.1010   -0.2216   18.0921 C.3     1  UNL1        0.0937
     26 C           2.2090    0.9518   18.3703 C.3     1  UNL1        0.0391
     27 C           1.6166    0.7702   19.7363 C.3     1  UNL1        0.0790
     28 C           2.1425   -0.5155   20.3024 C.3     1  UNL1        0.1081
     29 N           0.6654    1.7093   20.4168 N.3     1  UNL1       -0.2723
     30 C           0.5911    1.7468   21.9146 C.3     1  UNL1        0.0721
     31 C          -0.3601    2.6859   22.5950 C.3     1  UNL1        0.0174
     32 C          -1.2371    3.5876   21.7778 C.3     1  UNL1        0.0029
     33 C          -1.1629    3.5502   20.2802 C.3     1  UNL1        0.0174
     34 C          -0.2116    2.6110   19.5996 C.3     1  UNL1        0.0721
@<TRIPOS>BOND
     1    17    18    1
     2    18    19   ar
     3    19    20   ar
     4    20    21   ar
     5    21    11    1
     6    11    12   ar
     7    12     1    1
     8     1     2   ar
     9     2     3   ar
    10     3     4    1
    11     3     5   ar
    12     5     6   ar
    13     6     7   ar
    14     7     8   ar
    15     8     9   ar
    16     9    24    1
    17    24    25    1
    18    25    26    1
    19    26    27    1
    20    27    29    1
    21    29    30    1
    22    30    31    1
    23    31    32    1
    24    32    33    1
    25    33    34    1
    26    27    28    1
    27     9    10   ar
    28    12    13   ar
    29    13    14   ar
    30    14    15   ar
    31    15    16    1
    32    21    22   ar
    33    22    23   ar
    34    23    18   ar
    35    15    11   ar
    36    10     1   ar
    37    10     5   ar
    38    28    24    1
    39    34    29    1
@<TRIPOS>MOLECULE
*****
 34 39 0 0 0
SMALL
GASTEIGER

@<TRIPOS>ATOM
      1 C           3.0748   -1.8847   20.0703 C.ar    1  UNL1        0.1095
      2 N           3.2453   -2.9776   19.0571 N.ar    1  UNL1       -0.1677
      3 N           4.1769   -4.0024   19.6330 N.ar    1  UNL1       -0.2319
      4 C           4.6247   -5.2651   18.9583 C.3     1  UNL1        0.1554
      5 C           4.5823   -3.5429   21.0022 C.ar    1  UNL1        0.1654
      6 N           5.4836   -4.1472   22.0378 N.ar    1  UNL1       -0.2050
      7 C           5.7037   -3.4427   23.3435 C.ar    1  UNL1        0.2014
      8 N           5.0226   -2.1339   23.6138 N.ar    1  UNL1       -0.2089
      9 C           4.1213   -1.5296   22.5782 C.ar    1  UNL1        0.1379
     10 C           3.9011   -2.2341   21.2724 C.ar    1  UNL1        0.0865
     11 C           2.6252    0.6023   19.2001 C.ar    1  UNL1        0.0809
     12 C           2.2269   -0.6578   19.9096 C.ar    1  UNL1        0.0577
     13 C           0.8321   -0.4757   20.4301 C.ar    1  UNL1        0.1231
     14 N           0.3680    0.8971   20.0423 N.ar    1  UNL1       -0.1676
     15 N           1.4763    1.5633   19.2821 N.ar    1  UNL1       -0.2488
     16 C           1.4418    2.9476   18.7053 C.3     1  UNL1        0.1537
     17 C           7.8889    1.6206   16.5064 C.3     1  UNL1        0.0310
     18 C           6.5730    1.3660   17.1799 C.ar    1  UNL1       -0.0218
     19 C           5.7044    0.2313   16.7240 C.ar    1  UNL1       -0.0042
     20 C           4.3884   -0.0232   17.3975 C.ar    1  UNL1        0.0012
     21 C           3.9411    0.8570   18.5267 C.ar    1  UNL1        0.0174
     22 C           4.8098    1.9917   18.9825 C.ar    1  UNL1        0.0012
     23 C           6.1257    2.2463   18.3091 C.ar    1  UNL1       -0.0042
     24 N           3.4401   -0.2208   22.8484 N.pl3   1  UNL1       -0.2917
     25 C           2.1868   -0.0280   23.6498 C.3     1  UNL1        0.0937
     26 C           1.8648    1.4370   23.6614 C.3     1  UNL1        0.0391
     27 C           2.9191    2.1496   22.8672 C.3     1  UNL1        0.0790
     28 C           3.8926    1.1251   22.3648 C.3     1  UNL1        0.1081
     29 N           2.9877    3.6274   22.6190 N.3     1  UNL1       -0.2723
     30 C           4.1817    4.2173   21.9289 C.3     1  UNL1        0.0721
     31 C           4.2503    5.6950   21.6808 C.3     1  UNL1        0.0174
     32 C           3.1249    6.5828   22.1227 C.3     1  UNL1        0.0029
     33 C           1.9310    5.9929   22.8128 C.3     1  UNL1        0.0174
     34 C           1.8623    4.5151   23.0610 C.3     1  UNL1        0.0721
@<TRIPOS>BOND
     1    17    18    1
     2    18    19   ar
     3    19    20   ar
     4    20    21   ar
     5    21    11    1
     6    11    12   ar
     7    12     1    1
     8     1     2   ar
     9     2     3   ar
    10     3     4    1
    11     3     5   ar
    12     5     6   ar
    13     6     7   ar
    14     7     8   ar
    15     8     9   ar
    16     9    24    1
    17    24    25    1
    18    25    26    1
    19    26    27    1
    20    27    29    1
    21    29    30    1
    22    30    31    1
    23    31    32    1
    24    32    33    1
    25    33    34    1
    26    27    28    1
    27     9    10   ar
    28    12    13   ar
    29    13    14   ar
    30    14    15   ar
    31    15    16    1
    32    21    22   ar
    33    22    23   ar
    34    23    18   ar
    35    15    11   ar
    36    10     1   ar
    37    10     5   ar
    38    28    24    1
    39    34    29    1
@<TRIPOS>MOLECULE
*****
 34 39 0 0 0
SMALL
GASTEIGER

@<TRIPOS>ATOM
      1 C           3.0485   -1.2150   19.7741 C.ar    1  UNL1        0.1095
      2 N           3.1610   -2.7107   19.7669 N.ar    1  UNL1       -0.1677
      3 N           4.3275   -3.0836   18.9007 N.ar    1  UNL1       -0.2319
      4 C           4.8023   -4.4771   18.6131 C.3     1  UNL1        0.1554
      5 C           4.9360   -1.8183   18.3726 C.ar    1  UNL1        0.1654
      6 N           6.1076   -1.5686   17.4700 N.ar    1  UNL1       -0.2050
      7 C           6.4888   -0.1640   17.1071 C.ar    1  UNL1        0.2014
      8 N           5.6984    0.9909   17.6469 N.ar    1  UNL1       -0.2089
      9 C           4.5267    0.7412   18.5496 C.ar    1  UNL1        0.1379
     10 C           4.1455   -0.6634   18.9124 C.ar    1  UNL1        0.0865
     11 C           2.1074    0.0305   21.9439 C.ar    1  UNL1        0.0809
     12 C           2.0197   -0.4117   20.5132 C.ar    1  UNL1        0.0577
     13 C           0.7227    0.0903   19.9516 C.ar    1  UNL1        0.1231
     14 N           0.0086    0.8428   21.0350 N.ar    1  UNL1       -0.1676
     15 N           0.8645    0.8058   22.2663 N.ar    1  UNL1       -0.2488
     16 C           0.5352    1.4340   23.5882 C.3     1  UNL1        0.1537
     17 C           6.6345   -1.1031   25.7148 C.3     1  UNL1        0.0310
     18 C           5.5028   -0.8197   24.7721 C.ar    1  UNL1       -0.0218
     19 C           4.6679   -1.9475   24.2420 C.ar    1  UNL1       -0.0042
     20 C           3.5361   -1.6640   23.2993 C.ar    1  UNL1        0.0012
     21 C           3.2392   -0.2528   22.8866 C.ar    1  UNL1        0.0174
     22 C           4.0741    0.8750   23.4167 C.ar    1  UNL1        0.0012
     23 C           5.2059    0.5916   24.3594 C.ar    1  UNL1       -0.0042
     24 N           3.7362    1.8961   19.0893 N.pl3   1  UNL1       -0.2917
     25 C           4.0596    2.6861   20.3228 C.3     1  UNL1        0.0937
     26 C           3.0068    3.7420   20.4862 C.3     1  UNL1        0.0391
     27 C           2.0328    3.6046   19.3538 C.3     1  UNL1        0.0790
     28 C           2.4836    2.4638   18.4905 C.3     1  UNL1        0.1081
     29 N           0.8208    4.4582   19.1248 N.3     1  UNL1       -0.2723
     30 C           0.9094    5.9464   19.2902 C.3     1  UNL1        0.0721
     31 C          -0.3026    6.7999   19.0613 C.3     1  UNL1        0.0174
     32 C          -1.6033    6.1652   18.6669 C.3     1  UNL1        0.0029
     33 C          -1.6919    4.6771   18.5015 C.3     1  UNL1        0.0174
     34 C          -0.4798    3.8235   18.7305 C.3     1  UNL1        0.0721
@<TRIPOS>BOND
     1    17    18    1
     2    18    19   ar
     3    19    20   ar
     4    20    21   ar
     5    21    11    1
     6    11    12   ar
     7    12     1    1
     8     1     2   ar
     9     2     3   ar
    10     3     4    1
    11     3     5   ar
    12     5     6   ar
    13     6     7   ar
    14     7     8   ar
    15     8     9   ar
    16     9    24    1
    17    24    25    1
    18    25    26    1
    19    26    27    1
    20    27    29    1
    21    29    30    1
    22    30    31    1
    23    31    32    1
    24    32    33    1
    25    33    34    1
    26    27    28    1
    27     9    10   ar
    28    12    13   ar
    29    13    14   ar
    30    14    15   ar
    31    15    16    1
    32    21    22   ar
    33    22    23   ar
    34    23    18   ar
    35    15    11   ar
    36    10     1   ar
    37    10     5   ar
    38    28    24    1
    39    34    29    1
@<TRIPOS>MOLECULE
*****
 34 39 0 0 0
SMALL
GASTEIGER

@<TRIPOS>ATOM
      1 C           3.8514    1.6452   30.0126 C.ar    1  UNL1        0.1095
      2 N           4.4506    1.1699   28.7222 N.ar    1  UNL1       -0.1677
      3 N           3.3401    0.6451   27.8612 N.ar    1  UNL1       -0.2319
      4 C           3.4889    0.0703   26.4837 C.3     1  UNL1        0.1554
      5 C           2.0546    0.7961   28.6194 C.ar    1  UNL1        0.1654
      6 N           0.6372    0.4507   28.2708 N.ar    1  UNL1       -0.2050
      7 C          -0.4641    0.7233   29.2519 C.ar    1  UNL1        0.2014
      8 N          -0.1481    1.3414   30.5816 N.ar    1  UNL1       -0.2089
      9 C           1.2693    1.6869   30.9301 C.ar    1  UNL1        0.1379
     10 C           2.3707    1.4142   29.9490 C.ar    1  UNL1        0.0865
     11 C           5.4667    1.5015   32.1375 C.ar    1  UNL1        0.0809
     12 C           4.6014    2.2460   31.1644 C.ar    1  UNL1        0.0577
     13 C           4.6177    3.6967   31.5453 C.ar    1  UNL1        0.1231
     14 N           5.4931    3.8490   32.7538 N.ar    1  UNL1       -0.1676
     15 N           6.0178    2.4922   33.1198 N.ar    1  UNL1       -0.2488
     16 C           6.9329    2.1807   34.2669 C.3     1  UNL1        0.1537
     17 C           6.5363   -4.4023   32.1066 C.3     1  UNL1        0.0310
     18 C           6.2689   -2.9263   32.1143 C.ar    1  UNL1       -0.0218
     19 C           7.1827   -1.9947   31.3748 C.ar    1  UNL1       -0.0042
     20 C           6.9153   -0.5187   31.3826 C.ar    1  UNL1        0.0012
     21 C           5.7340    0.0255   32.1299 C.ar    1  UNL1        0.0174
     22 C           4.8202   -0.9061   32.8694 C.ar    1  UNL1        0.0012
     23 C           5.0876   -2.3820   32.8616 C.ar    1  UNL1       -0.0042
     24 N           1.5854    2.3050   32.2598 N.pl3   1  UNL1       -0.2917
     25 C           1.3580    3.7373   32.6427 C.3     1  UNL1        0.0937
     26 C           1.8164    3.9168   34.0596 C.3     1  UNL1        0.0391
     27 C           2.3270    2.5954   34.5525 C.3     1  UNL1        0.0790
     28 C           2.1842    1.5992   33.4402 C.3     1  UNL1        0.1081
     29 N           2.8829    2.3186   35.9180 N.3     1  UNL1       -0.2723
     30 C           2.4110    3.1183   37.0961 C.3     1  UNL1        0.0721
     31 C           2.9668    2.8415   38.4614 C.3     1  UNL1        0.0174
     32 C           3.9946    1.7651   38.6488 C.3     1  UNL1        0.0029
     33 C           4.4664    0.9655   37.4708 C.3     1  UNL1        0.0174
     34 C           3.9106    1.2422   36.1053 C.3     1  UNL1        0.0721
@<TRIPOS>BOND
     1    17    18    1
     2    18    19   ar
     3    19    20   ar
     4    20    21   ar
     5    21    11    1
     6    11    12   ar
     7    12     1    1
     8     1     2   ar
     9     2     3   ar
    10     3     4    1
    11     3     5   ar
    12     5     6   ar
    13     6     7   ar
    14     7     8   ar
    15     8     9   ar
    16     9    24    1
    17    24    25    1
    18    25    26    1
    19    26    27    1
    20    27    29    1
    21    29    30    1
    22    30    31    1
    23    31    32    1
    24    32    33    1
    25    33    34    1
    26    27    28    1
    27     9    10   ar
    28    12    13   ar
    29    13    14   ar
    30    14    15   ar
    31    15    16    1
    32    21    22   ar
    33    22    23   ar
    34    23    18   ar
    35    15    11   ar
    36    10     1   ar
    37    10     5   ar
    38    28    24    1
    39    34    29    1
@<TRIPOS>MOLECULE
*****
 34 39 0 0 0
SMALL
GASTEIGER

@<TRIPOS>ATOM
      1 C           3.4921   -1.2816   21.3592 C.ar    1  UNL1        0.1095
      2 N           2.5613   -1.1319   20.1925 N.ar    1  UNL1       -0.1677
      3 N           1.6822    0.0559   20.4504 N.ar    1  UNL1       -0.2319
      4 C           0.6047    0.5692   19.5418 C.3     1  UNL1        0.1554
      5 C           2.0698    0.6402   21.7764 C.ar    1  UNL1        0.1654
      6 N           1.5487    1.8182   22.5450 N.ar    1  UNL1       -0.2050
      7 C           2.1462    2.1696   23.8752 C.ar    1  UNL1        0.2014
      8 N           3.2648    1.3430   24.4368 N.ar    1  UNL1       -0.2089
      9 C           3.7859    0.1650   23.6683 C.ar    1  UNL1        0.1379
     10 C           3.1884   -0.1864   22.3381 C.ar    1  UNL1        0.0865
     11 C           5.8560   -2.3956   20.7967 C.ar    1  UNL1        0.0809
     12 C           4.5424   -2.3406   21.5189 C.ar    1  UNL1        0.0577
     13 C           4.4635   -3.5304   22.4288 C.ar    1  UNL1        0.1231
     14 N           5.7283   -4.3209   22.2690 N.ar    1  UNL1       -0.1676
     15 N           6.5889   -3.6195   21.2603 N.ar    1  UNL1       -0.2488
     16 C           7.9445   -4.0640   20.7966 C.3     1  UNL1        0.1537
     17 C           7.8323    1.5815   16.7623 C.3     1  UNL1        0.0310
     18 C           7.3382    0.5872   17.7709 C.ar    1  UNL1       -0.0218
     19 C           7.8579    0.6244   19.1774 C.ar    1  UNL1       -0.0042
     20 C           7.3638   -0.3699   20.1860 C.ar    1  UNL1        0.0012
     21 C           6.3500   -1.4013   19.7880 C.ar    1  UNL1        0.0174
     22 C           5.8303   -1.4385   18.3814 C.ar    1  UNL1        0.0012
     23 C           6.3244   -0.4442   17.3729 C.ar    1  UNL1       -0.0042
     24 N           4.9045   -0.6616   24.2299 N.pl3   1  UNL1       -0.2917
     25 C           6.3566   -0.5381   23.8745 C.3     1  UNL1        0.0937
     26 C           7.1170   -1.5570   24.6705 C.3     1  UNL1        0.0391
     27 C           6.1349   -2.3102   25.5179 C.3     1  UNL1        0.0790
     28 C           4.7675   -1.7568   25.2456 C.3     1  UNL1        0.1081
     29 N           6.4626   -3.4217   26.4704 N.3     1  UNL1       -0.2723
     30 C           6.8341   -4.7760   25.9433 C.3     1  UNL1        0.0721
     31 C           7.1618   -5.8874   26.8959 C.3     1  UNL1        0.0174
     32 C           7.1179   -5.6445   28.3754 C.3     1  UNL1        0.0029
     33 C           6.7464   -4.2903   28.9024 C.3     1  UNL1        0.0174
     34 C           6.4187   -3.1788   27.9499 C.3     1  UNL1        0.0721
@<TRIPOS>BOND
     1    17    18    1
     2    18    19   ar
     3    19    20   ar
     4    20    21   ar
     5    21    11    1
     6    11    12   ar
     7    12     1    1
     8     1     2   ar
     9     2     3   ar
    10     3     4    1
    11     3     5   ar
    12     5     6   ar
    13     6     7   ar
    14     7     8   ar
    15     8     9   ar
    16     9    24    1
    17    24    25    1
    18    25    26    1
    19    26    27    1
    20    27    29    1
    21    29    30    1
    22    30    31    1
    23    31    32    1
    24    32    33    1
    25    33    34    1
    26    27    28    1
    27     9    10   ar
    28    12    13   ar
    29    13    14   ar
    30    14    15   ar
    31    15    16    1
    32    21    22   ar
    33    22    23   ar
    34    23    18   ar
    35    15    11   ar
    36    10     1   ar
    37    10     5   ar
    38    28    24    1
    39    34    29    1
@<TRIPOS>MOLECULE
*****
 34 39 0 0 0
SMALL
GASTEIGER

@<TRIPOS>ATOM
      1 C           5.9155    0.0382   29.8637 C.ar    1  UNL1        0.1095
      2 N           6.3959    0.2127   28.4535 N.ar    1  UNL1       -0.1677
      3 N           5.2016    0.1622   27.5474 N.ar    1  UNL1       -0.2319
      4 C           5.2223    0.2943   26.0533 C.3     1  UNL1        0.1554
      5 C           3.9831   -0.0434   28.3975 C.ar    1  UNL1        0.1654
      6 N           2.5288   -0.1708   28.0530 N.ar    1  UNL1       -0.2050
      7 C           1.5156   -0.3749   29.1401 C.ar    1  UNL1        0.2014
      8 N           1.9568   -0.4515   30.5717 N.ar    1  UNL1       -0.2089
      9 C           3.4111   -0.3242   30.9162 C.ar    1  UNL1        0.1379
     10 C           4.4242   -0.1201   29.8291 C.ar    1  UNL1        0.0865
     11 C           7.5806   -1.1383   31.5923 C.ar    1  UNL1        0.0809
     12 C           6.7752    0.0244   31.0928 C.ar    1  UNL1        0.0577
     13 C           6.9807    1.1708   32.0380 C.ar    1  UNL1        0.1231
     14 N           7.9129    0.7167   33.1218 N.ar    1  UNL1       -0.1676
     15 N           8.2837   -0.7104   32.8463 N.ar    1  UNL1       -0.2488
     16 C           9.1973   -1.5605   33.6788 C.3     1  UNL1        0.1537
     17 C           7.9284   -6.5506   29.0260 C.3     1  UNL1        0.0310
     18 C           7.8414   -5.1975   29.6675 C.ar    1  UNL1       -0.0218
     19 C           7.0068   -5.0035   30.8986 C.ar    1  UNL1       -0.0042
     20 C           6.9198   -3.6504   31.5402 C.ar    1  UNL1        0.0012
     21 C           7.6676   -2.4914   30.9507 C.ar    1  UNL1        0.0174
     22 C           8.5023   -2.6854   29.7196 C.ar    1  UNL1        0.0012
     23 C           8.5892   -4.0385   29.0780 C.ar    1  UNL1       -0.0042
     24 N           3.8523   -0.4008   32.3478 N.pl3   1  UNL1       -0.2917
     25 C           4.2937   -1.6396   33.0693 C.3     1  UNL1        0.0937
     26 C           4.6437   -1.2566   34.4767 C.3     1  UNL1        0.0391
     27 C           4.4186    0.2190   34.6251 C.3     1  UNL1        0.0790
     28 C           3.9294    0.7478   33.3094 C.3     1  UNL1        0.1081
     29 N           4.6431    1.0243   35.8705 N.3     1  UNL1       -0.2723
     30 C           3.9291    0.6598   37.1383 C.3     1  UNL1        0.0721
     31 C           4.1537    1.4651   38.3836 C.3     1  UNL1        0.0174
     32 C           5.0923    2.6349   38.3612 C.3     1  UNL1        0.0029
     33 C           5.8063    2.9994   37.0935 C.3     1  UNL1        0.0174
     34 C           5.5817    2.1941   35.8481 C.3     1  UNL1        0.0721
@<TRIPOS>BOND
     1    17    18    1
     2    18    19   ar
     3    19    20   ar
     4    20    21   ar
     5    21    11    1
     6    11    12   ar
     7    12     1    1
     8     1     2   ar
     9     2     3   ar
    10     3     4    1
    11     3     5   ar
    12     5     6   ar
    13     6     7   ar
    14     7     8   ar
    15     8     9   ar
    16     9    24    1
    17    24    25    1
    18    25    26    1
    19    26    27    1
    20    27    29    1
    21    29    30    1
    22    30    31    1
    23    31    32    1
    24    32    33    1
    25    33    34    1
    26    27    28    1
    27     9    10   ar
    28    12    13   ar
    29    13    14   ar
    30    14    15   ar
    31    15    16    1
    32    21    22   ar
    33    22    23   ar
    34    23    18   ar
    35    15    11   ar
    36    10     1   ar
    37    10     5   ar
    38    28    24    1
    39    34    29    1
@<TRIPOS>MOLECULE
*****
 34 39 0 0 0
SMALL
GASTEIGER

@<TRIPOS>ATOM
      1 C           7.6430   -2.1901   25.3247 C.ar    1  UNL1        0.1095
      2 N           8.6238   -2.0308   26.4483 N.ar    1  UNL1       -0.1677
      3 N           7.8769   -1.5271   27.6476 N.ar    1  UNL1       -0.2319
      4 C           8.4685   -1.2278   28.9931 C.3     1  UNL1        0.1554
      5 C           6.4344   -1.3751   27.2652 C.ar    1  UNL1        0.1654
      6 N           5.2339   -0.9166   28.0388 N.ar    1  UNL1       -0.2050
      7 C           3.8888   -0.8679   27.3767 C.ar    1  UNL1        0.2014
      8 N           3.7443   -1.2777   25.9410 N.ar    1  UNL1       -0.2089
      9 C           4.9448   -1.7362   25.1674 C.ar    1  UNL1        0.1379
     10 C           6.2898   -1.7850   25.8295 C.ar    1  UNL1        0.0865
     11 C           8.1999   -4.0943   23.5333 C.ar    1  UNL1        0.0809
     12 C           7.9596   -2.6704   23.9394 C.ar    1  UNL1        0.0577
     13 C           8.0917   -1.8112   22.7170 C.ar    1  UNL1        0.1231
     14 N           8.4135   -2.7040   21.5553 N.ar    1  UNL1       -0.1676
     15 N           8.4804   -4.1150   22.0599 N.ar    1  UNL1       -0.2488
     16 C           8.7759   -5.3331   21.2357 C.3     1  UNL1        0.1537
     17 C           8.0631   -8.8689   27.1643 C.3     1  UNL1        0.0310
     18 C           8.0973   -7.6752   26.2565 C.ar    1  UNL1       -0.0218
     19 C           9.1857   -7.5423   25.2331 C.ar    1  UNL1       -0.0042
     20 C           9.2199   -6.3486   24.3253 C.ar    1  UNL1        0.0012
     21 C           8.1656   -5.2879   24.4411 C.ar    1  UNL1        0.0174
     22 C           7.0771   -5.4209   25.4645 C.ar    1  UNL1        0.0012
     23 C           7.0430   -6.6145   26.3723 C.ar    1  UNL1       -0.0042
     24 N           4.8002   -2.1461   23.7317 N.pl3   1  UNL1       -0.2917
     25 C           4.8220   -3.5521   23.2097 C.3     1  UNL1        0.0937
     26 C           4.6437   -3.4969   21.7214 C.3     1  UNL1        0.0391
     27 C           4.5119   -2.0566   21.3235 C.3     1  UNL1        0.0790
     28 C           4.6086   -1.2218   22.5660 C.3     1  UNL1        0.1081
     29 N           4.3174   -1.5416   19.9282 N.3     1  UNL1       -0.2723
     30 C           3.1628   -0.6360   19.6171 C.3     1  UNL1        0.0721
     31 C           2.9684   -0.1210   18.2218 C.3     1  UNL1        0.0174
     32 C           3.9286   -0.5116   17.1376 C.3     1  UNL1        0.0029
     33 C           5.0832   -1.4171   17.4487 C.3     1  UNL1        0.0174
     34 C           5.2776   -1.9321   18.8440 C.3     1  UNL1        0.0721
@<TRIPOS>BOND
     1    17    18    1
     2    18    19   ar
     3    19    20   ar
     4    20    21   ar
     5    21    11    1
     6    11    12   ar
     7    12     1    1
     8     1     2   ar
     9     2     3   ar
    10     3     4    1
    11     3     5   ar
    12     5     6   ar
    13     6     7   ar
    14     7     8   ar
    15     8     9   ar
    16     9    24    1
    17    24    25    1
    18    25    26    1
    19    26    27    1
    20    27    29    1
    21    29    30    1
    22    30    31    1
    23    31    32    1
    24    32    33    1
    25    33    34    1
    26    27    28    1
    27     9    10   ar
    28    12    13   ar
    29    13    14   ar
    30    14    15   ar
    31    15    16    1
    32    21    22   ar
    33    22    23   ar
    34    23    18   ar
    35    15    11   ar
    36    10     1   ar
    37    10     5   ar
    38    28    24    1
    39    34    29    1
@<TRIPOS>MOLECULE
*****
 34 39 0 0 0
SMALL
GASTEIGER

@<TRIPOS>ATOM
      1 C           8.3127   -2.9326   26.6601 C.ar    1  UNL1        0.1095
      2 N           8.8815   -2.6586   28.0208 N.ar    1  UNL1       -0.1677
      3 N           8.9683   -3.9621   28.7579 N.ar    1  UNL1       -0.2319
      4 C           9.4804   -4.1527   30.1548 C.3     1  UNL1        0.1554
      5 C           8.4530   -5.0417   27.8528 C.ar    1  UNL1        0.1654
      6 N           8.3005   -6.5219   28.0418 N.ar    1  UNL1       -0.2050
      7 C           7.7427   -7.3657   26.9342 C.ar    1  UNL1        0.2014
      8 N           7.3375   -6.7294   25.6377 N.ar    1  UNL1       -0.2089
      9 C           7.4901   -5.2492   25.4488 C.ar    1  UNL1        0.1379
     10 C           8.0478   -4.4054   26.5563 C.ar    1  UNL1        0.0865
     11 C           6.8998   -0.9558   25.5461 C.ar    1  UNL1        0.0809
     12 C           8.0540   -1.9128   25.5910 C.ar    1  UNL1        0.0577
     13 C           8.9041   -1.6709   24.3791 C.ar    1  UNL1        0.1231
     14 N           8.2754   -0.5644   23.5851 N.ar    1  UNL1       -0.1676
     15 N           7.0366   -0.1225   24.3064 N.ar    1  UNL1       -0.2488
     16 C           6.0992    0.9624   23.8654 C.3     1  UNL1        0.1537
     17 C           2.5072   -0.5345   29.6115 C.3     1  UNL1        0.0310
     18 C           3.6053   -0.6399   28.5951 C.ar    1  UNL1       -0.0218
     19 C           4.9686   -0.0962   28.9049 C.ar    1  UNL1       -0.0042
     20 C           6.0667   -0.2015   27.8885 C.ar    1  UNL1        0.0012
     21 C           5.8016   -0.8505   26.5624 C.ar    1  UNL1        0.0174
     22 C           4.4383   -1.3942   26.2526 C.ar    1  UNL1        0.0012
     23 C           3.3402   -1.2889   27.2690 C.ar    1  UNL1       -0.0042
     24 N           7.0849   -4.6129   24.1522 N.pl3   1  UNL1       -0.2917
     25 C           7.9079   -4.5635   22.8992 C.3     1  UNL1        0.0937
     26 C           7.1172   -3.8344   21.8536 C.3     1  UNL1        0.0391
     27 C           5.8055   -3.4330   22.4606 C.3     1  UNL1        0.0790
     28 C           5.7855   -3.9142   23.8812 C.3     1  UNL1        0.1081
     29 N           4.7067   -2.6824   21.7684 N.3     1  UNL1       -0.2723
     30 C           3.9033   -1.6645   22.5224 C.3     1  UNL1        0.0721
     31 C           2.8045   -0.9139   21.8303 C.3     1  UNL1        0.0174
     32 C           2.5091   -1.1811   20.3841 C.3     1  UNL1        0.0029
     33 C           3.3124   -2.1989   19.6302 C.3     1  UNL1        0.0174
     34 C           4.4112   -2.9496   20.3223 C.3     1  UNL1        0.0721
@<TRIPOS>BOND
     1    17    18    1
     2    18    19   ar
     3    19    20   ar
     4    20    21   ar
     5    21    11    1
     6    11    12   ar
     7    12     1    1
     8     1     2   ar
     9     2     3   ar
    10     3     4    1
    11     3     5   ar
    12     5     6   ar
    13     6     7   ar
    14     7     8   ar
    15     8     9   ar
    16     9    24    1
    17    24    25    1
    18    25    26    1
    19    26    27    1
    20    27    29    1
    21    29    30    1
    22    30    31    1
    23    31    32    1
    24    32    33    1
    25    33    34    1
    26    27    28    1
    27     9    10   ar
    28    12    13   ar
    29    13    14   ar
    30    14    15   ar
    31    15    16    1
    32    21    22   ar
    33    22    23   ar
    34    23    18   ar
    35    15    11   ar
    36    10     1   ar
    37    10     5   ar
    38    28    24    1
    39    34    29    1
