@<TRIPOS>MOLECULE
*****
 43 47 0 0 0
SMALL
GASTEIGER

@<TRIPOS>ATOM
      1 C           3.4749    0.2151   27.7286 C.2     1  UNL1        0.2461
      2 O           3.5586    1.6155   28.2597 O.2     1  UNL1       -0.2701
      3 N           3.4858   -0.9481   28.6756 N.am    1  UNL1       -0.2964
      4 H           3.4309   -1.8671   28.3270 H       1  UNL1        0.1501
      5 C           5.5220   -3.5731   23.6975 C.3     1  UNL1        0.1304
      6 N           4.6224   -2.4557   23.2594 N.ar    1  UNL1       -0.3253
      7 C           4.1700   -2.1871   21.8546 C.ar    1  UNL1        0.0590
      8 C           3.2853   -0.9760   21.8762 C.ar    1  UNL1       -0.0052
      9 C           3.1908   -0.4961   23.2942 C.ar    1  UNL1        0.0132
     10 C           2.4591    0.6554   23.9175 C.ar    1  UNL1        0.0013
     11 C           2.5538    0.8925   25.3956 C.ar    1  UNL1        0.0046
     12 C           3.3802   -0.0220   26.2504 C.ar    1  UNL1        0.0548
     13 C           4.1119   -1.1735   25.6272 C.ar    1  UNL1        0.0217
     14 C           4.0172   -1.4106   24.1491 C.ar    1  UNL1        0.0598
     15 C           2.6129   -0.3540   20.6883 C.3     1  UNL1        0.0238
     16 C           1.1259   -0.1569   20.6861 C.3     1  UNL1        0.0044
     17 C           0.4535    0.4651   19.4982 C.3     1  UNL1        0.0003
     18 C           1.2682    0.8900   18.3125 C.3     1  UNL1        0.0000
     19 C           2.7552    0.6929   18.3148 C.3     1  UNL1        0.0003
     20 C           3.4275    0.0709   19.5027 C.3     1  UNL1        0.0044
     21 C           4.5378   -2.9888   20.6414 C.ar    1  UNL1        0.0562
     22 C           3.7715   -4.1540   20.0890 C.ar    1  UNL1        0.0452
     23 C           4.4966   -4.6514   18.8737 C.ar    1  UNL1        0.1798
     24 O           5.7110   -3.7937   18.6751 O.2     1  UNL1       -0.4473
     25 C           5.7365   -2.7662   19.7676 C.ar    1  UNL1        0.1811
     26 C           3.5805   -0.7110   30.1537 C.3     1  UNL1        0.1262
     27 C           5.0688   -0.8854   30.0864 C.3     1  UNL1        0.0290
     28 C           2.0922   -0.5365   30.2210 C.3     1  UNL1        0.0290
     29 C           3.6751   -0.4739   31.6318 C.2     1  UNL1        0.2419
     30 O           3.5474   -1.6245   32.5856 O.2     1  UNL1       -0.2731
     31 N           3.8974    0.9138   32.1561 N.am    1  UNL1       -0.2826
     32 H           3.9812    1.6690   31.5301 H       1  UNL1        0.1549
     33 C           3.9920    1.1509   33.6342 C.ar    1  UNL1        0.0503
     34 C           2.8813    1.8579   34.3530 C.ar    1  UNL1        0.0147
     35 C           2.9759    2.0950   35.8311 C.ar    1  UNL1        0.0013
     36 C           4.1812    1.6252   36.5904 C.ar    1  UNL1        0.0001
     37 C           5.2918    0.9182   35.8717 C.ar    1  UNL1        0.0013
     38 C           5.1973    0.6811   34.3935 C.ar    1  UNL1        0.0147
     39 C           4.2758    1.8623   38.0685 C.2     1  UNL1        0.0012
     40 C           4.6008    3.2309   38.5893 C.2     1  UNL1        0.0151
     41 C           4.6954    3.4680   40.0675 C.2     1  UNL1        0.0729
     42 O           3.6473    4.2835   40.7649 O.co2   1  UNL1       -0.5446
     43 O           5.8382    2.8895   40.8482 O.co2   1  UNL1       -0.5446
@<TRIPOS>UNITY_ATOM_ATTR
42 1
charge -1
@<TRIPOS>BOND
     1     5     6    1
     2     6     7   ar
     3     7    21    1
     4    21    22   ar
     5    22    23   ar
     6    23    24   ar
     7    24    25   ar
     8     7     8   ar
     9     8    15    1
    10    15    16    1
    11    16    17    1
    12    17    18    1
    13    18    19    1
    14    19    20    1
    15     8     9   ar
    16     9    10   ar
    17    10    11   ar
    18    11    12   ar
    19    12     1    1
    20     1     2    2
    21     1     3   am
    22     3    26    1
    23    26    27    1
    24    26    28    1
    25    26    29    1
    26    29    30    2
    27    29    31   am
    28    31    33    1
    29    33    34   ar
    30    34    35   ar
    31    35    36   ar
    32    36    39    1
    33    39    40    2
    34    40    41    1
    35    41    42   ar
    36    41    43   ar
    37    36    37   ar
    38    37    38   ar
    39    12    13   ar
    40    13    14   ar
    41    14     6   ar
    42    25    21   ar
    43    20    15    1
    44    14     9   ar
    45    38    33   ar
    46     3     4    1
    47    31    32    1
@<TRIPOS>MOLECULE
*****
 43 47 0 0 0
SMALL
GASTEIGER

@<TRIPOS>ATOM
      1 C           4.1596   -0.8960   27.8571 C.2     1  UNL1        0.2461
      2 O           5.0153   -1.8588   28.6257 O.2     1  UNL1       -0.2701
      3 N           3.4023    0.1774   28.5811 N.am    1  UNL1       -0.2964
      4 H           2.8407    0.8093   28.0767 H       1  UNL1        0.1501
      5 C           1.3675    1.7436   23.3818 C.3     1  UNL1        0.1304
      6 N           2.2925    0.5989   23.0923 N.ar    1  UNL1       -0.3253
      7 C           2.5959    0.0315   21.7373 C.ar    1  UNL1        0.0590
      8 C           3.5675   -1.0975   21.9145 C.ar    1  UNL1       -0.0052
      9 C           3.8647   -1.2278   23.3790 C.ar    1  UNL1        0.0132
     10 C           4.7510   -2.1656   24.1438 C.ar    1  UNL1        0.0013
     11 C           4.8493   -2.0550   25.6364 C.ar    1  UNL1        0.0046
     12 C           4.0613   -1.0065   26.3643 C.ar    1  UNL1        0.0548
     13 C           3.1750   -0.0687   25.5996 C.ar    1  UNL1        0.0217
     14 C           3.0767   -0.1793   24.1069 C.ar    1  UNL1        0.0598
     15 C           4.1413   -1.9470   20.8195 C.3     1  UNL1        0.0238
     16 C           3.2586   -2.8994   20.0685 C.3     1  UNL1        0.0044
     17 C           3.8323   -3.7490   18.9734 C.3     1  UNL1        0.0003
     18 C           5.2887   -3.6462   18.6294 C.3     1  UNL1        0.0000
     19 C           6.1714   -2.6939   19.3805 C.3     1  UNL1        0.0003
     20 C           5.5976   -1.8443   20.4755 C.3     1  UNL1        0.0044
     21 C           2.0274    0.5091   20.4340 C.ar    1  UNL1        0.0562
     22 C           2.7158    1.4049   19.4472 C.ar    1  UNL1        0.0452
     23 C           1.7846    1.6242   18.2919 C.ar    1  UNL1        0.1798
     24 O           0.5206    0.8639   18.5646 O.2     1  UNL1       -0.4473
     25 C           0.6707    0.1748   19.8884 C.ar    1  UNL1        0.1811
     26 C           3.5007    0.2880   30.0739 C.3     1  UNL1        0.1262
     27 C           2.2891   -0.5846   30.2184 C.3     1  UNL1        0.0290
     28 C           4.7122    1.1605   29.9294 C.3     1  UNL1        0.0290
     29 C           3.5990    0.3985   31.5665 C.2     1  UNL1        0.2419
     30 O           3.4444   -0.8245   32.4209 O.2     1  UNL1       -0.2731
     31 N           3.8521    1.7322   32.2047 N.am    1  UNL1       -0.2826
     32 H           3.9535    2.5350   31.6439 H       1  UNL1        0.1549
     33 C           3.9504    1.8428   33.6974 C.ar    1  UNL1        0.0503
     34 C           2.7377    2.2004   34.5045 C.ar    1  UNL1        0.0147
     35 C           2.8361    2.3110   35.9971 C.ar    1  UNL1        0.0013
     36 C           4.1472    2.0640   36.6827 C.ar    1  UNL1        0.0001
     37 C           5.3599    1.7064   35.8757 C.ar    1  UNL1        0.0013
     38 C           5.2615    1.5958   34.3829 C.ar    1  UNL1        0.0147
     39 C           4.2455    2.1746   38.1754 C.2     1  UNL1        0.0012
     40 C           4.5356    3.5017   38.8116 C.2     1  UNL1        0.0151
     41 C           4.6340    3.6122   40.3044 C.2     1  UNL1        0.0729
     42 O           3.5839    4.3593   41.0719 O.co2   1  UNL1       -0.5446
     43 O           5.7825    2.9757   41.0295 O.co2   1  UNL1       -0.5446
@<TRIPOS>UNITY_ATOM_ATTR
42 1
charge -1
@<TRIPOS>BOND
     1     5     6    1
     2     6     7   ar
     3     7    21    1
     4    21    22   ar
     5    22    23   ar
     6    23    24   ar
     7    24    25   ar
     8     7     8   ar
     9     8    15    1
    10    15    16    1
    11    16    17    1
    12    17    18    1
    13    18    19    1
    14    19    20    1
    15     8     9   ar
    16     9    10   ar
    17    10    11   ar
    18    11    12   ar
    19    12     1    1
    20     1     2    2
    21     1     3   am
    22     3    26    1
    23    26    27    1
    24    26    28    1
    25    26    29    1
    26    29    30    2
    27    29    31   am
    28    31    33    1
    29    33    34   ar
    30    34    35   ar
    31    35    36   ar
    32    36    39    1
    33    39    40    2
    34    40    41    1
    35    41    42   ar
    36    41    43   ar
    37    36    37   ar
    38    37    38   ar
    39    12    13   ar
    40    13    14   ar
    41    14     6   ar
    42    25    21   ar
    43    20    15    1
    44    14     9   ar
    45    38    33   ar
    46     3     4    1
    47    31    32    1
@<TRIPOS>MOLECULE
*****
 43 47 0 0 0
SMALL
GASTEIGER

@<TRIPOS>ATOM
      1 C           0.1649    1.6083   28.2685 C.2     1  UNL1        0.2461
      2 O          -1.2245    1.0463   28.3300 O.2     1  UNL1       -0.2701
      3 N           0.4944    2.6871   27.2798 N.am    1  UNL1       -0.2964
      4 H           1.4063    3.0560   27.2394 H       1  UNL1        0.1501
      5 C           1.9901    2.4161   33.8189 C.3     1  UNL1        0.1304
      6 N           2.7070    1.4246   32.9512 N.ar    1  UNL1       -0.3253
      7 C           3.8816    0.5847   33.3572 C.ar    1  UNL1        0.0590
      8 C           4.2756   -0.2601   32.1820 C.ar    1  UNL1       -0.0052
      9 C           3.3445    0.0576   31.0498 C.ar    1  UNL1        0.0132
     10 C           3.2541   -0.4667   29.6473 C.ar    1  UNL1        0.0013
     11 C           2.1943    0.0502   28.7202 C.ar    1  UNL1        0.0046
     12 C           1.2248    1.0914   29.1956 C.ar    1  UNL1        0.0548
     13 C           1.3151    1.6157   30.5981 C.ar    1  UNL1        0.0217
     14 C           2.3750    1.0988   31.5251 C.ar    1  UNL1        0.0598
     15 C           5.4029   -1.2490   32.1455 C.3     1  UNL1        0.0238
     16 C           6.7888   -0.7940   31.7957 C.3     1  UNL1        0.0044
     17 C           7.9160   -1.7829   31.7592 C.3     1  UNL1        0.0003
     18 C           7.6574   -3.2269   32.0725 C.3     1  UNL1        0.0000
     19 C           6.2716   -3.6819   32.4223 C.3     1  UNL1        0.0003
     20 C           5.1443   -2.6929   32.4588 C.3     1  UNL1        0.0044
     21 C           4.5457    0.5890   34.7022 C.ar    1  UNL1        0.0562
     22 C           5.2493    1.7532   35.3344 C.ar    1  UNL1        0.0452
     23 C           5.7612    1.3135   36.6741 C.ar    1  UNL1        0.1798
     24 O           5.3740   -0.1224   36.8698 O.2     1  UNL1       -0.4473
     25 C           4.6228   -0.5701   35.6511 C.ar    1  UNL1        0.1811
     26 C          -0.5654    3.2040   26.3526 C.3     1  UNL1        0.1262
     27 C          -0.8578    4.3214   27.3097 C.3     1  UNL1        0.0290
     28 C          -0.2731    2.0867   25.3956 C.3     1  UNL1        0.0290
     29 C          -1.6252    3.7209   25.4255 C.2     1  UNL1        0.2419
     30 O          -1.3438    4.9072   24.5518 O.2     1  UNL1       -0.2731
     31 N          -2.9665    3.0514   25.3720 N.am    1  UNL1       -0.2826
     32 H          -3.1512    2.2727   25.9455 H       1  UNL1        0.1549
     33 C          -4.0263    3.5682   24.4449 C.ar    1  UNL1        0.0503
     34 C          -3.8477    3.4481   22.9604 C.ar    1  UNL1        0.0147
     35 C          -4.9075    3.9649   22.0332 C.ar    1  UNL1        0.0013
     36 C          -6.1459    4.6019   22.5905 C.ar    1  UNL1        0.0001
     37 C          -6.3245    4.7220   24.0750 C.ar    1  UNL1        0.0013
     38 C          -5.2647    4.2052   25.0022 C.ar    1  UNL1        0.0147
     39 C          -7.2057    5.1187   21.6634 C.2     1  UNL1        0.0012
     40 C          -6.9305    5.2212   20.1924 C.2     1  UNL1        0.0151
     41 C          -7.9904    5.7380   19.2653 C.2     1  UNL1        0.0729
     42 O          -9.0597    6.6530   19.7843 O.co2   1  UNL1       -0.5446
     43 O          -7.9809    5.3399   17.8191 O.co2   1  UNL1       -0.5446
@<TRIPOS>UNITY_ATOM_ATTR
42 1
charge -1
@<TRIPOS>BOND
     1     5     6    1
     2     6     7   ar
     3     7    21    1
     4    21    22   ar
     5    22    23   ar
     6    23    24   ar
     7    24    25   ar
     8     7     8   ar
     9     8    15    1
    10    15    16    1
    11    16    17    1
    12    17    18    1
    13    18    19    1
    14    19    20    1
    15     8     9   ar
    16     9    10   ar
    17    10    11   ar
    18    11    12   ar
    19    12     1    1
    20     1     2    2
    21     1     3   am
    22     3    26    1
    23    26    27    1
    24    26    28    1
    25    26    29    1
    26    29    30    2
    27    29    31   am
    28    31    33    1
    29    33    34   ar
    30    34    35   ar
    31    35    36   ar
    32    36    39    1
    33    39    40    2
    34    40    41    1
    35    41    42   ar
    36    41    43   ar
    37    36    37   ar
    38    37    38   ar
    39    12    13   ar
    40    13    14   ar
    41    14     6   ar
    42    25    21   ar
    43    20    15    1
    44    14     9   ar
    45    38    33   ar
    46     3     4    1
    47    31    32    1
@<TRIPOS>MOLECULE
*****
 43 47 0 0 0
SMALL
GASTEIGER

@<TRIPOS>ATOM
      1 C           1.6226    1.8400   29.4593 C.2     1  UNL1        0.2461
      2 O           2.4809    1.3613   28.3261 O.2     1  UNL1       -0.2701
      3 N           0.2289    2.3256   29.1912 N.am    1  UNL1       -0.2964
      4 H          -0.3344    2.6398   29.9349 H       1  UNL1        0.1501
      5 C           6.6426    0.5847   32.2903 C.3     1  UNL1        0.1304
      6 N           5.4553    1.0500   33.0801 N.ar    1  UNL1       -0.3253
      7 C           5.4043    1.2378   34.5674 C.ar    1  UNL1        0.0590
      8 C           4.0280    1.7131   34.9276 C.ar    1  UNL1       -0.0052
      9 C           3.2283    1.8192   33.6629 C.ar    1  UNL1        0.0132
     10 C           1.8110    2.2359   33.4036 C.ar    1  UNL1        0.0013
     11 C           1.2757    2.2429   32.0024 C.ar    1  UNL1        0.0046
     12 C           2.1579    1.8330   30.8605 C.ar    1  UNL1        0.0548
     13 C           3.5752    1.4163   31.1199 C.ar    1  UNL1        0.0217
     14 C           4.1105    1.4093   32.5211 C.ar    1  UNL1        0.0598
     15 C           3.5374    2.0273   36.3099 C.3     1  UNL1        0.0238
     16 C           3.1454    3.4309   36.6656 C.3     1  UNL1        0.0044
     17 C           2.6548    3.7451   38.0479 C.3     1  UNL1        0.0003
     18 C           2.5561    2.6558   39.0744 C.3     1  UNL1        0.0000
     19 C           2.9481    1.2523   38.7186 C.3     1  UNL1        0.0003
     20 C           3.4387    0.9381   37.3363 C.3     1  UNL1        0.0044
     21 C           6.5317    0.9932   35.5261 C.ar    1  UNL1        0.0562
     22 C           6.8205   -0.2956   36.2371 C.ar    1  UNL1        0.0452
     23 C           8.0355   -0.0910   37.0926 C.ar    1  UNL1        0.1798
     24 O           8.4976    1.3244   36.9103 O.2     1  UNL1       -0.4473
     25 C           7.5682    1.9944   35.9422 C.ar    1  UNL1        0.1811
     26 C          -0.3064    2.3326   27.7899 C.3     1  UNL1        0.1262
     27 C          -0.8201    0.9361   27.9792 C.3     1  UNL1        0.0290
     28 C           0.2073    3.7291   27.6007 C.3     1  UNL1        0.0290
     29 C          -0.8416    2.3396   26.3887 C.2     1  UNL1        0.2419
     30 O          -0.4640    1.2442   25.4362 O.2     1  UNL1       -0.2731
     31 N          -1.7545    3.4420   25.9401 N.am    1  UNL1       -0.2826
     32 H          -2.0024    4.1610   26.5653 H       1  UNL1        0.1549
     33 C          -2.2898    3.4490   24.5389 C.ar    1  UNL1        0.0503
     34 C          -1.3461    3.5322   23.3759 C.ar    1  UNL1        0.0147
     35 C          -1.8813    3.5392   21.9747 C.ar    1  UNL1        0.0013
     36 C          -3.3603    3.4630   21.7364 C.ar    1  UNL1        0.0001
     37 C          -4.3040    3.3798   22.8993 C.ar    1  UNL1        0.0013
     38 C          -3.7688    3.3728   24.3006 C.ar    1  UNL1        0.0147
     39 C          -3.8956    3.4700   20.3352 C.2     1  UNL1        0.0012
     40 C          -5.3760    3.5178   20.0981 C.2     1  UNL1        0.0151
     41 C          -5.9112    3.5248   18.6968 C.2     1  UNL1        0.0729
     42 O          -7.3745    3.7477   18.4540 O.co2   1  UNL1       -0.5446
     43 O          -4.9831    3.3090   17.5384 O.co2   1  UNL1       -0.5446
@<TRIPOS>UNITY_ATOM_ATTR
42 1
charge -1
@<TRIPOS>BOND
     1     5     6    1
     2     6     7   ar
     3     7    21    1
     4    21    22   ar
     5    22    23   ar
     6    23    24   ar
     7    24    25   ar
     8     7     8   ar
     9     8    15    1
    10    15    16    1
    11    16    17    1
    12    17    18    1
    13    18    19    1
    14    19    20    1
    15     8     9   ar
    16     9    10   ar
    17    10    11   ar
    18    11    12   ar
    19    12     1    1
    20     1     2    2
    21     1     3   am
    22     3    26    1
    23    26    27    1
    24    26    28    1
    25    26    29    1
    26    29    30    2
    27    29    31   am
    28    31    33    1
    29    33    34   ar
    30    34    35   ar
    31    35    36   ar
    32    36    39    1
    33    39    40    2
    34    40    41    1
    35    41    42   ar
    36    41    43   ar
    37    36    37   ar
    38    37    38   ar
    39    12    13   ar
    40    13    14   ar
    41    14     6   ar
    42    25    21   ar
    43    20    15    1
    44    14     9   ar
    45    38    33   ar
    46     3     4    1
    47    31    32    1
@<TRIPOS>MOLECULE
*****
 43 47 0 0 0
SMALL
GASTEIGER

@<TRIPOS>ATOM
      1 C           4.6211    1.2228   30.4457 C.2     1  UNL1        0.2461
      2 O           5.9886    1.3443   29.8414 O.2     1  UNL1       -0.2701
      3 N           3.4448    0.8868   29.5778 N.am    1  UNL1       -0.2964
      4 H           2.5473    0.8071   29.9745 H       1  UNL1        0.1501
      5 C           7.8039    2.7995   35.1548 C.3     1  UNL1        0.1304
      6 N           6.3469    2.4882   35.3288 N.ar    1  UNL1       -0.3253
      7 C           5.5830    2.5361   36.6188 C.ar    1  UNL1        0.0590
      8 C           4.1620    2.1518   36.3305 C.ar    1  UNL1       -0.0052
      9 C           4.0477    1.8663   34.8624 C.ar    1  UNL1        0.0132
     10 C           2.8885    1.4439   34.0093 C.ar    1  UNL1        0.0013
     11 C           3.0797    1.2294   32.5371 C.ar    1  UNL1        0.0046
     12 C           4.4300    1.4373   31.9180 C.ar    1  UNL1        0.0548
     13 C           5.5892    1.8597   32.7711 C.ar    1  UNL1        0.0217
     14 C           5.3981    2.0742   34.2433 C.ar    1  UNL1        0.0598
     15 C           3.0504    2.0677   37.3342 C.3     1  UNL1        0.0238
     16 C           2.8871    0.8333   38.1709 C.3     1  UNL1        0.0044
     17 C           1.7755    0.7492   39.1745 C.3     1  UNL1        0.0003
     18 C           0.8273    1.8994   39.3416 C.3     1  UNL1        0.0000
     19 C           0.9906    3.1337   38.5050 C.3     1  UNL1        0.0003
     20 C           2.1022    3.2178   37.5013 C.3     1  UNL1        0.0044
     21 C           6.1419    2.9039   37.9614 C.ar    1  UNL1        0.0562
     22 C           5.7833    4.1201   38.7626 C.ar    1  UNL1        0.0452
     23 C           6.5773    4.0879   40.0348 C.ar    1  UNL1        0.1798
     24 O           7.4267    2.8516   40.0198 O.2     1  UNL1       -0.4473
     25 C           7.1576    2.1199   38.7384 C.ar    1  UNL1        0.1811
     26 C           3.6359    0.6723   28.1056 C.3     1  UNL1        0.1262
     27 C           3.8489   -0.7928   28.3466 C.3     1  UNL1        0.0290
     28 C           3.4229    2.1373   27.8645 C.3     1  UNL1        0.0290
     29 C           3.8270    0.4578   26.6334 C.2     1  UNL1        0.2419
     30 O           4.6983    1.3913   25.8464 O.2     1  UNL1       -0.2731
     31 N           3.1468   -0.6902   25.9481 N.am    1  UNL1       -0.2826
     32 H           2.5750   -1.3029   26.4647 H       1  UNL1        0.1549
     33 C           3.3380   -0.9046   24.4759 C.ar    1  UNL1        0.0503
     34 C           4.3258   -1.9227   23.9883 C.ar    1  UNL1        0.0147
     35 C           4.5169   -2.1372   22.5161 C.ar    1  UNL1        0.0013
     36 C           3.7202   -1.3336   21.5314 C.ar    1  UNL1        0.0001
     37 C           2.7324   -0.3155   22.0190 C.ar    1  UNL1        0.0013
     38 C           2.5413   -0.1010   23.4913 C.ar    1  UNL1        0.0147
     39 C           3.9113   -1.5481   20.0592 C.2     1  UNL1        0.0012
     40 C           5.2952   -1.6127   19.4841 C.2     1  UNL1        0.0151
     41 C           5.4862   -1.8272   18.0118 C.2     1  UNL1        0.0729
     42 O           4.3547   -1.5651   17.0627 O.co2   1  UNL1       -0.5446
     43 O           6.8088   -2.3037   17.4888 O.co2   1  UNL1       -0.5446
@<TRIPOS>UNITY_ATOM_ATTR
42 1
charge -1
@<TRIPOS>BOND
     1     5     6    1
     2     6     7   ar
     3     7    21    1
     4    21    22   ar
     5    22    23   ar
     6    23    24   ar
     7    24    25   ar
     8     7     8   ar
     9     8    15    1
    10    15    16    1
    11    16    17    1
    12    17    18    1
    13    18    19    1
    14    19    20    1
    15     8     9   ar
    16     9    10   ar
    17    10    11   ar
    18    11    12   ar
    19    12     1    1
    20     1     2    2
    21     1     3   am
    22     3    26    1
    23    26    27    1
    24    26    28    1
    25    26    29    1
    26    29    30    2
    27    29    31   am
    28    31    33    1
    29    33    34   ar
    30    34    35   ar
    31    35    36   ar
    32    36    39    1
    33    39    40    2
    34    40    41    1
    35    41    42   ar
    36    41    43   ar
    37    36    37   ar
    38    37    38   ar
    39    12    13   ar
    40    13    14   ar
    41    14     6   ar
    42    25    21   ar
    43    20    15    1
    44    14     9   ar
    45    38    33   ar
    46     3     4    1
    47    31    32    1
@<TRIPOS>MOLECULE
*****
 43 47 0 0 0
SMALL
GASTEIGER

@<TRIPOS>ATOM
      1 C           5.8117   -1.0134   31.4995 C.2     1  UNL1        0.2461
      2 O           5.3243    0.4028   31.4171 O.2     1  UNL1       -0.2701
      3 N           6.0336   -1.6535   32.8377 N.am    1  UNL1       -0.2964
      4 H           6.3535   -2.5830   32.8918 H       1  UNL1        0.1501
      5 C           5.0996   -0.4164   25.6747 C.3     1  UNL1        0.1304
      6 N           5.7214   -1.6722   26.2097 N.ar    1  UNL1       -0.3253
      7 C           6.1996   -2.8363   25.3934 C.ar    1  UNL1        0.0590
      8 C           6.7479   -3.8679   26.3342 C.ar    1  UNL1       -0.0052
      9 C           6.6085   -3.3415   27.7319 C.ar    1  UNL1        0.0132
     10 C           6.9774   -3.9225   29.0647 C.ar    1  UNL1        0.0013
     11 C           6.7118   -3.1465   30.3205 C.ar    1  UNL1        0.0046
     12 C           6.0773   -1.7894   30.2435 C.ar    1  UNL1        0.0548
     13 C           5.7085   -1.2084   28.9108 C.ar    1  UNL1        0.0217
     14 C           5.9741   -1.9844   27.6549 C.ar    1  UNL1        0.0598
     15 C           7.3328   -5.1934   25.9456 C.3     1  UNL1        0.0238
     16 C           8.4945   -5.2517   24.9983 C.3     1  UNL1        0.0044
     17 C           9.0795   -6.5772   24.6096 C.3     1  UNL1        0.0003
     18 C           8.5028   -7.8442   25.1682 C.3     1  UNL1        0.0000
     19 C           7.3412   -7.7858   26.1154 C.3     1  UNL1        0.0003
     20 C           6.7563   -6.4604   26.5041 C.3     1  UNL1        0.0044
     21 C           6.1400   -2.9489   23.8989 C.ar    1  UNL1        0.0562
     22 C           5.0238   -3.5596   23.1045 C.ar    1  UNL1        0.0452
     23 C           5.3800   -3.4587   21.6509 C.ar    1  UNL1        0.1798
     24 O           6.7165   -2.7856   21.5469 O.2     1  UNL1       -0.4473
     25 C           7.1862   -2.4705   22.9362 C.ar    1  UNL1        0.1811
     26 C           5.7680   -0.8775   34.0937 C.3     1  UNL1        0.1262
     27 C           4.3605   -1.3955   34.1162 C.3     1  UNL1        0.0290
     28 C           7.1755   -0.3594   34.0711 C.3     1  UNL1        0.0290
     29 C           5.5024   -0.1015   35.3495 C.2     1  UNL1        0.2419
     30 O           6.0019   -0.6142   36.6677 O.2     1  UNL1       -0.2731
     31 N           4.7374    1.1873   35.2872 N.am    1  UNL1       -0.2826
     32 H           4.4096    1.5238   34.4221 H       1  UNL1        0.1549
     33 C           4.4719    1.9633   36.5431 C.ar    1  UNL1        0.0503
     34 C           5.4878    2.9453   37.0469 C.ar    1  UNL1        0.0147
     35 C           5.2222    3.7213   38.3028 C.ar    1  UNL1        0.0013
     36 C           3.9408    3.5154   39.0549 C.ar    1  UNL1        0.0001
     37 C           2.9250    2.5335   38.5511 C.ar    1  UNL1        0.0013
     38 C           3.1905    1.7574   37.2952 C.ar    1  UNL1        0.0147
     39 C           3.6753    4.2914   40.3107 C.2     1  UNL1        0.0012
     40 C           4.8124    4.6714   41.2122 C.2     1  UNL1        0.0151
     41 C           4.5468    5.4475   42.4681 C.2     1  UNL1        0.0729
     42 O           5.0114    4.9150   43.7912 O.co2   1  UNL1       -0.5446
     43 O           3.8167    6.7560   42.4008 O.co2   1  UNL1       -0.5446
@<TRIPOS>UNITY_ATOM_ATTR
42 1
charge -1
@<TRIPOS>BOND
     1     5     6    1
     2     6     7   ar
     3     7    21    1
     4    21    22   ar
     5    22    23   ar
     6    23    24   ar
     7    24    25   ar
     8     7     8   ar
     9     8    15    1
    10    15    16    1
    11    16    17    1
    12    17    18    1
    13    18    19    1
    14    19    20    1
    15     8     9   ar
    16     9    10   ar
    17    10    11   ar
    18    11    12   ar
    19    12     1    1
    20     1     2    2
    21     1     3   am
    22     3    26    1
    23    26    27    1
    24    26    28    1
    25    26    29    1
    26    29    30    2
    27    29    31   am
    28    31    33    1
    29    33    34   ar
    30    34    35   ar
    31    35    36   ar
    32    36    39    1
    33    39    40    2
    34    40    41    1
    35    41    42   ar
    36    41    43   ar
    37    36    37   ar
    38    37    38   ar
    39    12    13   ar
    40    13    14   ar
    41    14     6   ar
    42    25    21   ar
    43    20    15    1
    44    14     9   ar
    45    38    33   ar
    46     3     4    1
    47    31    32    1
@<TRIPOS>MOLECULE
*****
 43 47 0 0 0
SMALL
GASTEIGER

@<TRIPOS>ATOM
      1 C           2.7525   -0.5342   22.2502 C.2     1  UNL1        0.2461
      2 O           2.0073   -0.9786   21.0266 O.2     1  UNL1       -0.2701
      3 N           2.5040    0.8284   22.8261 N.am    1  UNL1       -0.2964
      4 H           2.9931    1.1201   23.6291 H       1  UNL1        0.1501
      5 C           5.5118   -1.1529   27.4266 C.3     1  UNL1        0.1304
      6 N           5.7877   -2.1378   26.3294 N.ar    1  UNL1       -0.3253
      7 C           6.7243   -3.3068   26.4089 C.ar    1  UNL1        0.0590
      8 C           6.6909   -4.0181   25.0887 C.ar    1  UNL1       -0.0052
      9 C           5.7336   -3.2887   24.1933 C.ar    1  UNL1        0.0132
     10 C           5.2981   -3.5326   22.7788 C.ar    1  UNL1        0.0013
     11 C           4.3044   -2.6145   22.1311 C.ar    1  UNL1        0.0046
     12 C           3.7462   -1.4524   22.8980 C.ar    1  UNL1        0.0548
     13 C           4.1817   -1.2085   24.3124 C.ar    1  UNL1        0.0217
     14 C           5.1754   -2.1267   24.9601 C.ar    1  UNL1        0.0598
     15 C           7.4767   -5.2436   24.7273 C.3     1  UNL1        0.0238
     16 C           8.3537   -5.2404   23.5102 C.3     1  UNL1        0.0044
     17 C           9.1395   -6.4659   23.1488 C.3     1  UNL1        0.0003
     18 C           9.0485   -7.6945   24.0044 C.3     1  UNL1        0.0000
     19 C           8.1716   -7.6977   25.2214 C.3     1  UNL1        0.0003
     20 C           7.3857   -6.4722   25.5828 C.3     1  UNL1        0.0044
     21 C           7.5495   -3.6961   27.5995 C.ar    1  UNL1        0.0562
     22 C           9.0049   -3.3941   27.8003 C.ar    1  UNL1        0.0452
     23 C           9.4191   -3.9671   29.1233 C.ar    1  UNL1        0.1798
     24 O           8.2195   -4.6232   29.7401 O.2     1  UNL1       -0.4473
     25 C           7.0640   -4.4557   28.7984 C.ar    1  UNL1        0.1811
     26 C           1.5103    1.7466   22.1783 C.3     1  UNL1        0.1262
     27 C           0.4623    1.3011   23.1546 C.3     1  UNL1        0.0290
     28 C           2.5583    2.1920   21.2020 C.3     1  UNL1        0.0290
     29 C           0.5166    2.6647   21.5306 C.2     1  UNL1        0.2419
     30 O           0.6442    4.1493   21.7026 O.2     1  UNL1       -0.2731
     31 N          -0.6046    2.0983   20.7108 N.am    1  UNL1       -0.2826
     32 H          -0.6883    1.1239   20.5979 H       1  UNL1        0.1549
     33 C          -1.5982    3.0164   20.0631 C.ar    1  UNL1        0.0503
     34 C          -1.2267    3.7651   18.8174 C.ar    1  UNL1        0.0147
     35 C          -2.2203    4.6832   18.1697 C.ar    1  UNL1        0.0013
     36 C          -3.5855    4.8528   18.7675 C.ar    1  UNL1        0.0001
     37 C          -3.9571    4.1042   20.0131 C.ar    1  UNL1        0.0013
     38 C          -2.9635    3.1860   20.6609 C.ar    1  UNL1        0.0147
     39 C          -4.5792    5.7710   18.1198 C.2     1  UNL1        0.0012
     40 C          -6.0103    5.3455   17.9753 C.2     1  UNL1        0.0151
     41 C          -7.0040    6.2638   17.3275 C.2     1  UNL1        0.0729
     42 O          -7.4265    7.5232   18.0242 O.co2   1  UNL1       -0.5446
     43 O          -7.5750    5.9225   15.9831 O.co2   1  UNL1       -0.5446
@<TRIPOS>UNITY_ATOM_ATTR
42 1
charge -1
@<TRIPOS>BOND
     1     5     6    1
     2     6     7   ar
     3     7    21    1
     4    21    22   ar
     5    22    23   ar
     6    23    24   ar
     7    24    25   ar
     8     7     8   ar
     9     8    15    1
    10    15    16    1
    11    16    17    1
    12    17    18    1
    13    18    19    1
    14    19    20    1
    15     8     9   ar
    16     9    10   ar
    17    10    11   ar
    18    11    12   ar
    19    12     1    1
    20     1     2    2
    21     1     3   am
    22     3    26    1
    23    26    27    1
    24    26    28    1
    25    26    29    1
    26    29    30    2
    27    29    31   am
    28    31    33    1
    29    33    34   ar
    30    34    35   ar
    31    35    36   ar
    32    36    39    1
    33    39    40    2
    34    40    41    1
    35    41    42   ar
    36    41    43   ar
    37    36    37   ar
    38    37    38   ar
    39    12    13   ar
    40    13    14   ar
    41    14     6   ar
    42    25    21   ar
    43    20    15    1
    44    14     9   ar
    45    38    33   ar
    46     3     4    1
    47    31    32    1
@<TRIPOS>MOLECULE
*****
 43 47 0 0 0
SMALL
GASTEIGER

@<TRIPOS>ATOM
      1 C           0.3904    2.1940   27.8064 C.2     1  UNL1        0.2461
      2 O           1.1172    0.9034   27.5698 O.2     1  UNL1       -0.2701
      3 N           0.6707    2.9971   29.0419 N.am    1  UNL1       -0.2964
      4 H           0.1937    3.8442   29.1972 H       1  UNL1        0.1501
      5 C          -0.0226    3.0919   21.9914 C.3     1  UNL1        0.1304
      6 N          -1.2033    3.3997   22.8637 N.ar    1  UNL1       -0.3253
      7 C          -2.5273    3.9310   22.4002 C.ar    1  UNL1        0.0590
      8 C          -3.4096    4.0899   23.6028 C.ar    1  UNL1       -0.0052
      9 C          -2.6310    3.6568   24.8095 C.ar    1  UNL1        0.0132
     10 C          -2.9875    3.5958   26.2652 C.ar    1  UNL1        0.0013
     11 C          -1.9803    3.1082   27.2642 C.ar    1  UNL1        0.0046
     12 C          -0.6168    2.6816   26.8074 C.ar    1  UNL1        0.0548
     13 C          -0.2603    2.7427   25.3517 C.ar    1  UNL1        0.0217
     14 C          -1.2674    3.2303   24.3527 C.ar    1  UNL1        0.0598
     15 C          -4.8226    4.5935   23.5993 C.3     1  UNL1        0.0238
     16 C          -5.9078    3.7782   22.9606 C.3     1  UNL1        0.0044
     17 C          -7.3207    4.2818   22.9571 C.3     1  UNL1        0.0003
     18 C          -7.6485    5.6005   23.5923 C.3     1  UNL1        0.0000
     19 C          -6.5634    6.4157   24.2310 C.3     1  UNL1        0.0003
     20 C          -5.1504    5.9121   24.2345 C.3     1  UNL1        0.0044
     21 C          -2.9030    4.2477   20.9830 C.ar    1  UNL1        0.0562
     22 C          -2.6509    5.5447   20.2728 C.ar    1  UNL1        0.0452
     23 C          -3.1888    5.4217   18.8780 C.ar    1  UNL1        0.1798
     24 O          -3.7734    4.0487   18.7261 O.2     1  UNL1       -0.4473
     25 C          -3.5967    3.3232   20.0270 C.ar    1  UNL1        0.1811
     26 C           1.6778    2.5095   30.0409 C.3     1  UNL1        0.1262
     27 C           0.5789    1.8700   30.8368 C.3     1  UNL1        0.0290
     28 C           2.7768    3.1489   29.2451 C.3     1  UNL1        0.0290
     29 C           2.6850    2.0219   31.0399 C.2     1  UNL1        0.2419
     30 O           4.1461    2.0391   30.7012 O.2     1  UNL1       -0.2731
     31 N           2.2310    1.5171   32.3774 N.am    1  UNL1       -0.2826
     32 H           1.2719    1.5058   32.5997 H       1  UNL1        0.1549
     33 C           3.2381    1.0296   33.3764 C.ar    1  UNL1        0.0503
     34 C           3.6939    1.9328   34.4839 C.ar    1  UNL1        0.0147
     35 C           4.7011    1.4452   35.4828 C.ar    1  UNL1        0.0013
     36 C           5.2524    0.0545   35.3743 C.ar    1  UNL1        0.0001
     37 C           4.7966   -0.8488   34.2669 C.ar    1  UNL1        0.0013
     38 C           3.7894   -0.3612   33.2679 C.ar    1  UNL1        0.0147
     39 C           6.2595   -0.4331   36.3733 C.2     1  UNL1        0.0012
     40 C           7.5228    0.3420   36.6041 C.2     1  UNL1        0.0151
     41 C           8.5300   -0.1456   37.6031 C.2     1  UNL1        0.0729
     42 O           9.0658   -1.5433   37.5068 O.co2   1  UNL1       -0.5446
     43 O           9.0012    0.7645   38.6984 O.co2   1  UNL1       -0.5446
@<TRIPOS>UNITY_ATOM_ATTR
42 1
charge -1
@<TRIPOS>BOND
     1     5     6    1
     2     6     7   ar
     3     7    21    1
     4    21    22   ar
     5    22    23   ar
     6    23    24   ar
     7    24    25   ar
     8     7     8   ar
     9     8    15    1
    10    15    16    1
    11    16    17    1
    12    17    18    1
    13    18    19    1
    14    19    20    1
    15     8     9   ar
    16     9    10   ar
    17    10    11   ar
    18    11    12   ar
    19    12     1    1
    20     1     2    2
    21     1     3   am
    22     3    26    1
    23    26    27    1
    24    26    28    1
    25    26    29    1
    26    29    30    2
    27    29    31   am
    28    31    33    1
    29    33    34   ar
    30    34    35   ar
    31    35    36   ar
    32    36    39    1
    33    39    40    2
    34    40    41    1
    35    41    42   ar
    36    41    43   ar
    37    36    37   ar
    38    37    38   ar
    39    12    13   ar
    40    13    14   ar
    41    14     6   ar
    42    25    21   ar
    43    20    15    1
    44    14     9   ar
    45    38    33   ar
    46     3     4    1
    47    31    32    1
@<TRIPOS>MOLECULE
*****
 43 47 0 0 0
SMALL
GASTEIGER

@<TRIPOS>ATOM
      1 C           1.1793    0.5402   21.2944 C.2     1  UNL1        0.2461
      2 O          -0.0294   -0.1784   20.7723 O.2     1  UNL1       -0.2701
      3 N           1.1273    2.0203   21.5326 N.am    1  UNL1       -0.2964
      4 H           1.9206    2.4919   21.8752 H       1  UNL1        0.1501
      5 C           4.1564   -1.5493   25.9379 C.3     1  UNL1        0.1304
      6 N           4.7045   -1.7702   24.5592 N.ar    1  UNL1       -0.3253
      7 C           5.9752   -2.4918   24.2207 C.ar    1  UNL1        0.0590
      8 C           6.1341   -2.4757   22.7292 C.ar    1  UNL1       -0.0052
      9 C           4.9617   -1.7442   22.1459 C.ar    1  UNL1        0.0132
     10 C           4.5845   -1.4188   20.7311 C.ar    1  UNL1        0.0013
     11 C           3.3237   -0.6573   20.4473 C.ar    1  UNL1        0.0046
     12 C           2.4401   -0.2213   21.5783 C.ar    1  UNL1        0.0548
     13 C           2.8174   -0.5466   22.9931 C.ar    1  UNL1        0.0217
     14 C           4.0781   -1.3081   23.2769 C.ar    1  UNL1        0.0598
     15 C           7.2667   -3.0844   21.9566 C.3     1  UNL1        0.0238
     16 C           8.1865   -2.2083   21.1587 C.3     1  UNL1        0.0044
     17 C           9.3190   -2.8170   20.3861 C.3     1  UNL1        0.0003
     18 C           9.5318   -4.3016   20.4114 C.3     1  UNL1        0.0000
     19 C           8.6120   -5.1776   21.2093 C.3     1  UNL1        0.0003
     20 C           7.4795   -4.5689   21.9819 C.3     1  UNL1        0.0044
     21 C           6.9209   -3.1193   25.2014 C.ar    1  UNL1        0.0562
     22 C           6.9124   -4.5536   25.6404 C.ar    1  UNL1        0.0452
     23 C           8.0274   -4.7435   26.6257 C.ar    1  UNL1        0.1798
     24 O           8.7250   -3.4265   26.7957 O.2     1  UNL1       -0.4473
     25 C           8.0412   -2.4227   25.9154 C.ar    1  UNL1        0.1811
     26 C          -0.1335    2.7818   21.2487 C.3     1  UNL1        0.1262
     27 C          -0.5157    2.6887   22.6961 C.3     1  UNL1        0.0290
     28 C           0.2487    2.8748   19.8012 C.3     1  UNL1        0.0290
     29 C          -1.3943    3.5432   20.9647 C.2     1  UNL1        0.2419
     30 O          -1.3506    5.0343   20.8079 O.2     1  UNL1       -0.2731
     31 N          -2.6987    2.8136   20.8377 N.am    1  UNL1       -0.2826
     32 H          -2.7273    1.8349   20.9406 H       1  UNL1        0.1549
     33 C          -3.9594    3.5751   20.5537 C.ar    1  UNL1        0.0503
     34 C          -4.2810    3.9969   19.1506 C.ar    1  UNL1        0.0147
     35 C          -5.5417    4.7584   18.8667 C.ar    1  UNL1        0.0013
     36 C          -6.4809    5.0980   19.9858 C.ar    1  UNL1        0.0001
     37 C          -6.1594    4.6762   21.3889 C.ar    1  UNL1        0.0013
     38 C          -4.8986    3.9147   21.6729 C.ar    1  UNL1        0.0147
     39 C          -7.7417    5.8595   19.7019 C.2     1  UNL1        0.0012
     40 C          -8.5631    5.5257   18.4920 C.2     1  UNL1        0.0151
     41 C          -9.8239    6.2872   18.2081 C.2     1  UNL1        0.0729
     42 O         -10.5065    7.0447   19.3083 O.co2   1  UNL1       -0.5446
     43 O         -10.4022    6.2912   16.8240 O.co2   1  UNL1       -0.5446
@<TRIPOS>UNITY_ATOM_ATTR
42 1
charge -1
@<TRIPOS>BOND
     1     5     6    1
     2     6     7   ar
     3     7    21    1
     4    21    22   ar
     5    22    23   ar
     6    23    24   ar
     7    24    25   ar
     8     7     8   ar
     9     8    15    1
    10    15    16    1
    11    16    17    1
    12    17    18    1
    13    18    19    1
    14    19    20    1
    15     8     9   ar
    16     9    10   ar
    17    10    11   ar
    18    11    12   ar
    19    12     1    1
    20     1     2    2
    21     1     3   am
    22     3    26    1
    23    26    27    1
    24    26    28    1
    25    26    29    1
    26    29    30    2
    27    29    31   am
    28    31    33    1
    29    33    34   ar
    30    34    35   ar
    31    35    36   ar
    32    36    39    1
    33    39    40    2
    34    40    41    1
    35    41    42   ar
    36    41    43   ar
    37    36    37   ar
    38    37    38   ar
    39    12    13   ar
    40    13    14   ar
    41    14     6   ar
    42    25    21   ar
    43    20    15    1
    44    14     9   ar
    45    38    33   ar
    46     3     4    1
    47    31    32    1
