@<TRIPOS>MOLECULE
*****
 31 33 0 0 0
SMALL
GASTEIGER

@<TRIPOS>ATOM
      1 C          -9.9837  -19.0567   25.3427 C.3     1  UNL1        0.1152
      2 N          -9.3154  -18.3045   24.2302 N.am    1  UNL1       -0.2739
      3 C          -8.8219  -19.0388   23.0189 C.2     1  UNL1        0.2352
      4 O          -8.9967  -20.5253   22.9200 O.2     1  UNL1       -0.2743
      5 C          -8.1536  -18.2866   21.9065 C.3     1  UNL1        0.1700
      6 C          -6.8130  -18.7303   21.4007 C.2     1  UNL1        0.2320
      7 O          -6.4740  -18.5843   19.9468 O.2     1  UNL1       -0.2746
      8 N          -5.8112  -19.3199   22.3488 N.am    1  UNL1       -0.3000
      9 H          -6.0336  -19.4156   23.3030 H       1  UNL1        0.1498
     10 C          -4.4706  -19.7635   21.8430 C.3     1  UNL1        0.1163
     11 C          -3.4394  -18.7444   21.4579 C.ar    1  UNL1       -0.0026
     12 C          -3.1451  -17.5926   22.3726 C.ar    1  UNL1       -0.0026
     13 C          -2.1140  -16.5735   21.9875 C.ar    1  UNL1       -0.0003
     14 C          -1.3772  -16.7063   20.6877 C.ar    1  UNL1       -0.0000
     15 C          -1.6715  -17.8581   19.7730 C.ar    1  UNL1       -0.0003
     16 C          -2.7026  -18.8771   20.1581 C.ar    1  UNL1       -0.0026
     17 C          -9.1406  -16.8180   24.3291 C.3     1  UNL1        0.1138
     18 C          -7.8899  -16.2482   24.9299 C.ar    1  UNL1       -0.0029
     19 C          -6.6915  -15.9921   24.0649 C.ar    1  UNL1       -0.0026
     20 C          -5.4408  -15.4223   24.6658 C.ar    1  UNL1       -0.0003
     21 C          -5.3885  -15.1087   26.1317 C.ar    1  UNL1       -0.0000
     22 C          -6.5869  -15.3648   26.9967 C.ar    1  UNL1       -0.0003
     23 C          -7.8376  -15.9346   26.3958 C.ar    1  UNL1       -0.0026
     24 C         -10.2166  -15.9013   23.8270 C.3     1  UNL1        0.0968
     25 N         -11.0664  -16.3103   22.6606 N.3     1  UNL1       -0.2689
     26 C         -12.2181  -17.2705   22.7025 C.3     1  UNL1        0.0748
     27 C         -12.7771  -17.3845   21.3152 C.3     1  UNL1        0.0480
     28 C         -11.9710  -16.4949   20.4160 C.3     1  UNL1        0.1278
     29 O         -12.1847  -16.3029   18.9438 O.3     1  UNL1       -0.3830
     30 C         -10.9137  -15.8310   21.2475 C.3     1  UNL1        0.1017
     31 H         -12.9329  -16.8469   18.6520 H       1  UNL1        0.2104
@<TRIPOS>BOND
     1     1     2    1
     2     2     3   am
     3     3     4    2
     4     3     5    1
     5     5     6    1
     6     6     7    2
     7     6     8   am
     8     8    10    1
     9    10    11    1
    10    11    12   ar
    11    12    13   ar
    12    13    14   ar
    13    14    15   ar
    14    15    16   ar
    15     2    17    1
    16    17    24    1
    17    24    25    1
    18    25    26    1
    19    26    27    1
    20    27    28    1
    21    28    29    1
    22    28    30    1
    23    17    18    1
    24    18    19   ar
    25    19    20   ar
    26    20    21   ar
    27    21    22   ar
    28    22    23   ar
    29    16    11   ar
    30    30    25    1
    31    23    18   ar
    32     8     9    1
    33    29    31    1
@<TRIPOS>MOLECULE
*****
 31 33 0 0 0
SMALL
GASTEIGER

@<TRIPOS>ATOM
      1 C         -10.0440  -19.8050   24.8068 C.3     1  UNL1        0.1152
      2 N          -9.3585  -18.9117   23.8158 N.am    1  UNL1       -0.2739
      3 C          -8.2398  -19.4469   22.9720 C.2     1  UNL1        0.2352
      4 O          -7.8065  -20.8754   23.1192 O.2     1  UNL1       -0.2743
      5 C          -7.5543  -18.5536   21.9809 C.3     1  UNL1        0.1700
      6 C          -6.1986  -18.9196   21.4537 C.2     1  UNL1        0.2320
      7 O          -5.8946  -18.7631   19.9931 O.2     1  UNL1       -0.2746
      8 N          -5.1468  -19.4420   22.3869 N.am    1  UNL1       -0.3000
      9 H          -5.3463  -19.5446   23.3455 H       1  UNL1        0.1498
     10 C          -3.7911  -19.8079   21.8597 C.3     1  UNL1        0.1163
     11 C          -2.8488  -18.7337   21.4032 C.ar    1  UNL1       -0.0026
     12 C          -1.9364  -18.9816   20.2388 C.ar    1  UNL1       -0.0026
     13 C          -0.9942  -17.9074   19.7824 C.ar    1  UNL1       -0.0003
     14 C          -0.9644  -16.5853   20.4904 C.ar    1  UNL1       -0.0000
     15 C          -1.8769  -16.3375   21.6548 C.ar    1  UNL1       -0.0003
     16 C          -2.8191  -17.4116   22.1112 C.ar    1  UNL1       -0.0026
     17 C          -9.7918  -17.4832   23.6685 C.3     1  UNL1        0.1138
     18 C         -10.6810  -17.0829   22.5288 C.ar    1  UNL1       -0.0029
     19 C         -12.0773  -17.6238   22.4410 C.ar    1  UNL1       -0.0026
     20 C         -12.9665  -17.2235   21.3013 C.ar    1  UNL1       -0.0003
     21 C         -12.4593  -16.2821   20.2492 C.ar    1  UNL1       -0.0000
     22 C         -11.0630  -15.7412   20.3370 C.ar    1  UNL1       -0.0003
     23 C         -10.1738  -16.1416   21.4768 C.ar    1  UNL1       -0.0026
     24 C          -9.3359  -16.4551   24.6611 C.3     1  UNL1        0.0968
     25 N          -7.9214  -15.9568   24.6287 N.3     1  UNL1       -0.2689
     26 C          -7.0006  -15.8398   25.8071 C.3     1  UNL1        0.0748
     27 C          -5.6895  -15.2987   25.3188 C.3     1  UNL1        0.0480
     28 C          -5.8000  -15.0813   23.8387 C.3     1  UNL1        0.1278
     29 O          -4.7207  -14.5505   22.9426 O.3     1  UNL1       -0.3830
     30 C          -7.1794  -15.4880   23.4123 C.3     1  UNL1        0.1017
     31 H          -3.9267  -14.3647   23.4679 H       1  UNL1        0.2104
@<TRIPOS>BOND
     1     1     2    1
     2     2     3   am
     3     3     4    2
     4     3     5    1
     5     5     6    1
     6     6     7    2
     7     6     8   am
     8     8    10    1
     9    10    11    1
    10    11    12   ar
    11    12    13   ar
    12    13    14   ar
    13    14    15   ar
    14    15    16   ar
    15     2    17    1
    16    17    24    1
    17    24    25    1
    18    25    26    1
    19    26    27    1
    20    27    28    1
    21    28    29    1
    22    28    30    1
    23    17    18    1
    24    18    19   ar
    25    19    20   ar
    26    20    21   ar
    27    21    22   ar
    28    22    23   ar
    29    16    11   ar
    30    30    25    1
    31    23    18   ar
    32     8     9    1
    33    29    31    1
@<TRIPOS>MOLECULE
*****
 31 33 0 0 0
SMALL
GASTEIGER

@<TRIPOS>ATOM
      1 C         -10.1829  -19.6083   24.9702 C.3     1  UNL1        0.1152
      2 N          -9.4889  -18.7458   23.9580 N.am    1  UNL1       -0.2739
      3 C          -8.8358  -17.4649   24.3857 C.2     1  UNL1        0.2352
      4 O          -8.8768  -17.0466   25.8256 O.2     1  UNL1       -0.2743
      5 C          -8.1419  -16.6025   23.3736 C.3     1  UNL1        0.1700
      6 C          -6.7151  -16.1930   23.5894 C.2     1  UNL1        0.2320
      7 O          -6.4020  -14.8656   24.2139 O.2     1  UNL1       -0.2746
      8 N          -5.6013  -17.1110   23.1806 N.am    1  UNL1       -0.3000
      9 H          -5.8068  -17.9822   22.7707 H       1  UNL1        0.1498
     10 C          -4.1746  -16.7015   23.3964 C.3     1  UNL1        0.1163
     11 C          -3.1100  -17.1624   22.4454 C.ar    1  UNL1       -0.0026
     12 C          -2.2536  -16.1573   21.7339 C.ar    1  UNL1       -0.0026
     13 C          -1.1891  -16.6182   20.7829 C.ar    1  UNL1       -0.0003
     14 C          -0.9809  -18.0842   20.5435 C.ar    1  UNL1       -0.0000
     15 C          -1.8373  -19.0894   21.2550 C.ar    1  UNL1       -0.0003
     16 C          -2.9018  -18.6285   22.2059 C.ar    1  UNL1       -0.0026
     17 C          -9.4479  -19.1642   22.5181 C.3     1  UNL1        0.1138
     18 C          -8.1337  -19.4706   21.8632 C.ar    1  UNL1       -0.0029
     19 C          -7.8096  -18.8840   20.5213 C.ar    1  UNL1       -0.0026
     20 C          -6.4954  -19.1903   19.8664 C.ar    1  UNL1       -0.0003
     21 C          -5.5052  -20.0834   20.5535 C.ar    1  UNL1       -0.0000
     22 C          -5.8293  -20.6701   21.8954 C.ar    1  UNL1       -0.0003
     23 C          -7.1436  -20.3636   22.5503 C.ar    1  UNL1       -0.0026
     24 C         -10.7212  -19.2761   21.7331 C.3     1  UNL1        0.0968
     25 N         -11.4273  -18.0369   21.2685 N.3     1  UNL1       -0.2689
     26 C         -12.4132  -17.2333   22.0638 C.3     1  UNL1        0.0748
     27 C         -12.8666  -16.0834   21.2139 C.3     1  UNL1        0.0480
     28 C         -12.1610  -16.1764   19.8935 C.3     1  UNL1        0.1278
     29 O         -12.3175  -15.2285   18.7416 O.3     1  UNL1       -0.3830
     30 C         -11.2715  -17.3837   19.9273 C.3     1  UNL1        0.1017
     31 H         -12.9523  -14.5342   18.9781 H       1  UNL1        0.2104
@<TRIPOS>BOND
     1     1     2    1
     2     2     3   am
     3     3     4    2
     4     3     5    1
     5     5     6    1
     6     6     7    2
     7     6     8   am
     8     8    10    1
     9    10    11    1
    10    11    12   ar
    11    12    13   ar
    12    13    14   ar
    13    14    15   ar
    14    15    16   ar
    15     2    17    1
    16    17    24    1
    17    24    25    1
    18    25    26    1
    19    26    27    1
    20    27    28    1
    21    28    29    1
    22    28    30    1
    23    17    18    1
    24    18    19   ar
    25    19    20   ar
    26    20    21   ar
    27    21    22   ar
    28    22    23   ar
    29    16    11   ar
    30    30    25    1
    31    23    18   ar
    32     8     9    1
    33    29    31    1
@<TRIPOS>MOLECULE
*****
 31 33 0 0 0
SMALL
GASTEIGER

@<TRIPOS>ATOM
      1 C          -9.9053  -18.1850   25.6586 C.3     1  UNL1        0.1152
      2 N          -9.1451  -17.7547   24.4393 N.am    1  UNL1       -0.2739
      3 C          -8.0682  -16.7167   24.5543 C.2     1  UNL1        0.2352
      4 O          -7.7517  -16.1091   25.8887 O.2     1  UNL1       -0.2743
      5 C          -7.3080  -16.2864   23.3350 C.3     1  UNL1        0.1700
      6 C          -5.8151  -16.1517   23.3908 C.2     1  UNL1        0.2320
      7 O          -5.1859  -14.7907   23.4339 O.2     1  UNL1       -0.2746
      8 N          -4.9513  -17.3780   23.4035 N.am    1  UNL1       -0.3000
      9 H          -5.3642  -18.2713   23.3752 H       1  UNL1        0.1498
     10 C          -3.4584  -17.2433   23.4593 C.3     1  UNL1        0.1163
     11 C          -2.6335  -17.5291   22.2395 C.ar    1  UNL1       -0.0026
     12 C          -1.9955  -16.4010   21.4844 C.ar    1  UNL1       -0.0026
     13 C          -1.1705  -16.6868   20.2647 C.ar    1  UNL1       -0.0003
     14 C          -0.9836  -18.1007   19.8001 C.ar    1  UNL1       -0.0000
     15 C          -1.6216  -19.2288   20.5553 C.ar    1  UNL1       -0.0003
     16 C          -2.4465  -18.9430   21.7750 C.ar    1  UNL1       -0.0026
     17 C          -9.4615  -18.3623   23.1048 C.3     1  UNL1        0.1138
     18 C         -10.4075  -17.6683   22.1702 C.ar    1  UNL1       -0.0029
     19 C         -10.4098  -18.0158   20.7110 C.ar    1  UNL1       -0.0026
     20 C         -11.3557  -17.3219   19.7763 C.ar    1  UNL1       -0.0003
     21 C         -12.2994  -16.2804   20.3008 C.ar    1  UNL1       -0.0000
     22 C         -12.2970  -15.9330   21.7600 C.ar    1  UNL1       -0.0003
     23 C         -11.3510  -16.6270   22.6947 C.ar    1  UNL1       -0.0026
     24 C          -8.8320  -19.6638   22.7051 C.3     1  UNL1        0.0968
     25 N          -7.5592  -19.6689   21.9116 N.3     1  UNL1       -0.2689
     26 C          -6.4365  -20.6539   22.0519 C.3     1  UNL1        0.0748
     27 C          -5.3690  -20.2835   21.0654 C.3     1  UNL1        0.0480
     28 C          -5.8317  -19.0696   20.3154 C.3     1  UNL1        0.1278
     29 O          -5.0739  -18.3603   19.2326 O.3     1  UNL1       -0.3830
     30 C          -7.1853  -18.6898   20.8384 C.3     1  UNL1        0.1017
     31 H          -4.2262  -18.8079   19.0848 H       1  UNL1        0.2104
@<TRIPOS>BOND
     1     1     2    1
     2     2     3   am
     3     3     4    2
     4     3     5    1
     5     5     6    1
     6     6     7    2
     7     6     8   am
     8     8    10    1
     9    10    11    1
    10    11    12   ar
    11    12    13   ar
    12    13    14   ar
    13    14    15   ar
    14    15    16   ar
    15     2    17    1
    16    17    24    1
    17    24    25    1
    18    25    26    1
    19    26    27    1
    20    27    28    1
    21    28    29    1
    22    28    30    1
    23    17    18    1
    24    18    19   ar
    25    19    20   ar
    26    20    21   ar
    27    21    22   ar
    28    22    23   ar
    29    16    11   ar
    30    30    25    1
    31    23    18   ar
    32     8     9    1
    33    29    31    1
@<TRIPOS>MOLECULE
*****
 31 33 0 0 0
SMALL
GASTEIGER

@<TRIPOS>ATOM
      1 C          -8.8133  -17.0447   26.8111 C.3     1  UNL1        0.1152
      2 N          -8.2840  -16.4664   25.5323 N.am    1  UNL1       -0.2739
      3 C          -7.0358  -15.6345   25.5453 C.2     1  UNL1        0.2352
      4 O          -6.3171  -15.3808   26.8372 O.2     1  UNL1       -0.2743
      5 C          -6.5065  -15.0562   24.2665 C.3     1  UNL1        0.1700
      6 C          -5.1933  -15.5286   23.7168 C.2     1  UNL1        0.2320
      7 O          -4.3939  -14.6368   22.8136 O.2     1  UNL1       -0.2746
      8 N          -4.6795  -16.8928   24.0702 N.am    1  UNL1       -0.3000
      9 H          -5.2041  -17.4781   24.6630 H       1  UNL1        0.1498
     10 C          -3.3662  -17.3652   23.5205 C.3     1  UNL1        0.1163
     11 C          -3.3115  -18.0326   22.1781 C.ar    1  UNL1       -0.0026
     12 C          -2.6105  -17.3610   21.0347 C.ar    1  UNL1       -0.0026
     13 C          -2.5558  -18.0283   19.6925 C.ar    1  UNL1       -0.0003
     14 C          -3.2021  -19.3672   19.4937 C.ar    1  UNL1       -0.0000
     15 C          -3.9032  -20.0388   20.6371 C.ar    1  UNL1       -0.0003
     16 C          -3.9579  -19.3715   21.9793 C.ar    1  UNL1       -0.0026
     17 C          -9.0028  -16.7200   24.2403 C.3     1  UNL1        0.1138
     18 C          -8.5244  -17.7995   23.3153 C.ar    1  UNL1       -0.0029
     19 C          -8.8121  -19.2379   23.6289 C.ar    1  UNL1       -0.0026
     20 C          -8.3337  -20.3174   22.7038 C.ar    1  UNL1       -0.0003
     21 C          -7.5676  -19.9586   21.4651 C.ar    1  UNL1       -0.0000
     22 C          -7.2798  -18.5202   21.1515 C.ar    1  UNL1       -0.0003
     23 C          -7.7583  -17.4407   22.0767 C.ar    1  UNL1       -0.0026
     24 C         -10.2000  -15.8940   23.8735 C.3     1  UNL1        0.0968
     25 N         -11.0565  -16.2912   22.7079 N.3     1  UNL1       -0.2689
     26 C         -12.0810  -17.3869   22.6995 C.3     1  UNL1        0.0748
     27 C         -12.6966  -17.4353   21.3324 C.3     1  UNL1        0.0480
     28 C         -12.0526  -16.3696   20.4960 C.3     1  UNL1        0.1278
     29 O         -12.3671  -16.0646   19.0615 O.3     1  UNL1       -0.3830
     30 C         -11.0390  -15.6625   21.3461 C.3     1  UNL1        0.1017
     31 H         -13.0594  -16.6668   18.7471 H       1  UNL1        0.2104
@<TRIPOS>BOND
     1     1     2    1
     2     2     3   am
     3     3     4    2
     4     3     5    1
     5     5     6    1
     6     6     7    2
     7     6     8   am
     8     8    10    1
     9    10    11    1
    10    11    12   ar
    11    12    13   ar
    12    13    14   ar
    13    14    15   ar
    14    15    16   ar
    15     2    17    1
    16    17    24    1
    17    24    25    1
    18    25    26    1
    19    26    27    1
    20    27    28    1
    21    28    29    1
    22    28    30    1
    23    17    18    1
    24    18    19   ar
    25    19    20   ar
    26    20    21   ar
    27    21    22   ar
    28    22    23   ar
    29    16    11   ar
    30    30    25    1
    31    23    18   ar
    32     8     9    1
    33    29    31    1
@<TRIPOS>MOLECULE
*****
 31 33 0 0 0
SMALL
GASTEIGER

@<TRIPOS>ATOM
      1 C         -10.4685  -15.6087   20.2724 C.3     1  UNL1        0.1152
      2 N          -9.7968  -16.4641   21.3054 N.am    1  UNL1       -0.2739
      3 C          -8.6138  -15.9367   22.0620 C.2     1  UNL1        0.2352
      4 O          -8.1026  -14.5538   21.7856 O.2     1  UNL1       -0.2743
      5 C          -7.9422  -16.7921   23.0950 C.3     1  UNL1        0.1700
      6 C          -6.5054  -16.5492   23.4510 C.2     1  UNL1        0.2320
      7 O          -6.1403  -15.4179   24.3659 O.2     1  UNL1       -0.2746
      8 N          -5.4337  -17.4375   22.8920 N.am    1  UNL1       -0.3000
      9 H          -5.6733  -18.1800   22.2915 H       1  UNL1        0.1498
     10 C          -3.9970  -17.1946   23.2480 C.3     1  UNL1        0.1163
     11 C          -2.9196  -17.4546   22.2372 C.ar    1  UNL1       -0.0026
     12 C          -2.6577  -18.8534   21.7631 C.ar    1  UNL1       -0.0026
     13 C          -1.5804  -19.1134   20.7523 C.ar    1  UNL1       -0.0003
     14 C          -0.7648  -17.9746   20.2157 C.ar    1  UNL1       -0.0000
     15 C          -1.0266  -16.5758   20.6898 C.ar    1  UNL1       -0.0003
     16 C          -2.1040  -16.3158   21.7005 C.ar    1  UNL1       -0.0026
     17 C         -10.3081  -17.8469   21.5818 C.3     1  UNL1        0.1138
     18 C         -11.3106  -18.0713   22.6747 C.ar    1  UNL1       -0.0029
     19 C         -10.9009  -18.7723   23.9359 C.ar    1  UNL1       -0.0026
     20 C         -11.9035  -18.9967   25.0288 C.ar    1  UNL1       -0.0003
     21 C         -13.3159  -18.5202   24.8605 C.ar    1  UNL1       -0.0000
     22 C         -13.7255  -17.8192   23.5992 C.ar    1  UNL1       -0.0003
     23 C         -12.7229  -17.5948   22.5063 C.ar    1  UNL1       -0.0026
     24 C          -9.8167  -19.0053   20.7652 C.3     1  UNL1        0.0968
     25 N          -8.4416  -19.5575   20.9983 N.3     1  UNL1       -0.2689
     26 C          -7.8914  -20.0280   22.3121 C.3     1  UNL1        0.0748
     27 C          -6.4851  -20.4974   22.0842 C.3     1  UNL1        0.0480
     28 C          -6.1661  -20.3170   20.6296 C.3     1  UNL1        0.1278
     29 O          -4.8662  -20.6577   19.9633 O.3     1  UNL1       -0.3830
     30 C          -7.3753  -19.7361   19.9585 C.3     1  UNL1        0.1017
     31 H          -4.2506  -21.0180   20.6206 H       1  UNL1        0.2104
@<TRIPOS>BOND
     1     1     2    1
     2     2     3   am
     3     3     4    2
     4     3     5    1
     5     5     6    1
     6     6     7    2
     7     6     8   am
     8     8    10    1
     9    10    11    1
    10    11    12   ar
    11    12    13   ar
    12    13    14   ar
    13    14    15   ar
    14    15    16   ar
    15     2    17    1
    16    17    24    1
    17    24    25    1
    18    25    26    1
    19    26    27    1
    20    27    28    1
    21    28    29    1
    22    28    30    1
    23    17    18    1
    24    18    19   ar
    25    19    20   ar
    26    20    21   ar
    27    21    22   ar
    28    22    23   ar
    29    16    11   ar
    30    30    25    1
    31    23    18   ar
    32     8     9    1
    33    29    31    1
@<TRIPOS>MOLECULE
*****
 31 33 0 0 0
SMALL
GASTEIGER

@<TRIPOS>ATOM
      1 C          -3.5483  -17.7978   25.3283 C.3     1  UNL1        0.1152
      2 N          -4.2960  -17.0426   24.2697 N.am    1  UNL1       -0.2739
      3 C          -5.3151  -16.0137   24.6608 C.2     1  UNL1        0.2352
      4 O          -5.5864  -15.7400   26.1104 O.2     1  UNL1       -0.2743
      5 C          -6.0627  -15.2585   23.6022 C.3     1  UNL1        0.1700
      6 C          -7.5205  -15.5294   23.3759 C.2     1  UNL1        0.2320
      7 O          -8.4687  -15.5508   24.5380 O.2     1  UNL1       -0.2746
      8 N          -8.0303  -15.7790   21.9874 N.am    1  UNL1       -0.3000
      9 H          -7.4080  -15.7650   21.2246 H       1  UNL1        0.1498
     10 C          -9.4881  -16.0500   21.7611 C.3     1  UNL1        0.1163
     11 C          -9.9978  -17.4608   21.7620 C.ar    1  UNL1       -0.0026
     12 C         -10.1901  -18.1896   20.4651 C.ar    1  UNL1       -0.0026
     13 C         -10.6997  -19.6004   20.4661 C.ar    1  UNL1       -0.0003
     14 C         -11.0170  -20.2823   21.7639 C.ar    1  UNL1       -0.0000
     15 C         -10.8247  -19.5535   23.0607 C.ar    1  UNL1       -0.0003
     16 C         -10.3151  -18.1428   23.0597 C.ar    1  UNL1       -0.0026
     17 C          -4.0247  -17.3164   22.8201 C.3     1  UNL1        0.1138
     18 C          -4.6913  -18.4740   22.1378 C.ar    1  UNL1       -0.0029
     19 C          -6.1791  -18.6422   22.2281 C.ar    1  UNL1       -0.0026
     20 C          -6.8458  -19.7998   21.5459 C.ar    1  UNL1       -0.0003
     21 C          -6.0246  -20.7893   20.7733 C.ar    1  UNL1       -0.0000
     22 C          -4.5368  -20.6210   20.6830 C.ar    1  UNL1       -0.0003
     23 C          -3.8702  -19.4633   21.3653 C.ar    1  UNL1       -0.0026
     24 C          -3.0867  -16.4324   22.0527 C.3     1  UNL1        0.0968
     25 N          -2.2259  -17.0129   20.9701 N.3     1  UNL1       -0.2689
     26 C          -0.9374  -17.7545   21.1706 C.3     1  UNL1        0.0748
     27 C          -0.4177  -18.1537   19.8214 C.3     1  UNL1        0.0480
     28 C          -1.3848  -17.6590   18.7870 C.3     1  UNL1        0.1278
     29 O          -1.2568  -17.8379   17.3033 O.3     1  UNL1       -0.3830
     30 C          -2.5023  -16.9539   19.4970 C.3     1  UNL1        0.1017
     31 H          -0.4437  -18.3285   17.1057 H       1  UNL1        0.2104
@<TRIPOS>BOND
     1     1     2    1
     2     2     3   am
     3     3     4    2
     4     3     5    1
     5     5     6    1
     6     6     7    2
     7     6     8   am
     8     8    10    1
     9    10    11    1
    10    11    12   ar
    11    12    13   ar
    12    13    14   ar
    13    14    15   ar
    14    15    16   ar
    15     2    17    1
    16    17    24    1
    17    24    25    1
    18    25    26    1
    19    26    27    1
    20    27    28    1
    21    28    29    1
    22    28    30    1
    23    17    18    1
    24    18    19   ar
    25    19    20   ar
    26    20    21   ar
    27    21    22   ar
    28    22    23   ar
    29    16    11   ar
    30    30    25    1
    31    23    18   ar
    32     8     9    1
    33    29    31    1
@<TRIPOS>MOLECULE
*****
 31 33 0 0 0
SMALL
GASTEIGER

@<TRIPOS>ATOM
      1 C          -8.5851  -15.7835   24.5643 C.3     1  UNL1        0.1152
      2 N          -8.5039  -16.8744   23.5381 N.am    1  UNL1       -0.2739
      3 C          -7.1742  -17.2699   22.9674 C.2     1  UNL1        0.2352
      4 O          -5.9257  -16.5744   23.4230 O.2     1  UNL1       -0.2743
      5 C          -7.0930  -18.3609   21.9412 C.3     1  UNL1        0.1700
      6 C          -5.7569  -18.8114   21.4297 C.2     1  UNL1        0.2320
      7 O          -5.4841  -18.8248   19.9548 O.2     1  UNL1       -0.2746
      8 N          -4.6935  -19.2486   22.3931 N.am    1  UNL1       -0.3000
      9 H          -4.8725  -19.2398   23.3612 H       1  UNL1        0.1498
     10 C          -3.3573  -19.6991   21.8816 C.3     1  UNL1        0.1163
     11 C          -2.3851  -18.6949   21.3372 C.ar    1  UNL1       -0.0026
     12 C          -1.3958  -19.1023   20.2859 C.ar    1  UNL1       -0.0026
     13 C          -0.4237  -18.0981   19.7415 C.ar    1  UNL1       -0.0003
     14 C          -0.4409  -16.6864   20.2483 C.ar    1  UNL1       -0.0000
     15 C          -1.4302  -16.2790   21.2996 C.ar    1  UNL1       -0.0003
     16 C          -2.4023  -17.2832   21.8440 C.ar    1  UNL1       -0.0026
     17 C          -9.7524  -17.5700   23.0825 C.3     1  UNL1        0.1138
     18 C         -10.3360  -17.2581   21.7364 C.ar    1  UNL1       -0.0029
     19 C         -10.6253  -18.3674   20.7691 C.ar    1  UNL1       -0.0026
     20 C         -11.2089  -18.0556   19.4229 C.ar    1  UNL1       -0.0003
     21 C         -11.5033  -16.6343   19.0441 C.ar    1  UNL1       -0.0000
     22 C         -11.2140  -15.5250   20.0114 C.ar    1  UNL1       -0.0003
     23 C         -10.6303  -15.8369   21.3576 C.ar    1  UNL1       -0.0026
     24 C         -10.4172  -18.5774   23.9731 C.3     1  UNL1        0.0968
     25 N         -11.8822  -18.4615   24.2738 N.3     1  UNL1       -0.2689
     26 C         -12.9349  -17.9388   23.3417 C.3     1  UNL1        0.0748
     27 C         -14.2550  -18.0022   24.0513 C.3     1  UNL1        0.0480
     28 C         -14.0181  -18.5640   25.4218 C.3     1  UNL1        0.1278
     29 O         -15.0641  -18.8005   26.4705 O.3     1  UNL1       -0.3830
     30 C         -12.5517  -18.8479   25.5593 C.3     1  UNL1        0.1017
     31 H         -15.9314  -18.5328   26.1283 H       1  UNL1        0.2104
@<TRIPOS>BOND
     1     1     2    1
     2     2     3   am
     3     3     4    2
     4     3     5    1
     5     5     6    1
     6     6     7    2
     7     6     8   am
     8     8    10    1
     9    10    11    1
    10    11    12   ar
    11    12    13   ar
    12    13    14   ar
    13    14    15   ar
    14    15    16   ar
    15     2    17    1
    16    17    24    1
    17    24    25    1
    18    25    26    1
    19    26    27    1
    20    27    28    1
    21    28    29    1
    22    28    30    1
    23    17    18    1
    24    18    19   ar
    25    19    20   ar
    26    20    21   ar
    27    21    22   ar
    28    22    23   ar
    29    16    11   ar
    30    30    25    1
    31    23    18   ar
    32     8     9    1
    33    29    31    1
@<TRIPOS>MOLECULE
*****
 31 33 0 0 0
SMALL
GASTEIGER

@<TRIPOS>ATOM
      1 C          -3.3756  -17.7921   25.3823 C.3     1  UNL1        0.1152
      2 N          -4.1537  -17.5131   24.1307 N.am    1  UNL1       -0.2739
      3 C          -5.1437  -16.3866   24.0984 C.2     1  UNL1        0.2352
      4 O          -5.3556  -15.5392   25.3178 O.2     1  UNL1       -0.2743
      5 C          -5.9218  -16.1075   22.8467 C.3     1  UNL1        0.1700
      6 C          -7.3767  -15.7524   22.9316 C.2     1  UNL1        0.2320
      7 O          -7.8838  -14.9373   24.0841 O.2     1  UNL1       -0.2746
      8 N          -8.3245  -16.2125   21.8638 N.am    1  UNL1       -0.3000
      9 H          -7.9917  -16.7474   21.1073 H       1  UNL1        0.1498
     10 C          -9.7794  -15.8574   21.9486 C.3     1  UNL1        0.1163
     11 C         -10.7267  -16.7488   22.6957 C.ar    1  UNL1       -0.0026
     12 C         -12.1842  -16.7586   22.3417 C.ar    1  UNL1       -0.0026
     13 C         -13.1314  -17.6500   23.0887 C.ar    1  UNL1       -0.0003
     14 C         -12.6211  -18.5316   24.1898 C.ar    1  UNL1       -0.0000
     15 C         -11.1635  -18.5217   24.5439 C.ar    1  UNL1       -0.0003
     16 C         -10.2163  -17.6303   23.7968 C.ar    1  UNL1       -0.0026
     17 C          -3.9418  -18.3604   22.9112 C.3     1  UNL1        0.1138
     18 C          -2.8944  -17.9808   21.9069 C.ar    1  UNL1       -0.0029
     19 C          -2.4839  -18.9580   20.8455 C.ar    1  UNL1       -0.0026
     20 C          -1.4365  -18.5784   19.8411 C.ar    1  UNL1       -0.0003
     21 C          -0.7996  -17.2214   19.8981 C.ar    1  UNL1       -0.0000
     22 C          -1.2101  -16.2442   20.9595 C.ar    1  UNL1       -0.0003
     23 C          -2.2575  -16.6239   21.9639 C.ar    1  UNL1       -0.0026
     24 C          -4.7774  -19.5875   22.6962 C.3     1  UNL1        0.0968
     25 N          -6.0327  -19.5063   21.8791 N.3     1  UNL1       -0.2689
     26 C          -7.4324  -19.6633   22.3952 C.3     1  UNL1        0.0748
     27 C          -8.3734  -19.5079   21.2375 C.3     1  UNL1        0.0480
     28 C          -7.5554  -19.2550   20.0059 C.3     1  UNL1        0.1278
     29 O          -8.0901  -19.0407   18.6210 O.3     1  UNL1       -0.3830
     30 C          -6.1087  -19.2540   20.4024 C.3     1  UNL1        0.1017
     31 H          -9.0587  -19.0901   18.6371 H       1  UNL1        0.2104
@<TRIPOS>BOND
     1     1     2    1
     2     2     3   am
     3     3     4    2
     4     3     5    1
     5     5     6    1
     6     6     7    2
     7     6     8   am
     8     8    10    1
     9    10    11    1
    10    11    12   ar
    11    12    13   ar
    12    13    14   ar
    13    14    15   ar
    14    15    16   ar
    15     2    17    1
    16    17    24    1
    17    24    25    1
    18    25    26    1
    19    26    27    1
    20    27    28    1
    21    28    29    1
    22    28    30    1
    23    17    18    1
    24    18    19   ar
    25    19    20   ar
    26    20    21   ar
    27    21    22   ar
    28    22    23   ar
    29    16    11   ar
    30    30    25    1
    31    23    18   ar
    32     8     9    1
    33    29    31    1
