@<TRIPOS>MOLECULE
*****
 40 44 0 0 0
SMALL
GASTEIGER

@<TRIPOS>ATOM
      1 N           6.7187   -5.0810   31.9146 N.am    1  UNL1       -0.2903
      2 C           6.2147   -3.6748   32.0508 C.2     1  UNL1        0.3044
      3 O           6.8576   -2.5686   31.2678 O.2     1  UNL1       -0.2525
      4 N           5.0679   -3.3748   32.9699 N.am    1  UNL1       -0.2682
      5 H           6.2968   -5.8070   32.4285 H       1  UNL1        0.1509
      6 H           4.6460   -4.1008   33.4838 H       1  UNL1        0.1564
      7 C           4.5640   -1.9686   33.1061 C.ar    1  UNL1        0.0546
      8 C           4.8456   -1.1886   34.3561 C.ar    1  UNL1        0.0340
      9 C           4.3416    0.2176   34.4922 C.ar    1  UNL1        0.0872
     10 C           3.5560    0.8439   33.3785 C.ar    1  UNL1        0.0385
     11 C           3.2744    0.0640   32.1285 C.ar    1  UNL1        0.0872
     12 C           3.7783   -1.3423   31.9923 C.ar    1  UNL1        0.0340
     13 N           4.6232    0.9975   35.7422 N.ar    1  UNL1       -0.2088
     14 C           5.1923    2.3839   35.8070 C.ar    1  UNL1        0.1245
     15 C           5.3061    2.7712   37.2517 C.ar    1  UNL1        0.1445
     16 N           4.8073    1.6242   38.0798 N.ar    1  UNL1       -0.1268
     17 N           4.3853    0.5279   37.1468 N.ar    1  UNL1       -0.0595
     18 N           2.4887    0.6903   31.0147 N.ar    1  UNL1       -0.2088
     19 C           2.9708    0.9112   29.6115 C.ar    1  UNL1        0.1245
     20 C           1.8631    1.5631   28.8381 C.ar    1  UNL1        0.1445
     21 N           0.6965    1.7452   29.7633 N.ar    1  UNL1       -0.1268
     22 N           1.0832    1.2057   31.1085 N.ar    1  UNL1       -0.0595
     23 C           9.2508   -4.9300   31.3527 C.3     1  UNL1        0.0214
     24 C           7.8655   -5.3810   30.9955 C.3     1  UNL1        0.0745
     25 C           7.6270   -6.1320   29.7191 C.3     1  UNL1        0.0369
     26 C           6.9681   -5.4478   28.5582 C.3     1  UNL1        0.0738
     27 N           7.3179   -5.8470   27.1552 N.3     1  UNL1       -0.2726
     28 C           7.5374   -7.2923   26.8193 C.3     1  UNL1        0.0721
     29 C           7.8872   -7.6915   25.4164 C.3     1  UNL1        0.0174
     30 C           8.0174   -6.6453   24.3494 C.3     1  UNL1        0.0031
     31 C           7.7979   -5.2000   24.6853 C.3     1  UNL1        0.0204
     32 C           7.4481   -4.8009   26.0882 C.3     1  UNL1        0.0724
     33 C           7.9282   -4.1539   23.6182 C.3     1  UNL1        0.0277
     34 C           6.8255   -3.9592   22.6201 C.ar    1  UNL1       -0.0220
     35 C           5.4292   -3.6779   23.0905 C.ar    1  UNL1       -0.0020
     36 C           4.3265   -3.4833   22.0924 C.ar    1  UNL1        0.0293
     37 C           4.6201   -3.5698   20.6240 C.ar    1  UNL1        0.1401
     38 F           3.5173   -3.3751   19.6259 F       1  UNL1       -0.2042
     39 C           6.0164   -3.8511   20.1536 C.ar    1  UNL1        0.0293
     40 C           7.1191   -4.0458   21.1517 C.ar    1  UNL1       -0.0020
@<TRIPOS>BOND
     1    24    23    1
     2    24    25    1
     3    25    26    1
     4    26    27    1
     5    27    28    1
     6    28    29    1
     7    29    30    1
     8    30    31    1
     9    31    33    1
    10    33    34    1
    11    34    35   ar
    12    35    36   ar
    13    36    37   ar
    14    37    38    1
    15    37    39   ar
    16    39    40   ar
    17    31    32    1
    18    24     1    1
    19     1     2   am
    20     2     3    2
    21     2     4   am
    22     4     7    1
    23     7     8   ar
    24     8     9   ar
    25     9    13    1
    26    13    14   ar
    27    14    15   ar
    28    15    16   ar
    29    16    17   ar
    30     9    10   ar
    31    10    11   ar
    32    11    18    1
    33    18    19   ar
    34    19    20   ar
    35    20    21   ar
    36    21    22   ar
    37    11    12   ar
    38    32    27    1
    39    12     7   ar
    40    40    34   ar
    41    17    13   ar
    42    22    18   ar
    43     1     5    1
    44     4     6    1
@<TRIPOS>MOLECULE
*****
 40 44 0 0 0
SMALL
GASTEIGER

@<TRIPOS>ATOM
      1 N           6.7573   -5.1298   31.9198 N.am    1  UNL1       -0.2903
      2 C           6.2331   -3.7282   32.0224 C.2     1  UNL1        0.3044
      3 O           6.8436   -2.6366   31.1944 O.2     1  UNL1       -0.2525
      4 N           5.0983   -3.4181   32.9532 N.am    1  UNL1       -0.2682
      5 H           6.3566   -5.8463   32.4632 H       1  UNL1        0.1509
      6 H           4.6976   -4.1346   33.4966 H       1  UNL1        0.1564
      7 C           4.5741   -2.0165   33.0558 C.ar    1  UNL1        0.0546
      8 C           3.8681   -1.3924   31.8887 C.ar    1  UNL1        0.0340
      9 C           3.3439    0.0092   31.9914 C.ar    1  UNL1        0.0872
     10 C           3.5257    0.7868   33.2611 C.ar    1  UNL1        0.0385
     11 C           4.2316    0.1628   34.4282 C.ar    1  UNL1        0.0872
     12 C           4.7559   -1.2389   34.3256 C.ar    1  UNL1        0.0340
     13 N           2.6379    0.6332   30.8243 N.ar    1  UNL1       -0.2088
     14 C           3.2650    1.5083   29.7796 C.ar    1  UNL1        0.1245
     15 C           2.1956    1.9077   28.8066 C.ar    1  UNL1        0.1445
     16 N           0.9075    1.2795   29.2498 N.ar    1  UNL1       -0.1268
     17 N           1.1809    0.4918   30.4968 N.ar    1  UNL1       -0.0595
     18 N           4.4134    0.9404   35.6980 N.ar    1  UNL1       -0.2088
     19 C           4.1749    2.4110   35.8731 C.ar    1  UNL1        0.1245
     20 C           4.4797    2.7634   37.2990 C.ar    1  UNL1        0.1445
     21 N           4.9065    1.5107   38.0050 N.ar    1  UNL1       -0.1268
     22 N           4.8655    0.3840   37.0156 N.ar    1  UNL1       -0.0595
     23 C           9.2897   -5.0308   31.3481 C.3     1  UNL1        0.0214
     24 C           7.8920   -5.4399   30.9891 C.3     1  UNL1        0.0745
     25 C           7.6290   -6.1591   29.6992 C.3     1  UNL1        0.0369
     26 C           7.0191   -5.4250   28.5420 C.3     1  UNL1        0.0738
     27 N           7.3558   -5.8278   27.1368 N.3     1  UNL1       -0.2726
     28 C           7.5729   -7.2739   26.8028 C.3     1  UNL1        0.0721
     29 C           7.9096   -7.6766   25.3976 C.3     1  UNL1        0.0174
     30 C           8.0291   -6.6333   24.3266 C.3     1  UNL1        0.0031
     31 C           7.8119   -5.1872   24.6606 C.3     1  UNL1        0.0204
     32 C           7.4753   -4.7844   26.0658 C.3     1  UNL1        0.0724
     33 C           7.9314   -4.1438   23.5896 C.3     1  UNL1        0.0277
     34 C           6.8107   -3.9388   22.6139 C.ar    1  UNL1       -0.0220
     35 C           5.4322   -3.6188   23.1114 C.ar    1  UNL1       -0.0020
     36 C           4.3116   -3.4138   22.1357 C.ar    1  UNL1        0.0293
     37 C           4.5693   -3.5288   20.6625 C.ar    1  UNL1        0.1401
     38 F           3.4485   -3.3238   19.6868 F       1  UNL1       -0.2042
     39 C           5.9476   -3.8489   20.1650 C.ar    1  UNL1        0.0293
     40 C           7.0684   -4.0539   21.1407 C.ar    1  UNL1       -0.0020
@<TRIPOS>BOND
     1    24    23    1
     2    24    25    1
     3    25    26    1
     4    26    27    1
     5    27    28    1
     6    28    29    1
     7    29    30    1
     8    30    31    1
     9    31    33    1
    10    33    34    1
    11    34    35   ar
    12    35    36   ar
    13    36    37   ar
    14    37    38    1
    15    37    39   ar
    16    39    40   ar
    17    31    32    1
    18    24     1    1
    19     1     2   am
    20     2     3    2
    21     2     4   am
    22     4     7    1
    23     7     8   ar
    24     8     9   ar
    25     9    13    1
    26    13    14   ar
    27    14    15   ar
    28    15    16   ar
    29    16    17   ar
    30     9    10   ar
    31    10    11   ar
    32    11    18    1
    33    18    19   ar
    34    19    20   ar
    35    20    21   ar
    36    21    22   ar
    37    11    12   ar
    38    32    27    1
    39    12     7   ar
    40    40    34   ar
    41    17    13   ar
    42    22    18   ar
    43     1     5    1
    44     4     6    1
@<TRIPOS>MOLECULE
*****
 40 44 0 0 0
SMALL
GASTEIGER

@<TRIPOS>ATOM
      1 N           1.9157   -0.6379   29.2987 N.am    1  UNL1       -0.2903
      2 C           1.4055    0.4258   28.3723 C.2     1  UNL1        0.3044
      3 O           2.1655    1.7092   28.2131 O.2     1  UNL1       -0.2525
      4 N           0.1355    0.2061   27.6051 N.am    1  UNL1       -0.2682
      5 H           1.4170   -1.4802   29.4032 H       1  UNL1        0.1509
      6 H          -0.3633   -0.6363   27.7096 H       1  UNL1        0.1564
      7 C          -0.3747    1.2697   26.6787 C.ar    1  UNL1        0.0546
      8 C           0.1450    1.3533   25.2741 C.ar    1  UNL1        0.0340
      9 C          -0.3651    2.4170   24.3477 C.ar    1  UNL1        0.0872
     10 C          -1.3951    3.3971   24.8258 C.ar    1  UNL1        0.0385
     11 C          -1.9149    3.3135   26.2304 C.ar    1  UNL1        0.0872
     12 C          -1.4047    2.2498   27.1569 C.ar    1  UNL1        0.0340
     13 N           0.1546    2.5006   22.9431 N.ar    1  UNL1       -0.2088
     14 C           1.5041    3.0101   22.5312 C.ar    1  UNL1        0.1245
     15 C           1.5997    2.9137   21.0373 C.ar    1  UNL1        0.1445
     16 N           0.3094    2.3447   20.5259 N.ar    1  UNL1       -0.1268
     17 N          -0.5837    2.0894   21.7038 N.ar    1  UNL1       -0.0595
     18 N          -2.9448    4.2936   26.7085 N.ar    1  UNL1       -0.2088
     19 C          -2.7629    5.7782   26.8233 C.ar    1  UNL1        0.1245
     20 C          -4.0432    6.3633   27.3415 C.ar    1  UNL1        0.1445
     21 N          -5.0163    5.2404   27.5471 N.ar    1  UNL1       -0.1268
     22 N          -4.3374    3.9613   27.1558 N.ar    1  UNL1       -0.0595
     23 C           3.1452    0.2505   31.4080 C.3     1  UNL1        0.0214
     24 C           3.1858   -0.4182   30.0659 C.3     1  UNL1        0.0745
     25 C           4.4965   -0.8672   29.4910 C.3     1  UNL1        0.0369
     26 C           4.5424   -1.4963   28.1301 C.3     1  UNL1        0.0738
     27 N           4.5172   -0.6331   26.9035 N.3     1  UNL1       -0.2726
     28 C           5.4019    0.5752   26.8185 C.3     1  UNL1        0.0721
     29 C           5.3767    1.4383   25.5920 C.3     1  UNL1        0.0174
     30 C           4.4668    1.0931   24.4505 C.3     1  UNL1        0.0031
     31 C           3.5821   -0.1152   24.5356 C.3     1  UNL1        0.0204
     32 C           3.6073   -0.9783   25.7621 C.3     1  UNL1        0.0724
     33 C           2.6722   -0.4604   23.3941 C.3     1  UNL1        0.0277
     34 C           3.1822   -1.2892   22.2527 C.ar    1  UNL1       -0.0220
     35 C           2.6705   -1.0481   20.8634 C.ar    1  UNL1       -0.0020
     36 C           3.1804   -1.8770   19.7219 C.ar    1  UNL1        0.0293
     37 C           4.2021   -2.9469   19.9697 C.ar    1  UNL1        0.1401
     38 F           4.7121   -3.7758   18.8282 F       1  UNL1       -0.2042
     39 C           4.7138   -3.1881   21.3589 C.ar    1  UNL1        0.0293
     40 C           4.2038   -2.3592   22.5005 C.ar    1  UNL1       -0.0020
@<TRIPOS>BOND
     1    24    23    1
     2    24    25    1
     3    25    26    1
     4    26    27    1
     5    27    28    1
     6    28    29    1
     7    29    30    1
     8    30    31    1
     9    31    33    1
    10    33    34    1
    11    34    35   ar
    12    35    36   ar
    13    36    37   ar
    14    37    38    1
    15    37    39   ar
    16    39    40   ar
    17    31    32    1
    18    24     1    1
    19     1     2   am
    20     2     3    2
    21     2     4   am
    22     4     7    1
    23     7     8   ar
    24     8     9   ar
    25     9    13    1
    26    13    14   ar
    27    14    15   ar
    28    15    16   ar
    29    16    17   ar
    30     9    10   ar
    31    10    11   ar
    32    11    18    1
    33    18    19   ar
    34    19    20   ar
    35    20    21   ar
    36    21    22   ar
    37    11    12   ar
    38    32    27    1
    39    12     7   ar
    40    40    34   ar
    41    17    13   ar
    42    22    18   ar
    43     1     5    1
    44     4     6    1
@<TRIPOS>MOLECULE
*****
 40 44 0 0 0
SMALL
GASTEIGER

@<TRIPOS>ATOM
      1 N           1.7071   -0.6064   29.3373 N.am    1  UNL1       -0.2903
      2 C           1.2726    0.4257   28.3395 C.2     1  UNL1        0.3044
      3 O           2.0923    1.6656   28.1377 O.2     1  UNL1       -0.2525
      4 N           0.0183    0.2180   27.5434 N.am    1  UNL1       -0.2682
      5 H           1.1691   -1.4202   29.4698 H       1  UNL1        0.1509
      6 H          -0.5197   -0.5957   27.6759 H       1  UNL1        0.1564
      7 C          -0.4162    1.2502   26.5455 C.ar    1  UNL1        0.0546
      8 C          -1.4496    2.2699   26.9229 C.ar    1  UNL1        0.0340
      9 C          -1.8841    3.3021   25.9250 C.ar    1  UNL1        0.0872
     10 C          -1.2853    3.3146   24.5498 C.ar    1  UNL1        0.0385
     11 C          -0.2519    2.2950   24.1724 C.ar    1  UNL1        0.0872
     12 C           0.1827    1.2627   25.1703 C.ar    1  UNL1        0.0340
     13 N          -2.9175    4.3217   26.3024 N.ar    1  UNL1       -0.2088
     14 C          -3.0536    5.6969   25.7187 C.ar    1  UNL1        0.1245
     15 C          -4.2165    6.3703   26.3853 C.ar    1  UNL1        0.1445
     16 N          -4.7991    5.4114   27.3809 N.ar    1  UNL1       -0.1268
     17 N          -3.9963    4.1453   27.3296 N.ar    1  UNL1       -0.0595
     18 N           0.3469    2.3075   22.7972 N.ar    1  UNL1       -0.2088
     19 C           1.3333    3.3093   22.2742 C.ar    1  UNL1        0.1245
     20 C           1.6605    2.9414   20.8573 C.ar    1  UNL1        0.1445
     21 N           0.8764    1.7122   20.5046 N.ar    1  UNL1       -0.1268
     22 N           0.0646    1.3205   21.7036 N.ar    1  UNL1       -0.0595
     23 C           2.8781    0.0739   31.5545 C.3     1  UNL1        0.0214
     24 C           2.9614   -0.3987   30.1334 C.3     1  UNL1        0.0745
     25 C           4.2990   -0.6638   29.5083 C.3     1  UNL1        0.0369
     26 C           4.3871   -1.4318   28.2229 C.3     1  UNL1        0.0738
     27 N           4.5996   -0.7050   26.9280 N.3     1  UNL1       -0.2726
     28 C           5.7295    0.2723   26.7931 C.3     1  UNL1        0.0721
     29 C           5.9420    0.9991   25.4982 C.3     1  UNL1        0.0174
     30 C           5.0245    0.7485   24.3383 C.3     1  UNL1        0.0031
     31 C           3.8946   -0.2287   24.4732 C.3     1  UNL1        0.0204
     32 C           3.6822   -0.9555   25.7680 C.3     1  UNL1        0.0724
     33 C           2.9771   -0.4793   23.3132 C.3     1  UNL1        0.0277
     34 C           3.3617   -1.4678   22.2527 C.ar    1  UNL1       -0.0220
     35 C           4.2382   -2.6352   22.5979 C.ar    1  UNL1       -0.0020
     36 C           4.6228   -3.6238   21.5373 C.ar    1  UNL1        0.0293
     37 C           4.1309   -3.4451   20.1316 C.ar    1  UNL1        0.1401
     38 F           4.5155   -4.4337   19.0710 F       1  UNL1       -0.2042
     39 C           3.2545   -2.2778   19.7864 C.ar    1  UNL1        0.0293
     40 C           2.8699   -1.2891   20.8469 C.ar    1  UNL1       -0.0020
@<TRIPOS>BOND
     1    24    23    1
     2    24    25    1
     3    25    26    1
     4    26    27    1
     5    27    28    1
     6    28    29    1
     7    29    30    1
     8    30    31    1
     9    31    33    1
    10    33    34    1
    11    34    35   ar
    12    35    36   ar
    13    36    37   ar
    14    37    38    1
    15    37    39   ar
    16    39    40   ar
    17    31    32    1
    18    24     1    1
    19     1     2   am
    20     2     3    2
    21     2     4   am
    22     4     7    1
    23     7     8   ar
    24     8     9   ar
    25     9    13    1
    26    13    14   ar
    27    14    15   ar
    28    15    16   ar
    29    16    17   ar
    30     9    10   ar
    31    10    11   ar
    32    11    18    1
    33    18    19   ar
    34    19    20   ar
    35    20    21   ar
    36    21    22   ar
    37    11    12   ar
    38    32    27    1
    39    12     7   ar
    40    40    34   ar
    41    17    13   ar
    42    22    18   ar
    43     1     5    1
    44     4     6    1
@<TRIPOS>MOLECULE
*****
 40 44 0 0 0
SMALL
GASTEIGER

@<TRIPOS>ATOM
      1 N           5.9317   -3.4897   20.4196 N.am    1  UNL1       -0.2903
      2 C           5.7990   -3.7838   21.8845 C.2     1  UNL1        0.3044
      3 O           4.4853   -4.2478   22.4402 O.2     1  UNL1       -0.2525
      4 N           6.9800   -3.6140   22.7936 N.am    1  UNL1       -0.2682
      5 H           6.7940   -3.1851   20.0549 H       1  UNL1        0.1509
      6 H           7.8422   -3.3094   22.4289 H       1  UNL1        0.1564
      7 C           6.8472   -3.9082   24.2584 C.ar    1  UNL1        0.0546
      8 C           6.2323   -2.8921   25.1748 C.ar    1  UNL1        0.0340
      9 C           6.0996   -3.1863   26.6396 C.ar    1  UNL1        0.0872
     10 C           6.5817   -4.4965   27.1882 C.ar    1  UNL1        0.0385
     11 C           7.1966   -5.5125   26.2719 C.ar    1  UNL1        0.0872
     12 C           7.3293   -5.2184   24.8070 C.ar    1  UNL1        0.0340
     13 N           5.4847   -2.1703   27.5559 N.ar    1  UNL1       -0.2088
     14 C           6.2113   -1.3593   28.5877 C.ar    1  UNL1        0.1245
     15 C           5.2110   -0.4746   29.2708 C.ar    1  UNL1        0.1445
     16 N           3.8661   -0.7387   28.6612 N.ar    1  UNL1       -0.1268
     17 N           4.0353   -1.7867   27.6013 N.ar    1  UNL1       -0.0595
     18 N           7.6787   -6.8227   26.8205 N.ar    1  UNL1       -0.2088
     19 C           8.6852   -7.0022   27.9182 C.ar    1  UNL1        0.1245
     20 C           8.8675   -8.4739   28.1438 C.ar    1  UNL1        0.1445
     21 N           7.9737   -9.2040   27.1856 N.ar    1  UNL1       -0.1268
     22 N           7.2390   -8.1835   26.3678 N.ar    1  UNL1       -0.0595
     23 C           4.5401   -4.9577   18.7892 C.3     1  UNL1        0.0214
     24 C           4.7508   -3.6595   19.5105 C.3     1  UNL1        0.0745
     25 C           3.7805   -2.5311   19.3227 C.3     1  UNL1        0.0369
     26 C           3.9922   -1.2322   20.0425 C.3     1  UNL1        0.0738
     27 N           2.8141   -0.4594   20.5574 N.3     1  UNL1       -0.2726
     28 C           1.4739   -0.6089   19.9006 C.3     1  UNL1        0.0721
     29 C           0.2960    0.1639   20.4155 C.3     1  UNL1        0.0174
     30 C           0.4582    1.0862   21.5872 C.3     1  UNL1        0.0031
     31 C           1.7984    1.2357   22.2441 C.3     1  UNL1        0.0204
     32 C           2.9764    0.4629   21.7292 C.3     1  UNL1        0.0724
     33 C           1.9607    2.1580   23.4158 C.3     1  UNL1        0.0277
     34 C           1.1759    1.9201   24.6718 C.ar    1  UNL1       -0.0220
     35 C          -0.2340    2.4204   24.7814 C.ar    1  UNL1       -0.0020
     36 C          -1.0187    2.1825   26.0374 C.ar    1  UNL1        0.0293
     37 C          -0.3936    1.4443   27.1839 C.ar    1  UNL1        0.1401
     38 F          -1.1784    1.2065   28.4399 F       1  UNL1       -0.2042
     39 C           1.0162    0.9441   27.0743 C.ar    1  UNL1        0.0293
     40 C           1.8010    1.1820   25.8183 C.ar    1  UNL1       -0.0020
@<TRIPOS>BOND
     1    24    23    1
     2    24    25    1
     3    25    26    1
     4    26    27    1
     5    27    28    1
     6    28    29    1
     7    29    30    1
     8    30    31    1
     9    31    33    1
    10    33    34    1
    11    34    35   ar
    12    35    36   ar
    13    36    37   ar
    14    37    38    1
    15    37    39   ar
    16    39    40   ar
    17    31    32    1
    18    24     1    1
    19     1     2   am
    20     2     3    2
    21     2     4   am
    22     4     7    1
    23     7     8   ar
    24     8     9   ar
    25     9    13    1
    26    13    14   ar
    27    14    15   ar
    28    15    16   ar
    29    16    17   ar
    30     9    10   ar
    31    10    11   ar
    32    11    18    1
    33    18    19   ar
    34    19    20   ar
    35    20    21   ar
    36    21    22   ar
    37    11    12   ar
    38    32    27    1
    39    12     7   ar
    40    40    34   ar
    41    17    13   ar
    42    22    18   ar
    43     1     5    1
    44     4     6    1
@<TRIPOS>MOLECULE
*****
 40 44 0 0 0
SMALL
GASTEIGER

@<TRIPOS>ATOM
      1 N           5.3615   -0.0727   27.4171 N.am    1  UNL1       -0.2903
      2 C           4.5743   -0.4202   26.1885 C.2     1  UNL1        0.3044
      3 O           3.5267   -1.4921   26.2473 O.2     1  UNL1       -0.2525
      4 N           4.8347    0.3042   24.9011 N.am    1  UNL1       -0.2682
      5 H           6.0491    0.6308   27.3785 H       1  UNL1        0.1509
      6 H           5.5223    1.0078   24.8625 H       1  UNL1        0.1564
      7 C           4.0475   -0.0432   23.6725 C.ar    1  UNL1        0.0546
      8 C           4.4311   -1.2366   22.8485 C.ar    1  UNL1        0.0340
      9 C           3.6438   -1.5841   21.6199 C.ar    1  UNL1        0.0872
     10 C           2.4731   -0.7382   21.2152 C.ar    1  UNL1        0.0385
     11 C           2.0895    0.4551   22.0391 C.ar    1  UNL1        0.0872
     12 C           2.8767    0.8026   23.2678 C.ar    1  UNL1        0.0340
     13 N           4.0274   -2.7774   20.7961 N.ar    1  UNL1       -0.2088
     14 C           3.4795   -3.1288   19.4446 C.ar    1  UNL1        0.1245
     15 C           4.1397   -4.3974   18.9922 C.ar    1  UNL1        0.1445
     16 N           5.0957   -4.8302   20.0641 N.ar    1  UNL1       -0.1268
     17 N           5.0263   -3.8290   21.1789 N.ar    1  UNL1       -0.0595
     18 N           0.9187    1.3009   21.6343 N.ar    1  UNL1       -0.2088
     19 C           0.6690    2.7194   22.0536 C.ar    1  UNL1        0.1245
     20 C          -0.6120    3.1719   21.4176 C.ar    1  UNL1        0.1445
     21 N          -1.1539    2.0332   20.6054 N.ar    1  UNL1       -0.1268
     22 N          -0.2079    0.8769   20.7394 N.ar    1  UNL1       -0.0595
     23 C           6.0532   -1.8565   29.1749 C.3     1  UNL1        0.0214
     24 C           5.1011   -0.7971   28.7045 C.3     1  UNL1        0.0745
     25 C           3.8885   -0.4622   29.5216 C.3     1  UNL1        0.0369
     26 C           3.2243    0.8736   29.3651 C.3     1  UNL1        0.0738
     27 N           1.8317    0.9588   28.8140 N.3     1  UNL1       -0.2726
     28 C           0.8546   -0.1500   29.0703 C.3     1  UNL1        0.0721
     29 C          -0.5379   -0.0648   28.5192 C.3     1  UNL1        0.0174
     30 C          -0.9532    1.1293   27.7118 C.3     1  UNL1        0.0031
     31 C           0.0240    2.2381   27.4555 C.3     1  UNL1        0.0204
     32 C           1.4164    2.1528   28.0066 C.3     1  UNL1        0.0724
     33 C          -0.3913    3.4321   26.6482 C.3     1  UNL1        0.0277
     34 C          -1.8135    3.5713   26.1922 C.ar    1  UNL1       -0.0220
     35 C          -2.8714    4.0133   27.1595 C.ar    1  UNL1       -0.0020
     36 C          -4.2936    4.1525   26.7035 C.ar    1  UNL1        0.0293
     37 C          -4.6580    3.8497   25.2803 C.ar    1  UNL1        0.1401
     38 F          -6.0803    3.9890   24.8243 F       1  UNL1       -0.2042
     39 C          -3.6002    3.4078   24.3130 C.ar    1  UNL1        0.0293
     40 C          -2.1779    3.2685   24.7690 C.ar    1  UNL1       -0.0020
@<TRIPOS>BOND
     1    24    23    1
     2    24    25    1
     3    25    26    1
     4    26    27    1
     5    27    28    1
     6    28    29    1
     7    29    30    1
     8    30    31    1
     9    31    33    1
    10    33    34    1
    11    34    35   ar
    12    35    36   ar
    13    36    37   ar
    14    37    38    1
    15    37    39   ar
    16    39    40   ar
    17    31    32    1
    18    24     1    1
    19     1     2   am
    20     2     3    2
    21     2     4   am
    22     4     7    1
    23     7     8   ar
    24     8     9   ar
    25     9    13    1
    26    13    14   ar
    27    14    15   ar
    28    15    16   ar
    29    16    17   ar
    30     9    10   ar
    31    10    11   ar
    32    11    18    1
    33    18    19   ar
    34    19    20   ar
    35    20    21   ar
    36    21    22   ar
    37    11    12   ar
    38    32    27    1
    39    12     7   ar
    40    40    34   ar
    41    17    13   ar
    42    22    18   ar
    43     1     5    1
    44     4     6    1
@<TRIPOS>MOLECULE
*****
 40 44 0 0 0
SMALL
GASTEIGER

@<TRIPOS>ATOM
      1 N           0.6351    3.5143   20.5676 N.am    1  UNL1       -0.2903
      2 C          -0.2011    3.2657   21.7878 C.2     1  UNL1        0.3044
      3 O          -1.5300    2.5820   21.6596 O.2     1  UNL1       -0.2525
      4 N           0.2915    3.7008   23.1361 N.am    1  UNL1       -0.2682
      5 H           1.5074    3.9630   20.6517 H       1  UNL1        0.1509
      6 H           1.1637    4.1496   23.2202 H       1  UNL1        0.1564
      7 C          -0.5448    3.4522   24.3562 C.ar    1  UNL1        0.0546
      8 C          -0.0943    2.4571   25.3843 C.ar    1  UNL1        0.0340
      9 C          -0.9305    2.2086   26.6045 C.ar    1  UNL1        0.0872
     10 C          -2.2173    2.9550   26.7966 C.ar    1  UNL1        0.0385
     11 C          -2.6679    3.9501   25.7686 C.ar    1  UNL1        0.0872
     12 C          -1.8316    4.1987   24.5484 C.ar    1  UNL1        0.0340
     13 N          -0.4800    1.2135   27.6325 N.ar    1  UNL1       -0.2088
     14 C           0.9421    0.8609   27.9545 C.ar    1  UNL1        0.1245
     15 C           0.9286   -0.1742   29.0400 C.ar    1  UNL1        0.1445
     16 N          -0.5018   -0.4614   29.3890 N.ar    1  UNL1       -0.1268
     17 N          -1.3723    0.3963   28.5190 N.ar    1  UNL1       -0.0595
     18 N          -3.9547    4.6965   25.9607 N.ar    1  UNL1       -0.2088
     19 C          -4.8251    5.2484   24.8707 C.ar    1  UNL1        0.1245
     20 C          -6.0054    5.9151   25.5130 C.ar    1  UNL1        0.1445
     21 N          -5.8645    5.7753   26.9998 N.ar    1  UNL1       -0.1268
     22 N          -4.5971    5.0222   27.2765 N.ar    1  UNL1       -0.0595
     23 C          -0.9413    3.8544   18.5307 C.3     1  UNL1        0.0214
     24 C           0.1425    3.0791   19.2193 C.3     1  UNL1        0.0745
     25 C           0.7338    1.8686   18.5596 C.3     1  UNL1        0.0369
     26 C           1.1061    0.6719   19.3837 C.3     1  UNL1        0.0738
     27 N           2.2449   -0.2069   18.9582 N.3     1  UNL1       -0.2726
     28 C           3.1112    0.1955   17.8017 C.3     1  UNL1        0.0721
     29 C           4.2499   -0.6833   17.3763 C.3     1  UNL1        0.0174
     30 C           4.5223   -1.9645   18.1074 C.3     1  UNL1        0.0031
     31 C           3.6560   -2.3668   19.2639 C.3     1  UNL1        0.0204
     32 C           2.5173   -1.4880   19.6893 C.3     1  UNL1        0.0724
     33 C           3.9283   -3.6480   19.9950 C.3     1  UNL1        0.0277
     34 C           4.9728   -3.6902   21.0707 C.ar    1  UNL1       -0.0220
     35 C           4.5803   -3.4955   22.5053 C.ar    1  UNL1       -0.0020
     36 C           5.6248   -3.5377   23.5811 C.ar    1  UNL1        0.0293
     37 C           7.0618   -3.7746   23.2222 C.ar    1  UNL1        0.1401
     38 F           8.1063   -3.8168   24.2980 F       1  UNL1       -0.2042
     39 C           7.4544   -3.9693   21.7877 C.ar    1  UNL1        0.0293
     40 C           6.4099   -3.9271   20.7119 C.ar    1  UNL1       -0.0020
@<TRIPOS>BOND
     1    24    23    1
     2    24    25    1
     3    25    26    1
     4    26    27    1
     5    27    28    1
     6    28    29    1
     7    29    30    1
     8    30    31    1
     9    31    33    1
    10    33    34    1
    11    34    35   ar
    12    35    36   ar
    13    36    37   ar
    14    37    38    1
    15    37    39   ar
    16    39    40   ar
    17    31    32    1
    18    24     1    1
    19     1     2   am
    20     2     3    2
    21     2     4   am
    22     4     7    1
    23     7     8   ar
    24     8     9   ar
    25     9    13    1
    26    13    14   ar
    27    14    15   ar
    28    15    16   ar
    29    16    17   ar
    30     9    10   ar
    31    10    11   ar
    32    11    18    1
    33    18    19   ar
    34    19    20   ar
    35    20    21   ar
    36    21    22   ar
    37    11    12   ar
    38    32    27    1
    39    12     7   ar
    40    40    34   ar
    41    17    13   ar
    42    22    18   ar
    43     1     5    1
    44     4     6    1
@<TRIPOS>MOLECULE
*****
 40 44 0 0 0
SMALL
GASTEIGER

@<TRIPOS>ATOM
      1 N          -1.5419    3.0480   20.1796 N.am    1  UNL1       -0.2903
      2 C          -0.2987    2.3573   20.6564 C.2     1  UNL1        0.3044
      3 O           0.9015    3.1639   21.0548 O.2     1  UNL1       -0.2525
      4 N          -0.2557    0.8599   20.7347 N.am    1  UNL1       -0.2682
      5 H          -2.3297    2.5185   19.9181 H       1  UNL1        0.1509
      6 H          -1.0435    0.3305   20.4732 H       1  UNL1        0.1564
      7 C           0.9875    0.1693   21.2114 C.ar    1  UNL1        0.0546
      8 C           1.8101   -0.6404   20.2533 C.ar    1  UNL1        0.0340
      9 C           3.0533   -1.3310   20.7301 C.ar    1  UNL1        0.0872
     10 C           3.4740   -1.2122   22.1649 C.ar    1  UNL1        0.0385
     11 C           2.6514   -0.4026   23.1231 C.ar    1  UNL1        0.0872
     12 C           1.4082    0.2881   22.6463 C.ar    1  UNL1        0.0340
     13 N           3.8758   -2.1406   19.7719 N.ar    1  UNL1       -0.2088
     14 C           4.0438   -3.6310   19.7951 C.ar    1  UNL1        0.1245
     15 C           4.9466   -4.0135   18.6599 C.ar    1  UNL1        0.1445
     16 N           5.3366   -2.7595   17.9350 N.ar    1  UNL1       -0.1268
     17 N           4.6747   -1.6019   18.6223 N.ar    1  UNL1       -0.0595
     18 N           3.0721   -0.2838   24.5580 N.ar    1  UNL1       -0.2088
     19 C           2.8248    0.8930   25.4547 C.ar    1  UNL1        0.1245
     20 C           3.4138    0.5832   26.7990 C.ar    1  UNL1        0.1445
     21 N           4.0252   -0.7850   26.7331 N.ar    1  UNL1       -0.1268
     22 N           3.8140   -1.3208   25.3481 N.ar    1  UNL1       -0.0595
     23 C          -1.3111    5.2364   18.7984 C.3     1  UNL1        0.0214
     24 C          -1.5849    4.5453   20.1013 C.3     1  UNL1        0.0745
     25 C          -1.9017    5.3516   21.3259 C.3     1  UNL1        0.0369
     26 C          -3.1499    5.0684   22.1081 C.3     1  UNL1        0.0738
     27 N          -3.0535    4.5524   23.5133 N.3     1  UNL1       -0.2726
     28 C          -4.0646    4.9738   24.5380 C.3     1  UNL1        0.0721
     29 C          -3.9682    4.4577   25.9431 C.3     1  UNL1        0.0174
     30 C          -2.8607    3.5202   26.3235 C.3     1  UNL1        0.0031
     31 C          -1.8497    3.0988   25.2987 C.3     1  UNL1        0.0204
     32 C          -1.9461    3.6149   23.8936 C.3     1  UNL1        0.0724
     33 C          -0.7423    2.1613   25.6791 C.3     1  UNL1        0.0277
     34 C          -0.3298    2.0312   27.1154 C.ar    1  UNL1       -0.0220
     35 C          -0.8135    0.8699   27.9324 C.ar    1  UNL1       -0.0020
     36 C          -0.4011    0.7398   29.3686 C.ar    1  UNL1        0.0293
     37 C           0.4950    1.7710   29.9880 C.ar    1  UNL1        0.1401
     38 F           0.9075    1.6409   31.4244 F       1  UNL1       -0.2042
     39 C           0.9787    2.9323   29.1711 C.ar    1  UNL1        0.0293
     40 C           0.5663    3.0624   27.7347 C.ar    1  UNL1       -0.0020
@<TRIPOS>BOND
     1    24    23    1
     2    24    25    1
     3    25    26    1
     4    26    27    1
     5    27    28    1
     6    28    29    1
     7    29    30    1
     8    30    31    1
     9    31    33    1
    10    33    34    1
    11    34    35   ar
    12    35    36   ar
    13    36    37   ar
    14    37    38    1
    15    37    39   ar
    16    39    40   ar
    17    31    32    1
    18    24     1    1
    19     1     2   am
    20     2     3    2
    21     2     4   am
    22     4     7    1
    23     7     8   ar
    24     8     9   ar
    25     9    13    1
    26    13    14   ar
    27    14    15   ar
    28    15    16   ar
    29    16    17   ar
    30     9    10   ar
    31    10    11   ar
    32    11    18    1
    33    18    19   ar
    34    19    20   ar
    35    20    21   ar
    36    21    22   ar
    37    11    12   ar
    38    32    27    1
    39    12     7   ar
    40    40    34   ar
    41    17    13   ar
    42    22    18   ar
    43     1     5    1
    44     4     6    1
@<TRIPOS>MOLECULE
*****
 40 44 0 0 0
SMALL
GASTEIGER

@<TRIPOS>ATOM
      1 N           4.4307    0.1095   25.6408 N.am    1  UNL1       -0.2903
      2 C           4.6303   -0.8222   26.7993 C.2     1  UNL1        0.3044
      3 O           3.5270   -1.7497   27.2145 O.2     1  UNL1       -0.2525
      4 N           5.9332   -0.8264   27.5426 N.am    1  UNL1       -0.2682
      5 H           5.1549    0.7182   25.3683 H       1  UNL1        0.1509
      6 H           6.6573   -0.2176   27.2701 H       1  UNL1        0.1564
      7 C           6.1327   -1.7581   28.7011 C.ar    1  UNL1        0.0546
      8 C           5.5985   -1.3962   30.0553 C.ar    1  UNL1        0.0340
      9 C           5.7980   -2.3279   31.2138 C.ar    1  UNL1        0.0872
     10 C           6.5318   -3.6214   31.0181 C.ar    1  UNL1        0.0385
     11 C           7.0660   -3.9833   29.6641 C.ar    1  UNL1        0.0872
     12 C           6.8665   -3.0516   28.5055 C.ar    1  UNL1        0.0340
     13 N           5.2638   -1.9660   32.5679 N.ar    1  UNL1       -0.2088
     14 C           5.8825   -0.9946   33.5290 C.ar    1  UNL1        0.1245
     15 C           5.0182   -0.9401   34.7538 C.ar    1  UNL1        0.1445
     16 N           3.8653   -1.8778   34.5496 N.ar    1  UNL1       -0.1268
     17 N           4.0171   -2.5118   33.1986 N.ar    1  UNL1       -0.0595
     18 N           7.7997   -5.2769   29.4684 N.ar    1  UNL1       -0.2088
     19 C           8.9598   -5.7648   30.2849 C.ar    1  UNL1        0.1245
     20 C           9.3792   -7.0992   29.7430 C.ar    1  UNL1        0.1445
     21 N           8.4785   -7.4360   28.5918 N.ar    1  UNL1       -0.1268
     22 N           7.5024   -6.3098   28.4221 N.ar    1  UNL1       -0.0595
     23 C           1.9840    0.9475   25.3937 C.3     1  UNL1        0.0214
     24 C           3.1279    0.1137   24.8975 C.3     1  UNL1        0.0745
     25 C           2.9689   -0.7160   23.6580 C.3     1  UNL1        0.0369
     26 C           4.0854   -1.6096   23.2053 C.3     1  UNL1        0.0738
     27 N           4.0740   -2.1800   21.8180 N.3     1  UNL1       -0.2726
     28 C           4.2929   -3.6492   21.6094 C.3     1  UNL1        0.0721
     29 C           4.2815   -4.2196   20.2221 C.3     1  UNL1        0.0174
     30 C           4.0512   -3.3208   19.0435 C.3     1  UNL1        0.0031
     31 C           3.8323   -1.8517   19.2521 C.3     1  UNL1        0.0204
     32 C           3.8437   -1.2813   20.6394 C.3     1  UNL1        0.0724
     33 C           3.6019   -0.9529   18.0735 C.3     1  UNL1        0.0277
     34 C           2.9479    0.3832   18.2657 C.ar    1  UNL1       -0.0220
     35 C           1.4536    0.4813   18.3523 C.ar    1  UNL1       -0.0020
     36 C           0.7995    1.8175   18.5445 C.ar    1  UNL1        0.0293
     37 C           1.6398    3.0555   18.6501 C.ar    1  UNL1        0.1401
     38 F           0.9857    4.3917   18.8423 F       1  UNL1       -0.2042
     39 C           3.1340    2.9575   18.5635 C.ar    1  UNL1        0.0293
     40 C           3.7881    1.6213   18.3713 C.ar    1  UNL1       -0.0020
@<TRIPOS>BOND
     1    24    23    1
     2    24    25    1
     3    25    26    1
     4    26    27    1
     5    27    28    1
     6    28    29    1
     7    29    30    1
     8    30    31    1
     9    31    33    1
    10    33    34    1
    11    34    35   ar
    12    35    36   ar
    13    36    37   ar
    14    37    38    1
    15    37    39   ar
    16    39    40   ar
    17    31    32    1
    18    24     1    1
    19     1     2   am
    20     2     3    2
    21     2     4   am
    22     4     7    1
    23     7     8   ar
    24     8     9   ar
    25     9    13    1
    26    13    14   ar
    27    14    15   ar
    28    15    16   ar
    29    16    17   ar
    30     9    10   ar
    31    10    11   ar
    32    11    18    1
    33    18    19   ar
    34    19    20   ar
    35    20    21   ar
    36    21    22   ar
    37    11    12   ar
    38    32    27    1
    39    12     7   ar
    40    40    34   ar
    41    17    13   ar
    42    22    18   ar
    43     1     5    1
    44     4     6    1
