@<TRIPOS>MOLECULE
*****
 24 26 0 0 0
SMALL
GASTEIGER

@<TRIPOS>ATOM
      1 C          -7.2357  -16.7284   23.8131 C.ar    1  UNL1        0.2035
      2 N          -6.2089  -17.4144   22.9616 N.ar    1  UNL1       -0.2133
      3 C          -4.7515  -17.1211   23.1616 C.ar    1  UNL1        0.1065
      4 C          -4.3209  -16.1419   24.2130 C.ar    1  UNL1        0.0815
      5 C          -5.3477  -15.4559   25.0645 C.ar    1  UNL1        0.2646
      6 O          -4.9171  -14.4766   26.1161 O.2     1  UNL1       -0.2668
      7 N          -6.8051  -15.7492   24.8646 N.ar    1  UNL1       -0.2667
      8 C          -7.8319  -15.0631   25.7161 C.3     1  UNL1        0.1363
      9 N         -11.6079  -17.6081   23.2132 N.3     1  UNL1       -0.2711
     10 C         -10.8433  -18.3101   24.2960 C.3     1  UNL1        0.0939
     11 C          -9.3859  -18.0168   24.4960 C.3     1  UNL1        0.1108
     12 N          -8.6931  -17.0216   23.6131 N.pl3   1  UNL1       -0.2783
     13 C          -9.4577  -16.3197   22.5303 C.3     1  UNL1        0.0915
     14 C          -8.7649  -15.3244   21.6473 C.3     1  UNL1        0.0230
     15 C         -10.9151  -16.6129   22.3303 C.3     1  UNL1        0.0921
     16 C         -13.6304  -17.9836   21.6262 C.3     1  UNL1        0.0173
     17 C         -13.0653  -17.9014   23.0132 C.3     1  UNL1        0.0577
     18 C         -13.9577  -18.1124   24.2002 C.3     1  UNL1        0.0173
     19 C          -3.7247  -17.8072   22.3100 C.ar    1  UNL1        0.1024
     20 C          -3.7275  -19.3024   22.1901 C.ar    1  UNL1        0.0414
     21 C          -2.7007  -19.9884   21.3385 C.ar    1  UNL1        0.1023
     22 N          -1.6711  -19.1792   20.6070 N.ar    1  UNL1       -0.2224
     23 C          -1.6684  -17.6840   20.7270 C.ar    1  UNL1        0.1989
     24 N          -2.6951  -16.9980   21.5785 N.ar    1  UNL1       -0.2224
@<TRIPOS>BOND
     1    16    17    1
     2    17    18    1
     3    17     9    1
     4     9    10    1
     5    10    11    1
     6    11    12    1
     7    12     1    1
     8     1     2   ar
     9     2     3   ar
    10     3    19    1
    11    19    20   ar
    12    20    21   ar
    13    21    22   ar
    14    22    23   ar
    15    23    24   ar
    16     3     4   ar
    17     4     5   ar
    18     5     6    2
    19     5     7   ar
    20     7     8    1
    21    12    13    1
    22    13    14    1
    23    13    15    1
    24    15     9    1
    25     7     1   ar
    26    24    19   ar
@<TRIPOS>MOLECULE
*****
 24 26 0 0 0
SMALL
GASTEIGER

@<TRIPOS>ATOM
      1 C          -7.3325  -16.7391   23.7039 C.ar    1  UNL1        0.2035
      2 N          -6.3086  -17.4904   22.9058 N.ar    1  UNL1       -0.2133
      3 C          -4.8483  -17.2167   23.1120 C.ar    1  UNL1        0.1065
      4 C          -4.4119  -16.1916   24.1164 C.ar    1  UNL1        0.0815
      5 C          -5.4358  -15.4403   24.9145 C.ar    1  UNL1        0.2646
      6 O          -4.9995  -14.4152   25.9189 O.2     1  UNL1       -0.2668
      7 N          -6.8962  -15.7140   24.7082 N.ar    1  UNL1       -0.2667
      8 C          -7.9201  -14.9626   25.5064 C.3     1  UNL1        0.1363
      9 N         -11.7135  -17.5603   23.0850 N.3     1  UNL1       -0.2711
     10 C         -10.9306  -16.8334   22.0321 C.3     1  UNL1        0.0939
     11 C          -9.4703  -16.5596   22.2384 C.3     1  UNL1        0.1108
     12 N          -8.7928  -17.0128   23.4976 N.pl3   1  UNL1       -0.2783
     13 C          -9.5757  -17.7397   24.5505 C.3     1  UNL1        0.0915
     14 C          -8.8983  -18.1929   25.8098 C.3     1  UNL1        0.0230
     15 C         -11.0360  -18.0134   24.3442 C.3     1  UNL1        0.0921
     16 C         -14.0670  -18.0692   24.0606 C.3     1  UNL1        0.0173
     17 C         -13.1738  -17.8340   22.8788 C.3     1  UNL1        0.0577
     18 C         -13.7409  -17.8726   21.4907 C.3     1  UNL1        0.0173
     19 C          -3.8243  -17.9680   22.3139 C.ar    1  UNL1        0.1024
     20 C          -2.4905  -17.3442   22.0282 C.ar    1  UNL1        0.0414
     21 C          -1.4665  -18.0955   21.2300 C.ar    1  UNL1        0.1023
     22 N          -1.7765  -19.4708   20.7176 N.ar    1  UNL1       -0.2224
     23 C          -3.1103  -20.0947   21.0033 C.ar    1  UNL1        0.1989
     24 N          -4.1342  -19.3433   21.8015 N.ar    1  UNL1       -0.2224
@<TRIPOS>BOND
     1    16    17    1
     2    17    18    1
     3    17     9    1
     4     9    10    1
     5    10    11    1
     6    11    12    1
     7    12     1    1
     8     1     2   ar
     9     2     3   ar
    10     3    19    1
    11    19    20   ar
    12    20    21   ar
    13    21    22   ar
    14    22    23   ar
    15    23    24   ar
    16     3     4   ar
    17     4     5   ar
    18     5     6    2
    19     5     7   ar
    20     7     8    1
    21    12    13    1
    22    13    14    1
    23    13    15    1
    24    15     9    1
    25     7     1   ar
    26    24    19   ar
@<TRIPOS>MOLECULE
*****
 24 26 0 0 0
SMALL
GASTEIGER

@<TRIPOS>ATOM
      1 C          -6.6157  -16.6270   23.7161 C.ar    1  UNL1        0.2035
      2 N          -7.9366  -16.9116   23.0647 N.ar    1  UNL1       -0.2133
      3 C          -9.2126  -16.5861   23.7829 C.ar    1  UNL1        0.1065
      4 C          -9.1678  -15.9761   25.1524 C.ar    1  UNL1        0.0815
      5 C          -7.8470  -15.6915   25.8039 C.ar    1  UNL1        0.2646
      6 O          -7.8022  -15.0814   27.1735 O.2     1  UNL1       -0.2668
      7 N          -6.5709  -16.0170   25.0857 N.ar    1  UNL1       -0.2667
      8 C          -5.2501  -15.7324   25.7372 C.3     1  UNL1        0.1363
      9 N          -2.7876  -17.6035   21.5616 N.3     1  UNL1       -0.2711
     10 C          -2.9322  -16.2932   22.2773 C.3     1  UNL1        0.0939
     11 C          -4.2082  -15.9678   22.9955 C.3     1  UNL1        0.1108
     12 N          -5.3397  -16.9525   22.9980 N.pl3   1  UNL1       -0.2783
     13 C          -5.1951  -18.2628   22.2823 C.3     1  UNL1        0.0915
     14 C          -6.3265  -19.2476   22.2847 C.3     1  UNL1        0.0230
     15 C          -3.9190  -18.5883   21.5641 C.3     1  UNL1        0.0921
     16 C          -1.1596  -19.3571   20.5495 C.3     1  UNL1        0.0173
     17 C          -1.5115  -17.9290   20.8435 C.3     1  UNL1        0.0577
     18 C          -0.5874  -16.8263   20.4193 C.3     1  UNL1        0.0173
     19 C         -10.5335  -16.8707   23.1314 C.ar    1  UNL1        0.1024
     20 C         -11.4807  -17.8531   23.7541 C.ar    1  UNL1        0.0414
     21 C         -12.8016  -18.1377   23.1026 C.ar    1  UNL1        0.1023
     22 N         -13.1752  -17.4399   21.8284 N.ar    1  UNL1       -0.2224
     23 C         -12.2279  -16.4576   21.2057 C.ar    1  UNL1        0.1989
     24 N         -10.9071  -16.1730   21.8572 N.ar    1  UNL1       -0.2224
@<TRIPOS>BOND
     1    16    17    1
     2    17    18    1
     3    17     9    1
     4     9    10    1
     5    10    11    1
     6    11    12    1
     7    12     1    1
     8     1     2   ar
     9     2     3   ar
    10     3    19    1
    11    19    20   ar
    12    20    21   ar
    13    21    22   ar
    14    22    23   ar
    15    23    24   ar
    16     3     4   ar
    17     4     5   ar
    18     5     6    2
    19     5     7   ar
    20     7     8    1
    21    12    13    1
    22    13    14    1
    23    13    15    1
    24    15     9    1
    25     7     1   ar
    26    24    19   ar
@<TRIPOS>MOLECULE
*****
 24 26 0 0 0
SMALL
GASTEIGER

@<TRIPOS>ATOM
      1 C           2.7928    2.4775   33.9164 C.ar    1  UNL1        0.2035
      2 N           2.1939    2.0307   35.2170 N.ar    1  UNL1       -0.2133
      3 C           2.7600    2.5287   36.5138 C.ar    1  UNL1        0.1065
      4 C           3.9250    3.4735   36.5099 C.ar    1  UNL1        0.0815
      5 C           4.5239    3.9204   35.2093 C.ar    1  UNL1        0.2646
      6 O           5.6889    4.8652   35.2054 O.2     1  UNL1       -0.2668
      7 N           3.9578    3.4223   33.9125 N.ar    1  UNL1       -0.2667
      8 C           4.5568    3.8692   32.6119 C.3     1  UNL1        0.1363
      9 N           1.0946    0.9835   30.0262 N.3     1  UNL1       -0.2711
     10 C           2.2211    0.2447   30.6857 C.3     1  UNL1        0.0939
     11 C           2.7872    0.7427   31.9824 C.3     1  UNL1        0.1108
     12 N           2.2267    1.9795   32.6197 N.pl3   1  UNL1       -0.2783
     13 C           1.1002    2.7183   31.9601 C.3     1  UNL1        0.0915
     14 C           0.5397    3.9552   32.5974 C.3     1  UNL1        0.0230
     15 C           0.5341    2.2203   30.6634 C.3     1  UNL1        0.0921
     16 C           1.2209    0.8036   27.4374 C.3     1  UNL1        0.0173
     17 C           0.5285    0.4855   28.7294 C.3     1  UNL1        0.0577
     18 C          -0.7300   -0.3307   28.7247 C.3     1  UNL1        0.0173
     19 C           2.1610    2.0818   37.8144 C.ar    1  UNL1        0.1024
     20 C           2.6936    0.8617   38.5054 C.ar    1  UNL1        0.0414
     21 C           2.0946    0.4148   39.8061 C.ar    1  UNL1        0.1023
     22 N           0.9631    1.1882   40.4156 N.ar    1  UNL1       -0.2224
     23 C           0.4305    2.4084   39.7245 C.ar    1  UNL1        0.1989
     24 N           1.0295    2.8552   38.4240 N.ar    1  UNL1       -0.2224
@<TRIPOS>BOND
     1    16    17    1
     2    17    18    1
     3    17     9    1
     4     9    10    1
     5    10    11    1
     6    11    12    1
     7    12     1    1
     8     1     2   ar
     9     2     3   ar
    10     3    19    1
    11    19    20   ar
    12    20    21   ar
    13    21    22   ar
    14    22    23   ar
    15    23    24   ar
    16     3     4   ar
    17     4     5   ar
    18     5     6    2
    19     5     7   ar
    20     7     8    1
    21    12    13    1
    22    13    14    1
    23    13    15    1
    24    15     9    1
    25     7     1   ar
    26    24    19   ar
@<TRIPOS>MOLECULE
*****
 24 26 0 0 0
SMALL
GASTEIGER

@<TRIPOS>ATOM
      1 C           6.0364   -2.4435   20.9242 C.ar    1  UNL1        0.2035
      2 N           6.1033   -3.3113   22.1458 N.ar    1  UNL1       -0.2133
      3 C           7.3141   -4.1602   22.3974 C.ar    1  UNL1        0.1065
      4 C           8.4580   -4.1412   21.4274 C.ar    1  UNL1        0.0815
      5 C           8.3912   -3.2734   20.2058 C.ar    1  UNL1        0.2646
      6 O           9.5352   -3.2544   19.2357 O.2     1  UNL1       -0.2668
      7 N           7.1804   -2.4245   19.9542 N.ar    1  UNL1       -0.2667
      8 C           7.1135   -1.5567   18.7325 C.3     1  UNL1        0.1363
      9 N           2.4039    0.1032   20.1694 N.3     1  UNL1       -0.2711
     10 C           3.5619    0.6592   20.9439 C.3     1  UNL1        0.0939
     11 C           4.7727   -0.1897   21.1955 C.3     1  UNL1        0.1108
     12 N           4.8256   -1.5946   20.6726 N.pl3   1  UNL1       -0.2783
     13 C           3.6676   -2.1506   19.8981 C.3     1  UNL1        0.0915
     14 C           3.7204   -3.5556   19.3752 C.3     1  UNL1        0.0230
     15 C           2.4568   -1.3017   19.6465 C.3     1  UNL1        0.0921
     16 C           0.9006    1.4498   18.5334 C.3     1  UNL1        0.0173
     17 C           1.1931    0.9521   19.9178 C.3     1  UNL1        0.0577
     18 C           0.2748    1.3032   21.0506 C.3     1  UNL1        0.0173
     19 C           7.3809   -5.0281   23.6191 C.ar    1  UNL1        0.1024
     20 C           6.8532   -4.5216   24.9286 C.ar    1  UNL1        0.0414
     21 C           6.9200   -5.3894   26.1503 C.ar    1  UNL1        0.1023
     22 N           7.5145   -6.7638   26.0623 N.ar    1  UNL1       -0.2224
     23 C           8.0422   -7.2703   24.7527 C.ar    1  UNL1        0.1989
     24 N           7.9754   -6.4024   23.5311 N.ar    1  UNL1       -0.2224
@<TRIPOS>BOND
     1    16    17    1
     2    17    18    1
     3    17     9    1
     4     9    10    1
     5    10    11    1
     6    11    12    1
     7    12     1    1
     8     1     2   ar
     9     2     3   ar
    10     3    19    1
    11    19    20   ar
    12    20    21   ar
    13    21    22   ar
    14    22    23   ar
    15    23    24   ar
    16     3     4   ar
    17     4     5   ar
    18     5     6    2
    19     5     7   ar
    20     7     8    1
    21    12    13    1
    22    13    14    1
    23    13    15    1
    24    15     9    1
    25     7     1   ar
    26    24    19   ar
@<TRIPOS>MOLECULE
*****
 24 26 0 0 0
SMALL
GASTEIGER

@<TRIPOS>ATOM
      1 C          -0.4683    2.3753   21.1395 C.ar    1  UNL1        0.2035
      2 N          -1.8172    2.6217   20.5314 N.ar    1  UNL1       -0.2133
      3 C          -2.8137    3.4881   21.2431 C.ar    1  UNL1        0.1065
      4 C          -2.4613    4.1080   22.5627 C.ar    1  UNL1        0.0815
      5 C          -1.1124    3.8615   23.1707 C.ar    1  UNL1        0.2646
      6 O          -0.7600    4.4815   24.4904 O.2     1  UNL1       -0.2668
      7 N          -0.1159    2.9952   22.4591 N.ar    1  UNL1       -0.2667
      8 C           1.2330    2.7488   23.0672 C.3     1  UNL1        0.1363
      9 N           2.5213   -0.2238   19.0046 N.3     1  UNL1       -0.2711
     10 C           1.5667   -0.8318   19.9891 C.3     1  UNL1        0.0939
     11 C           0.5702    0.0346   20.7007 C.3     1  UNL1        0.1108
     12 N           0.5282    1.5089   20.4279 N.pl3   1  UNL1       -0.2783
     13 C           1.4828    2.1169   19.4434 C.3     1  UNL1        0.0915
     14 C           1.4408    3.5913   19.1705 C.3     1  UNL1        0.0230
     15 C           2.4793    1.2505   18.7318 C.3     1  UNL1        0.0921
     16 C           4.1246   -2.2681   18.9960 C.3     1  UNL1        0.0173
     17 C           3.5178   -1.0902   18.2930 C.3     1  UNL1        0.0577
     18 C           3.9074   -0.7786   16.8785 C.3     1  UNL1        0.0173
     19 C          -4.1626    3.7345   20.6350 C.ar    1  UNL1        0.1024
     20 C          -5.2882    4.2411   21.4871 C.ar    1  UNL1        0.0414
     21 C          -6.6372    4.4875   20.8790 C.ar    1  UNL1        0.1023
     22 N          -6.8604    4.2273   19.4187 N.ar    1  UNL1       -0.2224
     23 C          -5.7347    3.7207   18.5666 C.ar    1  UNL1        0.1989
     24 N          -4.3858    3.4743   19.1747 N.ar    1  UNL1       -0.2224
@<TRIPOS>BOND
     1    16    17    1
     2    17    18    1
     3    17     9    1
     4     9    10    1
     5    10    11    1
     6    11    12    1
     7    12     1    1
     8     1     2   ar
     9     2     3   ar
    10     3    19    1
    11    19    20   ar
    12    20    21   ar
    13    21    22   ar
    14    22    23   ar
    15    23    24   ar
    16     3     4   ar
    17     4     5   ar
    18     5     6    2
    19     5     7   ar
    20     7     8    1
    21    12    13    1
    22    13    14    1
    23    13    15    1
    24    15     9    1
    25     7     1   ar
    26    24    19   ar
@<TRIPOS>MOLECULE
*****
 24 26 0 0 0
SMALL
GASTEIGER

@<TRIPOS>ATOM
      1 C           2.5543    0.9264   23.2011 C.ar    1  UNL1        0.2035
      2 N           1.9580    0.4779   24.5023 N.ar    1  UNL1       -0.2133
      3 C           1.5378    1.4926   25.5240 C.ar    1  UNL1        0.1065
      4 C           1.7138    2.9557   25.2444 C.ar    1  UNL1        0.0815
      5 C           2.3101    3.4042   23.9432 C.ar    1  UNL1        0.2646
      6 O           2.4861    4.8674   23.6636 O.2     1  UNL1       -0.2668
      7 N           2.7304    2.3895   22.9215 N.ar    1  UNL1       -0.2667
      8 C           3.3267    2.8381   21.6203 C.3     1  UNL1        0.1363
      9 N           3.8152   -2.1175   20.1360 N.3     1  UNL1       -0.2711
     10 C           4.7399   -1.7588   21.2612 C.3     1  UNL1        0.0939
     11 C           4.3196   -0.7442   22.2829 C.3     1  UNL1        0.1108
     12 N           2.9746   -0.0882   22.1794 N.pl3   1  UNL1       -0.2783
     13 C           2.0500   -0.4470   21.0541 C.3     1  UNL1        0.0915
     14 C           0.7049    0.2090   20.9505 C.3     1  UNL1        0.0230
     15 C           2.4702   -1.4616   20.0324 C.3     1  UNL1        0.0921
     16 C           3.5491   -4.4645   19.0540 C.3     1  UNL1        0.0173
     17 C           4.2355   -3.1322   19.1143 C.3     1  UNL1        0.0577
     18 C           5.3422   -2.8145   18.1529 C.3     1  UNL1        0.0173
     19 C           0.9414    1.0440   26.8252 C.ar    1  UNL1        0.1024
     20 C          -0.5200    1.2519   27.0917 C.ar    1  UNL1        0.0414
     21 C          -1.1163    0.8033   28.3930 C.ar    1  UNL1        0.1023
     22 N          -0.2512    0.1469   29.4277 N.ar    1  UNL1       -0.2224
     23 C           1.2103   -0.0610   29.1612 C.ar    1  UNL1        0.1989
     24 N           1.8065    0.3876   27.8600 N.ar    1  UNL1       -0.2224
@<TRIPOS>BOND
     1    16    17    1
     2    17    18    1
     3    17     9    1
     4     9    10    1
     5    10    11    1
     6    11    12    1
     7    12     1    1
     8     1     2   ar
     9     2     3   ar
    10     3    19    1
    11    19    20   ar
    12    20    21   ar
    13    21    22   ar
    14    22    23   ar
    15    23    24   ar
    16     3     4   ar
    17     4     5   ar
    18     5     6    2
    19     5     7   ar
    20     7     8    1
    21    12    13    1
    22    13    14    1
    23    13    15    1
    24    15     9    1
    25     7     1   ar
    26    24    19   ar
@<TRIPOS>MOLECULE
*****
 24 26 0 0 0
SMALL
GASTEIGER

@<TRIPOS>ATOM
      1 C           3.0024    2.2273   34.3110 C.ar    1  UNL1        0.2035
      2 N           2.3342    1.8001   35.5841 N.ar    1  UNL1       -0.2133
      3 C           2.7682    2.3895   36.8934 C.ar    1  UNL1        0.1065
      4 C           3.8704    3.4063   36.9295 C.ar    1  UNL1        0.0815
      5 C           4.5386    3.8336   35.6563 C.ar    1  UNL1        0.2646
      6 O           5.6408    4.8504   35.6924 O.2     1  UNL1       -0.2668
      7 N           4.1045    3.2441   34.3471 N.ar    1  UNL1       -0.2667
      8 C           4.7727    3.6715   33.0739 C.3     1  UNL1        0.1363
      9 N           1.7003    0.4589   30.3832 N.3     1  UNL1       -0.2711
     10 C           1.0467    1.7074   30.8970 C.3     1  UNL1        0.0939
     11 C           1.4807    2.2969   32.2063 C.3     1  UNL1        0.1108
     12 N           2.5683    1.6379   33.0017 N.pl3   1  UNL1       -0.2783
     13 C           3.2219    0.3894   32.4879 C.3     1  UNL1        0.0915
     14 C           4.3096   -0.2697   33.2833 C.3     1  UNL1        0.0230
     15 C           2.7879   -0.2001   31.1786 C.3     1  UNL1        0.0921
     16 C           2.2920   -0.6177   28.0940 C.3     1  UNL1        0.0173
     17 C           1.2663   -0.1306   29.0740 C.3     1  UNL1        0.0577
     18 C          -0.1935   -0.2329   28.7447 C.3     1  UNL1        0.0173
     19 C           2.1000    1.9622   38.1666 C.ar    1  UNL1        0.1024
     20 C           1.3639    2.9677   39.0014 C.ar    1  UNL1        0.0414
     21 C           0.6957    2.5404   40.2746 C.ar    1  UNL1        0.1023
     22 N           0.7636    1.1075   40.7129 N.ar    1  UNL1       -0.2224
     23 C           1.4998    0.1019   39.8780 C.ar    1  UNL1        0.1989
     24 N           2.1680    0.5293   38.6049 N.ar    1  UNL1       -0.2224
@<TRIPOS>BOND
     1    16    17    1
     2    17    18    1
     3    17     9    1
     4     9    10    1
     5    10    11    1
     6    11    12    1
     7    12     1    1
     8     1     2   ar
     9     2     3   ar
    10     3    19    1
    11    19    20   ar
    12    20    21   ar
    13    21    22   ar
    14    22    23   ar
    15    23    24   ar
    16     3     4   ar
    17     4     5   ar
    18     5     6    2
    19     5     7   ar
    20     7     8    1
    21    12    13    1
    22    13    14    1
    23    13    15    1
    24    15     9    1
    25     7     1   ar
    26    24    19   ar
@<TRIPOS>MOLECULE
*****
 24 26 0 0 0
SMALL
GASTEIGER

@<TRIPOS>ATOM
      1 C           1.3631    2.2007   19.9402 C.ar    1  UNL1        0.2035
      2 N          -0.1341    2.2167   19.8515 N.ar    1  UNL1       -0.2133
      3 C          -0.8891    3.4802   20.1408 C.ar    1  UNL1        0.1065
      4 C          -0.1469    4.7276   20.5189 C.ar    1  UNL1        0.0815
      5 C           1.3504    4.7116   20.6076 C.ar    1  UNL1        0.2646
      6 O           2.0927    5.9590   20.9857 O.2     1  UNL1       -0.2668
      7 N           2.1054    3.4481   20.3182 N.ar    1  UNL1       -0.2667
      8 C           3.6027    3.4322   20.4069 C.3     1  UNL1        0.1363
      9 N           3.6281   -1.5895   19.0720 N.3     1  UNL1       -0.2711
     10 C           3.3275   -0.6249   17.9635 C.3     1  UNL1        0.0939
     11 C           2.5725    0.6386   18.2528 C.3     1  UNL1        0.1108
     12 N           2.1181    0.9373   19.6508 N.pl3   1  UNL1       -0.2783
     13 C           2.4188   -0.0274   20.7593 C.3     1  UNL1        0.0915
     14 C           1.9644    0.2714   22.1574 C.3     1  UNL1        0.0230
     15 C           3.1738   -1.2908   20.4700 C.3     1  UNL1        0.0921
     16 C           5.7642   -2.7849   18.2015 C.3     1  UNL1        0.0173
     17 C           4.3831   -2.8530   18.7827 C.3     1  UNL1        0.0577
     18 C           3.7570   -4.1844   19.0745 C.3     1  UNL1        0.0173
     19 C          -2.3865    3.4961   20.0521 C.ar    1  UNL1        0.1024
     20 C          -3.0585    3.9735   18.7990 C.ar    1  UNL1        0.0414
     21 C          -4.5559    3.9894   18.7103 C.ar    1  UNL1        0.1023
     22 N          -5.3811    3.5281   19.8748 N.ar    1  UNL1       -0.2224
     23 C          -4.7090    3.0507   21.1280 C.ar    1  UNL1        0.1989
     24 N          -3.2117    3.0347   21.2167 N.ar    1  UNL1       -0.2224
@<TRIPOS>BOND
     1    16    17    1
     2    17    18    1
     3    17     9    1
     4     9    10    1
     5    10    11    1
     6    11    12    1
     7    12     1    1
     8     1     2   ar
     9     2     3   ar
    10     3    19    1
    11    19    20   ar
    12    20    21   ar
    13    21    22   ar
    14    22    23   ar
    15    23    24   ar
    16     3     4   ar
    17     4     5   ar
    18     5     6    2
    19     5     7   ar
    20     7     8    1
    21    12    13    1
    22    13    14    1
    23    13    15    1
    24    15     9    1
    25     7     1   ar
    26    24    19   ar
