@<TRIPOS>MOLECULE
*****
 25 27 0 0 0
SMALL
GASTEIGER

@<TRIPOS>ATOM
      1 C          -6.6400  -19.4434   19.9224 C.ar    1  UNL1        0.3134
      2 N          -7.8433  -18.5885   20.1892 N.ar    1  UNL1       -0.1854
      3 C          -9.0513  -19.3156   19.6769 C.ar    1  UNL1        0.2051
      4 N          -8.5944  -20.6199   19.0937 N.ar    1  UNL1       -0.0582
      5 O          -7.1042  -20.6989   19.2454 O.2     1  UNL1       -0.3279
      6 O          -4.6034  -19.6550   21.5216 O.2     1  UNL1       -0.2649
      7 C          -5.2215  -19.1027   20.2715 C.2     1  UNL1        0.3022
      8 N          -4.4213  -18.2095   19.3705 N.am    1  UNL1       -0.2986
      9 H          -4.8270  -17.8470   18.5500 H       1  UNL1        0.1498
     10 C          -3.0027  -17.8688   19.7196 C.3     1  UNL1        0.0720
     11 C          -2.7149  -16.9096   20.8363 C.3     1  UNL1        0.0196
     12 C          -1.2964  -16.5688   21.1853 C.3     1  UNL1        0.0017
     13 C          -0.1659  -17.1873   20.4176 C.3     1  UNL1        0.0001
     14 C          -0.4537  -18.1465   19.3009 C.3     1  UNL1        0.0017
     15 C          -1.8722  -18.4872   18.9519 C.3     1  UNL1        0.0196
     16 C         -10.4673  -18.8247   19.7374 C.3     1  UNL1        0.2245
     17 S         -11.1685  -18.7183   21.0591 S.O2    1  UNL1        0.0162
     18 O         -11.0554  -20.2031   21.2387 O.2     1  UNL1       -0.1682
     19 O         -11.2816  -17.2334   20.8795 O.2     1  UNL1       -0.1682
     20 C         -11.8696  -18.6119   22.3808 C.ar    1  UNL1        0.1062
     21 C         -11.2077  -19.1270   23.6245 C.ar    1  UNL1        0.0184
     22 C         -11.9089  -19.0206   24.9463 C.ar    1  UNL1        0.0013
     23 C         -13.2718  -18.3991   25.0244 C.ar    1  UNL1        0.0001
     24 C         -13.9337  -17.8841   23.7807 C.ar    1  UNL1        0.0013
     25 C         -13.2326  -17.9905   22.4589 C.ar    1  UNL1        0.0184
@<TRIPOS>BOND
     1     6     7    2
     2     7     8   am
     3     8    10    1
     4    10    11    1
     5    11    12    1
     6    12    13    1
     7    13    14    1
     8    14    15    1
     9     7     1    1
    10     1     2   ar
    11     2     3   ar
    12     3    16    1
    13    16    17    1
    14    17    18    2
    15    17    19    2
    16    17    20    1
    17    20    21   ar
    18    21    22   ar
    19    22    23   ar
    20    23    24   ar
    21    24    25   ar
    22     3     4   ar
    23     4     5   ar
    24    15    10    1
    25     5     1   ar
    26    25    20   ar
    27     8     9    1
@<TRIPOS>MOLECULE
*****
 25 27 0 0 0
SMALL
GASTEIGER

@<TRIPOS>ATOM
      1 C          -7.0807  -15.9437   23.8866 C.ar    1  UNL1        0.3134
      2 N          -5.9790  -16.8744   23.4743 N.ar    1  UNL1       -0.1854
      3 C          -4.6794  -16.2914   23.9446 C.ar    1  UNL1        0.2051
      4 N          -4.9779  -15.0004   24.6476 N.ar    1  UNL1       -0.0582
      5 O          -6.4620  -14.7855   24.6117 O.2     1  UNL1       -0.3279
      6 O          -9.5607  -15.5306   24.5418 O.2     1  UNL1       -0.2649
      7 C          -8.5442  -16.1372   23.6205 C.2     1  UNL1        0.3022
      8 N          -8.9912  -16.9374   22.4332 N.am    1  UNL1       -0.2986
      9 H          -8.3241  -17.3356   21.8285 H       1  UNL1        0.1498
     10 C         -10.4547  -17.1310   22.1671 C.3     1  UNL1        0.0720
     11 C         -11.0940  -16.4761   20.9786 C.3     1  UNL1        0.0196
     12 C         -12.5574  -16.6697   20.7126 C.3     1  UNL1        0.0017
     13 C         -13.3816  -17.5181   21.6350 C.3     1  UNL1        0.0001
     14 C         -12.7424  -18.1730   22.8234 C.3     1  UNL1        0.0017
     15 C         -11.2789  -17.9794   23.0895 C.3     1  UNL1        0.0196
     16 C          -3.3199  -16.8937   23.7466 C.3     1  UNL1        0.2245
     17 S          -2.8327  -17.2071   22.3630 S.O2    1  UNL1        0.0162
     18 O          -2.8333  -18.6700   22.6941 O.2     1  UNL1       -0.1682
     19 O          -2.8321  -15.7441   22.0320 O.2     1  UNL1       -0.1682
     20 C          -2.3454  -17.5204   20.9795 C.ar    1  UNL1        0.1062
     21 C          -3.2266  -18.2723   20.0263 C.ar    1  UNL1        0.0184
     22 C          -2.7394  -18.5856   18.6427 C.ar    1  UNL1        0.0013
     23 C          -1.3710  -18.1473   18.2122 C.ar    1  UNL1        0.0001
     24 C          -0.4898  -17.3954   19.1653 C.ar    1  UNL1        0.0013
     25 C          -0.9771  -17.0820   20.5490 C.ar    1  UNL1        0.0184
@<TRIPOS>BOND
     1     6     7    2
     2     7     8   am
     3     8    10    1
     4    10    11    1
     5    11    12    1
     6    12    13    1
     7    13    14    1
     8    14    15    1
     9     7     1    1
    10     1     2   ar
    11     2     3   ar
    12     3    16    1
    13    16    17    1
    14    17    18    2
    15    17    19    2
    16    17    20    1
    17    20    21   ar
    18    21    22   ar
    19    22    23   ar
    20    23    24   ar
    21    24    25   ar
    22     3     4   ar
    23     4     5   ar
    24    15    10    1
    25     5     1   ar
    26    25    20   ar
    27     8     9    1
@<TRIPOS>MOLECULE
*****
 25 27 0 0 0
SMALL
GASTEIGER

@<TRIPOS>ATOM
      1 C          -8.5898  -19.4171   21.1268 C.ar    1  UNL1        0.3134
      2 N          -7.3668  -20.0926   21.6728 N.ar    1  UNL1       -0.1854
      3 C          -6.2450  -19.8766   20.7006 C.ar    1  UNL1        0.2051
      4 N          -6.7748  -19.0676   19.5539 N.ar    1  UNL1       -0.0582
      5 O          -8.2239  -18.7836   19.8173 O.2     1  UNL1       -0.3279
      6 O         -10.9650  -20.4235   21.4357 O.2     1  UNL1       -0.2649
      7 C          -9.9414  -19.3814   21.7764 C.2     1  UNL1        0.3022
      8 N         -10.2693  -18.3035   22.7666 N.am    1  UNL1       -0.2986
      9 H          -9.5975  -17.6195   22.9902 H       1  UNL1        0.1498
     10 C         -11.6210  -18.2678   23.4163 C.3     1  UNL1        0.0720
     11 C         -12.7904  -17.6812   22.6826 C.3     1  UNL1        0.0196
     12 C         -14.1419  -17.6455   23.3322 C.3     1  UNL1        0.0017
     13 C         -14.3240  -18.1964   24.7155 C.3     1  UNL1        0.0001
     14 C         -13.1546  -18.7829   25.4491 C.3     1  UNL1        0.0017
     15 C         -11.8030  -18.8186   24.7995 C.3     1  UNL1        0.0196
     16 C          -4.8402  -20.3810   20.8491 C.3     1  UNL1        0.2245
     17 S          -3.6872  -19.4254   20.7633 S.O2    1  UNL1        0.0162
     18 O          -3.5487  -19.7240   19.2999 O.2     1  UNL1       -0.1682
     19 O          -3.8258  -19.1268   22.2267 O.2     1  UNL1       -0.1682
     20 C          -2.5342  -18.4698   20.6774 C.ar    1  UNL1        0.1062
     21 C          -2.5723  -17.1782   21.4392 C.ar    1  UNL1        0.0184
     22 C          -1.4193  -16.2225   21.3534 C.ar    1  UNL1        0.0013
     23 C          -0.2282  -16.5586   20.5058 C.ar    1  UNL1        0.0001
     24 C          -0.1901  -17.8502   19.7440 C.ar    1  UNL1        0.0013
     25 C          -1.3431  -18.8059   19.8298 C.ar    1  UNL1        0.0184
@<TRIPOS>BOND
     1     6     7    2
     2     7     8   am
     3     8    10    1
     4    10    11    1
     5    11    12    1
     6    12    13    1
     7    13    14    1
     8    14    15    1
     9     7     1    1
    10     1     2   ar
    11     2     3   ar
    12     3    16    1
    13    16    17    1
    14    17    18    2
    15    17    19    2
    16    17    20    1
    17    20    21   ar
    18    21    22   ar
    19    22    23   ar
    20    23    24   ar
    21    24    25   ar
    22     3     4   ar
    23     4     5   ar
    24    15    10    1
    25     5     1   ar
    26    25    20   ar
    27     8     9    1
@<TRIPOS>MOLECULE
*****
 25 27 0 0 0
SMALL
GASTEIGER

@<TRIPOS>ATOM
      1 C          -5.2883  -15.8147   24.0648 C.ar    1  UNL1        0.3134
      2 N          -6.6767  -16.3732   23.9627 N.ar    1  UNL1       -0.1854
      3 C          -7.4326  -15.9637   25.1921 C.ar    1  UNL1        0.2051
      4 N          -6.5112  -15.1521   26.0538 N.ar    1  UNL1       -0.0582
      5 O          -5.1860  -15.0601   25.3571 O.2     1  UNL1       -0.3279
      6 O          -3.6484  -14.7835   22.3336 O.2     1  UNL1       -0.2649
      7 C          -4.1943  -15.9816   23.0522 C.2     1  UNL1        0.3022
      8 N          -3.6462  -17.3466   22.7584 N.am    1  UNL1       -0.2986
      9 H          -4.0045  -18.1329   23.2301 H       1  UNL1        0.1498
     10 C          -2.5521  -17.5135   21.7458 C.3     1  UNL1        0.0720
     11 C          -2.3983  -18.8146   21.0155 C.3     1  UNL1        0.0196
     12 C          -1.3042  -18.9814   20.0029 C.3     1  UNL1        0.0017
     13 C          -0.3641  -17.8472   19.7208 C.3     1  UNL1        0.0001
     14 C          -0.5179  -16.5461   20.4512 C.3     1  UNL1        0.0017
     15 C          -1.6119  -16.3793   21.4637 C.3     1  UNL1        0.0196
     16 C          -8.8592  -16.3057   25.5047 C.3     1  UNL1        0.2245
     17 S          -9.6933  -17.0380   24.4958 S.O2    1  UNL1        0.0162
     18 O          -9.8467  -15.7731   23.7044 O.2     1  UNL1       -0.1682
     19 O          -9.5399  -18.3030   25.2872 O.2     1  UNL1       -0.1682
     20 C         -10.5274  -17.7703   23.4869 C.ar    1  UNL1        0.1062
     21 C         -11.7294  -17.1060   22.8834 C.ar    1  UNL1        0.0184
     22 C         -12.5635  -17.8384   21.8745 C.ar    1  UNL1        0.0013
     23 C         -12.1957  -19.2349   21.4690 C.ar    1  UNL1        0.0001
     24 C         -10.9938  -19.8992   22.0725 C.ar    1  UNL1        0.0013
     25 C         -10.1596  -19.1669   23.0815 C.ar    1  UNL1        0.0184
@<TRIPOS>BOND
     1     6     7    2
     2     7     8   am
     3     8    10    1
     4    10    11    1
     5    11    12    1
     6    12    13    1
     7    13    14    1
     8    14    15    1
     9     7     1    1
    10     1     2   ar
    11     2     3   ar
    12     3    16    1
    13    16    17    1
    14    17    18    2
    15    17    19    2
    16    17    20    1
    17    20    21   ar
    18    21    22   ar
    19    22    23   ar
    20    23    24   ar
    21    24    25   ar
    22     3     4   ar
    23     4     5   ar
    24    15    10    1
    25     5     1   ar
    26    25    20   ar
    27     8     9    1
@<TRIPOS>MOLECULE
*****
 25 27 0 0 0
SMALL
GASTEIGER

@<TRIPOS>ATOM
      1 C          -7.7546  -19.7202   20.8886 C.ar    1  UNL1        0.3134
      2 N          -6.3188  -19.6977   21.3222 N.ar    1  UNL1       -0.1854
      3 C          -5.5273  -20.5183   20.3473 C.ar    1  UNL1        0.2051
      4 N          -6.4741  -21.0478   19.3112 N.ar    1  UNL1       -0.0582
      5 O          -7.8505  -20.5545   19.6458 O.2     1  UNL1       -0.3279
      6 O          -8.7635  -17.5922   21.9859 O.2     1  UNL1       -0.2649
      7 C          -8.8944  -19.0295   21.5771 C.2     1  UNL1        0.3022
      8 N         -10.1649  -19.7760   21.8568 N.am    1  UNL1       -0.2986
      9 H         -10.2508  -20.7194   21.5885 H       1  UNL1        0.1498
     10 C         -11.3047  -19.0853   22.5452 C.3     1  UNL1        0.0720
     11 C         -11.5130  -19.2695   24.0192 C.3     1  UNL1        0.0196
     12 C         -12.6527  -18.5788   24.7076 C.3     1  UNL1        0.0017
     13 C         -13.5841  -17.7039   23.9220 C.3     1  UNL1        0.0001
     14 C         -13.3758  -17.5198   22.4480 C.3     1  UNL1        0.0017
     15 C         -12.2361  -18.2104   21.7596 C.3     1  UNL1        0.0196
     16 C          -4.0488  -20.7658   20.3993 C.3     1  UNL1        0.2245
     17 S          -3.0971  -19.6092   20.4806 S.O2    1  UNL1        0.0162
     18 O          -2.3540  -20.2984   21.5863 O.2     1  UNL1       -0.1682
     19 O          -3.8403  -18.9201   19.3748 O.2     1  UNL1       -0.1682
     20 C          -2.1455  -18.4527   20.5618 C.ar    1  UNL1        0.1062
     21 C          -0.8439  -18.4987   19.8174 C.ar    1  UNL1        0.0184
     22 C           0.1078  -17.3421   19.8987 C.ar    1  UNL1        0.0013
     23 C          -0.2420  -16.1396   20.7243 C.ar    1  UNL1        0.0001
     24 C          -1.5435  -16.0936   21.4687 C.ar    1  UNL1        0.0013
     25 C          -2.4952  -17.2502   21.3874 C.ar    1  UNL1        0.0184
@<TRIPOS>BOND
     1     6     7    2
     2     7     8   am
     3     8    10    1
     4    10    11    1
     5    11    12    1
     6    12    13    1
     7    13    14    1
     8    14    15    1
     9     7     1    1
    10     1     2   ar
    11     2     3   ar
    12     3    16    1
    13    16    17    1
    14    17    18    2
    15    17    19    2
    16    17    20    1
    17    20    21   ar
    18    21    22   ar
    19    22    23   ar
    20    23    24   ar
    21    24    25   ar
    22     3     4   ar
    23     4     5   ar
    24    15    10    1
    25     5     1   ar
    26    25    20   ar
    27     8     9    1
@<TRIPOS>MOLECULE
*****
 25 27 0 0 0
SMALL
GASTEIGER

@<TRIPOS>ATOM
      1 C           8.1670   -9.1865   27.5508 C.ar    1  UNL1        0.3134
      2 N           7.1639  -10.2903   27.7102 N.ar    1  UNL1       -0.1854
      3 C           7.9128  -11.5620   27.9788 C.ar    1  UNL1        0.2051
      4 N           9.3787  -11.2441   27.9855 N.ar    1  UNL1       -0.0582
      5 O           9.5358   -9.7759   27.7210 O.2     1  UNL1       -0.3279
      6 O           7.3121   -7.3431   25.9319 O.2     1  UNL1       -0.2649
      7 C           7.8559   -7.7461   27.2705 C.2     1  UNL1        0.3022
      8 N           8.0884   -6.7089   28.3288 N.am    1  UNL1       -0.2986
      9 H           8.4453   -6.9735   29.2074 H       1  UNL1        0.1498
     10 C           7.7773   -5.2685   28.0485 C.3     1  UNL1        0.0720
     11 C           8.7784   -4.4103   27.3337 C.3     1  UNL1        0.0196
     12 C           8.4672   -2.9700   27.0534 C.3     1  UNL1        0.0017
     13 C           7.1549   -2.3879   27.4880 C.3     1  UNL1        0.0001
     14 C           6.1537   -3.2461   28.2029 C.3     1  UNL1        0.0017
     15 C           6.4649   -4.6864   28.4832 C.3     1  UNL1        0.0196
     16 C           7.3029  -12.9142   28.2016 C.3     1  UNL1        0.2245
     17 S           5.8115  -13.0638   28.2606 S.O2    1  UNL1        0.0162
     18 O           5.8468  -12.8313   29.7420 O.2     1  UNL1       -0.1682
     19 O           5.7764  -13.2963   26.7791 O.2     1  UNL1       -0.1682
     20 C           4.3202  -13.2133   28.3196 C.ar    1  UNL1        0.1062
     21 C           3.6214  -14.1414   27.3706 C.ar    1  UNL1        0.0184
     22 C           2.1301  -14.2910   27.4296 C.ar    1  UNL1        0.0013
     23 C           1.3375  -13.5126   28.4374 C.ar    1  UNL1        0.0001
     24 C           2.0363  -12.5844   29.3864 C.ar    1  UNL1        0.0013
     25 C           3.5276  -12.4348   29.3274 C.ar    1  UNL1        0.0184
@<TRIPOS>BOND
     1     6     7    2
     2     7     8   am
     3     8    10    1
     4    10    11    1
     5    11    12    1
     6    12    13    1
     7    13    14    1
     8    14    15    1
     9     7     1    1
    10     1     2   ar
    11     2     3   ar
    12     3    16    1
    13    16    17    1
    14    17    18    2
    15    17    19    2
    16    17    20    1
    17    20    21   ar
    18    21    22   ar
    19    22    23   ar
    20    23    24   ar
    21    24    25   ar
    22     3     4   ar
    23     4     5   ar
    24    15    10    1
    25     5     1   ar
    26    25    20   ar
    27     8     9    1
@<TRIPOS>MOLECULE
*****
 25 27 0 0 0
SMALL
GASTEIGER

@<TRIPOS>ATOM
      1 C         -12.3003   -7.1752   17.7234 C.ar    1  UNL1        0.3134
      2 N         -11.9487   -5.7294   17.5336 N.ar    1  UNL1       -0.1854
      3 C         -10.4548   -5.6047   17.5881 C.ar    1  UNL1        0.2051
      4 N          -9.8833   -6.9735   17.8116 N.ar    1  UNL1       -0.0582
      5 O         -11.0239   -7.9440   17.8952 O.2     1  UNL1       -0.3279
      6 O         -14.5423   -7.6761   16.5098 O.2     1  UNL1       -0.2649
      7 C         -13.6854   -7.7510   17.7387 C.2     1  UNL1        0.3022
      8 N         -14.2134   -8.4017   18.9827 N.am    1  UNL1       -0.2986
      9 H         -13.6509   -8.4508   19.7892 H       1  UNL1        0.1498
     10 C         -15.5984   -8.9775   18.9980 C.3     1  UNL1        0.0720
     11 C         -15.8820  -10.2680   18.2881 C.3     1  UNL1        0.0196
     12 C         -17.2670  -10.8438   18.3034 C.3     1  UNL1        0.0017
     13 C         -18.3684  -10.1290   19.0286 C.3     1  UNL1        0.0001
     14 C         -18.0848   -8.8384   19.7386 C.3     1  UNL1        0.0017
     15 C         -16.6999   -8.2627   19.7233 C.3     1  UNL1        0.0196
     16 C          -9.6703   -4.3343   17.4444 C.3     1  UNL1        0.2245
     17 S         -10.3765   -3.0110   17.4581 S.O2    1  UNL1        0.0162
     18 O         -10.6075   -3.1496   18.9336 O.2     1  UNL1       -0.1682
     19 O         -10.1454   -2.8725   15.9825 O.2     1  UNL1       -0.1682
     20 C         -11.0827   -1.6878   17.4718 C.ar    1  UNL1        0.1062
     21 C         -12.0452   -1.3627   18.5755 C.ar    1  UNL1        0.0184
     22 C         -12.7514   -0.0395   18.5892 C.ar    1  UNL1        0.0013
     23 C         -12.4952    0.9587   17.4993 C.ar    1  UNL1        0.0001
     24 C         -11.5327    0.6337   16.3955 C.ar    1  UNL1        0.0013
     25 C         -10.8265   -0.6896   16.3818 C.ar    1  UNL1        0.0184
@<TRIPOS>BOND
     1     6     7    2
     2     7     8   am
     3     8    10    1
     4    10    11    1
     5    11    12    1
     6    12    13    1
     7    13    14    1
     8    14    15    1
     9     7     1    1
    10     1     2   ar
    11     2     3   ar
    12     3    16    1
    13    16    17    1
    14    17    18    2
    15    17    19    2
    16    17    20    1
    17    20    21   ar
    18    21    22   ar
    19    22    23   ar
    20    23    24   ar
    21    24    25   ar
    22     3     4   ar
    23     4     5   ar
    24    15    10    1
    25     5     1   ar
    26    25    20   ar
    27     8     9    1
@<TRIPOS>MOLECULE
*****
 25 27 0 0 0
SMALL
GASTEIGER

@<TRIPOS>ATOM
      1 C           3.7614   -1.3548   31.5740 C.ar    1  UNL1        0.3134
      2 N           5.0010   -1.8715   30.9059 N.ar    1  UNL1       -0.1854
      3 C           5.7512   -2.7053   31.9021 C.ar    1  UNL1        0.2051
      4 N           4.9751   -2.7037   33.1858 N.ar    1  UNL1       -0.0582
      5 O           3.7453   -1.8691   32.9830 O.2     1  UNL1       -0.3279
      6 O           2.1799    0.7030   31.6945 O.2     1  UNL1       -0.2649
      7 C           2.7205   -0.4777   30.9437 C.2     1  UNL1        0.3022
      8 N           2.2201   -0.7814   29.5626 N.am    1  UNL1       -0.2986
      9 H           2.5749   -1.5563   29.0698 H       1  UNL1        0.1498
     10 C           1.1792    0.0957   28.9322 C.3     1  UNL1        0.0720
     11 C          -0.2709   -0.2767   29.0238 C.3     1  UNL1        0.0196
     12 C          -1.3117    0.6004   28.3935 C.3     1  UNL1        0.0017
     13 C          -0.9024    1.8499   27.6715 C.3     1  UNL1        0.0001
     14 C           0.5477    2.2223   27.5799 C.3     1  UNL1        0.0017
     15 C           1.5885    1.3452   28.2103 C.3     1  UNL1        0.0196
     16 C           7.0494   -3.4157   31.6576 C.3     1  UNL1        0.2245
     17 S           7.1829   -4.3554   30.4960 S.O2    1  UNL1        0.0162
     18 O           6.6730   -5.4801   31.3474 O.2     1  UNL1       -0.1682
     19 O           7.6928   -3.2306   29.6447 O.2     1  UNL1       -0.1682
     20 C           7.3164   -5.2951   29.3346 C.ar    1  UNL1        0.1062
     21 C           8.2998   -6.4263   29.3943 C.ar    1  UNL1        0.0184
     22 C           8.4333   -7.3661   28.2327 C.ar    1  UNL1        0.0013
     23 C           7.5835   -7.1746   27.0116 C.ar    1  UNL1        0.0001
     24 C           6.6001   -6.0434   26.9519 C.ar    1  UNL1        0.0013
     25 C           6.4666   -5.1037   28.1135 C.ar    1  UNL1        0.0184
@<TRIPOS>BOND
     1     6     7    2
     2     7     8   am
     3     8    10    1
     4    10    11    1
     5    11    12    1
     6    12    13    1
     7    13    14    1
     8    14    15    1
     9     7     1    1
    10     1     2   ar
    11     2     3   ar
    12     3    16    1
    13    16    17    1
    14    17    18    2
    15    17    19    2
    16    17    20    1
    17    20    21   ar
    18    21    22   ar
    19    22    23   ar
    20    23    24   ar
    21    24    25   ar
    22     3     4   ar
    23     4     5   ar
    24    15    10    1
    25     5     1   ar
    26    25    20   ar
    27     8     9    1
@<TRIPOS>MOLECULE
*****
 25 27 0 0 0
SMALL
GASTEIGER

@<TRIPOS>ATOM
      1 C           6.7262   -2.9878   19.8704 C.ar    1  UNL1        0.3134
      2 N           7.0044   -4.1638   20.7590 N.ar    1  UNL1       -0.1854
      3 C           8.4903   -4.3625   20.8132 C.ar    1  UNL1        0.2051
      4 N           9.1302   -3.3093   19.9580 N.ar    1  UNL1       -0.0582
      5 O           8.0399   -2.4597   19.3753 O.2     1  UNL1       -0.3279
      6 O           4.4562   -3.1991   18.6243 O.2     1  UNL1       -0.2649
      7 C           5.3718   -2.4368   19.5356 C.2     1  UNL1        0.3022
      8 N           4.9330   -1.1234   20.1122 N.am    1  UNL1       -0.2986
      9 H           5.5339   -0.6230   20.7103 H       1  UNL1        0.1498
     10 C           3.5786   -0.5723   19.7774 C.3     1  UNL1        0.0720
     11 C           2.3694   -1.0474   20.5270 C.3     1  UNL1        0.0196
     12 C           1.0151   -0.4963   20.1922 C.3     1  UNL1        0.0017
     13 C           0.8700    0.5299   19.1078 C.3     1  UNL1        0.0001
     14 C           2.0792    1.0049   18.3582 C.3     1  UNL1        0.0017
     15 C           3.4335    0.4539   18.6930 C.3     1  UNL1        0.0196
     16 C           9.2099   -5.4273   21.5867 C.3     1  UNL1        0.2245
     17 S           8.7110   -5.8375   22.9405 S.O2    1  UNL1        0.0162
     18 O           8.9133   -4.4375   23.4392 O.2     1  UNL1       -0.1682
     19 O           8.5086   -7.2376   22.4417 O.2     1  UNL1       -0.1682
     20 C           8.2121   -6.2477   24.2943 C.ar    1  UNL1        0.1062
     21 C           8.5306   -7.6125   24.8291 C.ar    1  UNL1        0.0184
     22 C           8.0317   -8.0227   26.1830 C.ar    1  UNL1        0.0013
     23 C           7.2144   -7.0681   27.0020 C.ar    1  UNL1        0.0001
     24 C           6.8960   -5.7032   26.4672 C.ar    1  UNL1        0.0013
     25 C           7.3949   -5.2931   25.1133 C.ar    1  UNL1        0.0184
@<TRIPOS>BOND
     1     6     7    2
     2     7     8   am
     3     8    10    1
     4    10    11    1
     5    11    12    1
     6    12    13    1
     7    13    14    1
     8    14    15    1
     9     7     1    1
    10     1     2   ar
    11     2     3   ar
    12     3    16    1
    13    16    17    1
    14    17    18    2
    15    17    19    2
    16    17    20    1
    17    20    21   ar
    18    21    22   ar
    19    22    23   ar
    20    23    24   ar
    21    24    25   ar
    22     3     4   ar
    23     4     5   ar
    24    15    10    1
    25     5     1   ar
    26    25    20   ar
    27     8     9    1
