@<TRIPOS>MOLECULE
*****
 25 26 0 0 0
SMALL
GASTEIGER

@<TRIPOS>ATOM
      1 C         -10.1689  -18.1632   23.3786 C.ar    1  UNL1        0.1386
      2 C          -9.7629  -19.6046   23.2915 C.ar    1  UNL1        0.0369
      3 C          -8.4232  -19.9736   22.7265 C.ar    1  UNL1        0.0031
      4 C          -7.4896  -18.9012   22.2486 C.ar    1  UNL1        0.0011
      5 C          -7.8956  -17.4599   22.3357 C.ar    1  UNL1        0.0031
      6 C          -9.2353  -17.0909   22.9007 C.ar    1  UNL1        0.0369
      7 C          -6.1500  -19.2703   21.6836 C.ar    1  UNL1        0.0136
      8 C          -4.9003  -18.6905   22.2769 C.ar    1  UNL1        0.0380
      9 C          -3.5606  -19.0595   21.7120 C.ar    1  UNL1        0.1469
     10 C          -3.4707  -20.0083   20.5537 C.ar    1  UNL1        0.0380
     11 C          -4.7204  -20.5881   19.9604 C.ar    1  UNL1        0.0145
     12 C          -6.0600  -20.2191   20.5254 C.ar    1  UNL1        0.0578
     13 CL         -7.3098  -20.7989   19.9320 Cl      1  UNL1       -0.0822
     14 O          -2.3109  -18.4796   22.3053 O.3     1  UNL1       -0.4045
     15 C          -1.7392  -17.2072   21.7539 C.3     1  UNL1        0.5753
     16 F          -1.1676  -15.9347   21.2025 F       1  UNL1       -0.1328
     17 F          -2.6577  -16.4129   22.6344 F       1  UNL1       -0.1328
     18 F          -0.8207  -18.0015   20.8733 F       1  UNL1       -0.1328
     19 O         -11.5085  -17.7942   23.9435 O.3     1  UNL1       -0.4755
     20 C         -12.7358  -17.8888   23.0864 C.3     1  UNL1        0.2058
     21 C         -12.6144  -17.8230   21.5928 C.3     1  UNL1        0.0532
     22 C         -12.2982  -16.5188   20.9227 C.3     1  UNL1        0.0455
     23 O         -11.0508  -15.2038   19.0613 O.co2   1  UNL1       -0.5492
     24 C         -11.2381  -16.4575   19.8633 C.2     1  UNL1        0.0505
     25 O         -10.3653  -17.6499   19.6058 O.co2   1  UNL1       -0.5492
@<TRIPOS>UNITY_ATOM_ATTR
23 1
charge -1
@<TRIPOS>BOND
     1    23    24   ar
     2    24    25   ar
     3    24    22    1
     4    22    21    1
     5    21    20    1
     6    20    19    1
     7    19     1    1
     8     1     2   ar
     9     2     3   ar
    10     3     4   ar
    11     4     7    1
    12     7     8   ar
    13     8     9   ar
    14     9    14    1
    15    14    15    1
    16    15    16    1
    17    15    17    1
    18    15    18    1
    19     9    10   ar
    20    10    11   ar
    21    11    12   ar
    22    12    13    1
    23     4     5   ar
    24     5     6   ar
    25     6     1   ar
    26    12     7   ar
@<TRIPOS>MOLECULE
*****
 25 26 0 0 0
SMALL
GASTEIGER

@<TRIPOS>ATOM
      1 C          -6.5372  -20.2669   20.6093 C.ar    1  UNL1        0.1386
      2 C          -6.6254  -19.7966   22.0309 C.ar    1  UNL1        0.0369
      3 C          -7.8145  -19.0036   22.4861 C.ar    1  UNL1        0.0031
      4 C          -8.9154  -18.6809   21.5198 C.ar    1  UNL1        0.0011
      5 C          -8.8271  -19.1511   20.0982 C.ar    1  UNL1        0.0031
      6 C          -7.6381  -19.9441   19.6429 C.ar    1  UNL1        0.0369
      7 C         -10.1044  -17.8879   21.9750 C.ar    1  UNL1        0.0136
      8 C         -11.3522  -18.5936   22.4165 C.ar    1  UNL1        0.0380
      9 C         -12.5412  -17.8006   22.8718 C.ar    1  UNL1        0.1469
     10 C         -12.4826  -16.3019   22.8855 C.ar    1  UNL1        0.0380
     11 C         -11.2348  -15.5961   22.4440 C.ar    1  UNL1        0.0145
     12 C         -10.0457  -16.3891   21.9887 C.ar    1  UNL1        0.0578
     13 CL         -8.7979  -15.6833   21.5472 Cl      1  UNL1       -0.0822
     14 O         -13.7890  -18.5065   23.3133 O.3     1  UNL1       -0.4045
     15 C         -14.1464  -18.5578   24.7692 C.3     1  UNL1        0.5753
     16 F         -14.5038  -18.6092   26.2251 F       1  UNL1       -0.1328
     17 F         -12.6898  -18.5511   25.1270 F       1  UNL1       -0.1328
     18 F         -15.6031  -18.5645   24.4113 F       1  UNL1       -0.1328
     19 O          -5.3481  -21.0599   20.1540 O.3     1  UNL1       -0.4755
     20 C          -4.0230  -20.3830   19.9648 C.3     1  UNL1        0.2058
     21 C          -3.9680  -18.9623   19.4868 C.3     1  UNL1        0.0532
     22 C          -2.7975  -18.0952   19.8450 C.3     1  UNL1        0.0455
     23 O          -0.3017  -18.8120   19.7585 O.co2   1  UNL1       -0.5492
     24 C          -1.5948  -18.6962   20.5100 C.2     1  UNL1        0.0505
     25 O          -1.6850  -19.1812   21.9265 O.co2   1  UNL1       -0.5492
@<TRIPOS>UNITY_ATOM_ATTR
23 1
charge -1
@<TRIPOS>BOND
     1    23    24   ar
     2    24    25   ar
     3    24    22    1
     4    22    21    1
     5    21    20    1
     6    20    19    1
     7    19     1    1
     8     1     2   ar
     9     2     3   ar
    10     3     4   ar
    11     4     7    1
    12     7     8   ar
    13     8     9   ar
    14     9    14    1
    15    14    15    1
    16    15    16    1
    17    15    17    1
    18    15    18    1
    19     9    10   ar
    20    10    11   ar
    21    11    12   ar
    22    12    13    1
    23     4     5   ar
    24     5     6   ar
    25     6     1   ar
    26    12     7   ar
@<TRIPOS>MOLECULE
*****
 25 26 0 0 0
SMALL
GASTEIGER

@<TRIPOS>ATOM
      1 C          -4.5618  -19.8106   21.2176 C.ar    1  UNL1        0.1386
      2 C          -4.8009  -18.7952   22.2955 C.ar    1  UNL1        0.0369
      3 C          -6.2026  -18.4116   22.6669 C.ar    1  UNL1        0.0031
      4 C          -7.3653  -19.0433   21.9604 C.ar    1  UNL1        0.0011
      5 C          -7.1262  -20.0586   20.8825 C.ar    1  UNL1        0.0031
      6 C          -5.7244  -20.4423   20.5112 C.ar    1  UNL1        0.0369
      7 C          -8.7670  -18.6596   22.3318 C.ar    1  UNL1        0.0136
      8 C          -9.3807  -17.4160   21.7600 C.ar    1  UNL1        0.0380
      9 C         -10.7824  -17.0324   22.1314 C.ar    1  UNL1        0.1469
     10 C         -11.5705  -17.8922   23.0745 C.ar    1  UNL1        0.0380
     11 C         -10.9568  -19.1358   23.6462 C.ar    1  UNL1        0.0145
     12 C          -9.5551  -19.5195   23.2749 C.ar    1  UNL1        0.0578
     13 CL         -8.9414  -20.7631   23.8467 Cl      1  UNL1       -0.0822
     14 O         -11.3961  -15.7887   21.5596 O.3     1  UNL1       -0.4045
     15 C         -11.8299  -15.7582   20.1241 C.3     1  UNL1        0.5753
     16 F         -12.2638  -15.7277   18.6885 F       1  UNL1       -0.1328
     17 F         -13.1019  -16.4621   20.4935 F       1  UNL1       -0.1328
     18 F         -10.5580  -15.0543   19.7546 F       1  UNL1       -0.1328
     19 O          -3.1601  -20.1943   20.8463 O.3     1  UNL1       -0.4755
     20 C          -1.9974  -19.5630   21.5531 C.3     1  UNL1        0.2058
     21 C          -1.4770  -18.2313   21.0994 C.3     1  UNL1        0.0532
     22 C          -0.9075  -18.0791   19.7200 C.3     1  UNL1        0.0455
     23 O          -1.2945  -17.8195   17.1640 O.co2   1  UNL1       -0.5492
     24 C          -1.8076  -17.7333   18.5709 C.2     1  UNL1        0.0505
     25 O          -3.2207  -17.3014   18.8288 O.co2   1  UNL1       -0.5492
@<TRIPOS>UNITY_ATOM_ATTR
23 1
charge -1
@<TRIPOS>BOND
     1    23    24   ar
     2    24    25   ar
     3    24    22    1
     4    22    21    1
     5    21    20    1
     6    20    19    1
     7    19     1    1
     8     1     2   ar
     9     2     3   ar
    10     3     4   ar
    11     4     7    1
    12     7     8   ar
    13     8     9   ar
    14     9    14    1
    15    14    15    1
    16    15    16    1
    17    15    17    1
    18    15    18    1
    19     9    10   ar
    20    10    11   ar
    21    11    12   ar
    22    12    13    1
    23     4     5   ar
    24     5     6   ar
    25     6     1   ar
    26    12     7   ar
@<TRIPOS>MOLECULE
*****
 25 26 0 0 0
SMALL
GASTEIGER

@<TRIPOS>ATOM
      1 C          -4.1395  -19.7355   21.3776 C.ar    1  UNL1        0.1386
      2 C          -4.9855  -20.4625   20.3747 C.ar    1  UNL1        0.0369
      3 C          -6.4614  -20.2027   20.3095 C.ar    1  UNL1        0.0031
      4 C          -7.0914  -19.2160   21.2473 C.ar    1  UNL1        0.0011
      5 C          -6.2455  -18.4890   22.2502 C.ar    1  UNL1        0.0031
      6 C          -4.7695  -18.7488   22.3154 C.ar    1  UNL1        0.0369
      7 C          -8.5673  -18.9563   21.1821 C.ar    1  UNL1        0.0136
      8 C          -9.2723  -18.3373   22.3525 C.ar    1  UNL1        0.0380
      9 C         -10.7482  -18.0776   22.2874 C.ar    1  UNL1        0.1469
     10 C         -11.5191  -18.4368   21.0518 C.ar    1  UNL1        0.0380
     11 C         -10.8141  -19.0558   19.8814 C.ar    1  UNL1        0.0145
     12 C          -9.3382  -19.3155   19.9466 C.ar    1  UNL1        0.0578
     13 CL         -8.6332  -19.9345   18.7761 Cl      1  UNL1       -0.0822
     14 O         -11.4531  -17.4586   23.4579 O.3     1  UNL1       -0.4045
     15 C         -12.8669  -17.8480   23.7734 C.3     1  UNL1        0.5753
     16 F         -14.2808  -18.2374   24.0890 F       1  UNL1       -0.1328
     17 F         -12.3694  -19.0523   24.5164 F       1  UNL1       -0.1328
     18 F         -13.3644  -16.6437   23.0304 F       1  UNL1       -0.1328
     19 O          -2.6636  -19.9952   21.4428 O.3     1  UNL1       -0.4755
     20 C          -1.7356  -18.9277   21.9418 C.3     1  UNL1        0.2058
     21 C          -1.3049  -17.8203   21.0263 C.3     1  UNL1        0.0532
     22 C          -0.9411  -18.1227   19.6028 C.3     1  UNL1        0.0455
     23 O          -1.4045  -17.7841   17.0689 O.co2   1  UNL1       -0.5492
     24 C          -1.8746  -17.7405   18.4927 C.2     1  UNL1        0.0505
     25 O          -3.2783  -17.3146   18.8063 O.co2   1  UNL1       -0.5492
@<TRIPOS>UNITY_ATOM_ATTR
23 1
charge -1
@<TRIPOS>BOND
     1    23    24   ar
     2    24    25   ar
     3    24    22    1
     4    22    21    1
     5    21    20    1
     6    20    19    1
     7    19     1    1
     8     1     2   ar
     9     2     3   ar
    10     3     4   ar
    11     4     7    1
    12     7     8   ar
    13     8     9   ar
    14     9    14    1
    15    14    15    1
    16    15    16    1
    17    15    17    1
    18    15    18    1
    19     9    10   ar
    20    10    11   ar
    21    11    12   ar
    22    12    13    1
    23     4     5   ar
    24     5     6   ar
    25     6     1   ar
    26    12     7   ar
@<TRIPOS>MOLECULE
*****
 25 26 0 0 0
SMALL
GASTEIGER

@<TRIPOS>ATOM
      1 C          -3.6271  -19.9843   21.2471 C.ar    1  UNL1        0.1386
      2 C          -4.3246  -19.1409   22.2728 C.ar    1  UNL1        0.0369
      3 C          -5.8177  -19.0012   22.2395 C.ar    1  UNL1        0.0031
      4 C          -6.6133  -19.7049   21.1804 C.ar    1  UNL1        0.0011
      5 C          -5.9158  -20.5483   20.1547 C.ar    1  UNL1        0.0031
      6 C          -4.4227  -20.6880   20.1881 C.ar    1  UNL1        0.0369
      7 C          -8.1064  -19.5653   21.1470 C.ar    1  UNL1        0.0136
      8 C          -8.8780  -19.4527   22.4284 C.ar    1  UNL1        0.0380
      9 C         -10.3711  -19.3130   22.3950 C.ar    1  UNL1        0.1469
     10 C         -11.0926  -19.2860   21.0803 C.ar    1  UNL1        0.0380
     11 C         -10.3211  -19.3986   19.7989 C.ar    1  UNL1        0.0145
     12 C          -8.8280  -19.5382   19.8323 C.ar    1  UNL1        0.0578
     13 CL         -8.0564  -19.6508   18.5508 Cl      1  UNL1       -0.0822
     14 O         -11.1427  -19.2004   23.6765 O.3     1  UNL1       -0.4045
     15 C         -10.4522  -18.7534   24.9308 C.3     1  UNL1        0.5753
     16 F          -9.7618  -18.3063   26.1852 F       1  UNL1       -0.1328
     17 F         -10.4999  -17.3331   24.4509 F       1  UNL1       -0.1328
     18 F         -10.4046  -20.1737   25.4108 F       1  UNL1       -0.1328
     19 O          -2.1340  -20.1239   21.2805 O.3     1  UNL1       -0.4755
     20 C          -1.2860  -18.9934   21.7834 C.3     1  UNL1        0.2058
     21 C          -1.4994  -17.6046   21.2583 C.3     1  UNL1        0.0532
     22 C          -1.0606  -17.2529   19.8676 C.3     1  UNL1        0.0455
     23 O          -1.3649  -17.9980   17.3973 O.co2   1  UNL1       -0.5492
     24 C          -1.9557  -17.5496   18.7011 C.2     1  UNL1        0.0505
     25 O          -3.4417  -17.3979   18.8384 O.co2   1  UNL1       -0.5492
@<TRIPOS>UNITY_ATOM_ATTR
23 1
charge -1
@<TRIPOS>BOND
     1    23    24   ar
     2    24    25   ar
     3    24    22    1
     4    22    21    1
     5    21    20    1
     6    20    19    1
     7    19     1    1
     8     1     2   ar
     9     2     3   ar
    10     3     4   ar
    11     4     7    1
    12     7     8   ar
    13     8     9   ar
    14     9    14    1
    15    14    15    1
    16    15    16    1
    17    15    17    1
    18    15    18    1
    19     9    10   ar
    20    10    11   ar
    21    11    12   ar
    22    12    13    1
    23     4     5   ar
    24     5     6   ar
    25     6     1   ar
    26    12     7   ar
@<TRIPOS>MOLECULE
*****
 25 26 0 0 0
SMALL
GASTEIGER

@<TRIPOS>ATOM
      1 C          -5.2311  -16.8384   23.4112 C.ar    1  UNL1        0.1386
      2 C          -6.1960  -15.9032   24.0777 C.ar    1  UNL1        0.0369
      3 C          -7.6712  -16.1606   23.9911 C.ar    1  UNL1        0.0031
      4 C          -8.1815  -17.3532   23.2380 C.ar    1  UNL1        0.0011
      5 C          -7.2166  -18.2884   22.5715 C.ar    1  UNL1        0.0031
      6 C          -5.7414  -18.0310   22.6581 C.ar    1  UNL1        0.0369
      7 C          -9.6567  -17.6105   23.1514 C.ar    1  UNL1        0.0136
      8 C         -10.4009  -17.2913   21.8887 C.ar    1  UNL1        0.0380
      9 C         -11.8761  -17.5487   21.8021 C.ar    1  UNL1        0.1469
     10 C         -12.6071  -18.1253   22.9782 C.ar    1  UNL1        0.0380
     11 C         -11.8630  -18.4445   24.2408 C.ar    1  UNL1        0.0145
     12 C         -10.3878  -18.1871   24.3274 C.ar    1  UNL1        0.0578
     13 CL         -9.6436  -18.5063   25.5901 Cl      1  UNL1       -0.0822
     14 O         -12.6203  -17.2295   20.5394 O.3     1  UNL1       -0.4045
     15 C         -12.0692  -16.2170   19.5797 C.3     1  UNL1        0.5753
     16 F         -11.5182  -15.2044   18.6199 F       1  UNL1       -0.1328
     17 F         -13.2053  -15.2924   19.9028 F       1  UNL1       -0.1328
     18 F         -10.9331  -17.1415   19.2566 F       1  UNL1       -0.1328
     19 O          -3.7559  -16.5811   23.4978 O.3     1  UNL1       -0.4755
     20 C          -2.8214  -17.2390   22.5263 C.3     1  UNL1        0.2058
     21 C          -2.1083  -16.4146   21.4959 C.3     1  UNL1        0.0532
     22 C          -1.3380  -17.0877   20.3987 C.3     1  UNL1        0.0455
     23 O          -3.5563  -17.6801   19.1828 O.co2   1  UNL1       -0.5492
     24 C          -2.0575  -17.6204   19.1951 C.2     1  UNL1        0.0505
     25 O          -1.2783  -18.0933   18.0038 O.co2   1  UNL1       -0.5492
@<TRIPOS>UNITY_ATOM_ATTR
23 1
charge -1
@<TRIPOS>BOND
     1    23    24   ar
     2    24    25   ar
     3    24    22    1
     4    22    21    1
     5    21    20    1
     6    20    19    1
     7    19     1    1
     8     1     2   ar
     9     2     3   ar
    10     3     4   ar
    11     4     7    1
    12     7     8   ar
    13     8     9   ar
    14     9    14    1
    15    14    15    1
    16    15    16    1
    17    15    17    1
    18    15    18    1
    19     9    10   ar
    20    10    11   ar
    21    11    12   ar
    22    12    13    1
    23     4     5   ar
    24     5     6   ar
    25     6     1   ar
    26    12     7   ar
@<TRIPOS>MOLECULE
*****
 25 26 0 0 0
SMALL
GASTEIGER

@<TRIPOS>ATOM
      1 C          -4.5832  -17.8369   23.1956 C.ar    1  UNL1        0.1386
      2 C          -5.5904  -16.7669   23.4967 C.ar    1  UNL1        0.0369
      3 C          -7.0145  -16.9319   23.0556 C.ar    1  UNL1        0.0031
      4 C          -7.4315  -18.1668   22.3133 C.ar    1  UNL1        0.0011
      5 C          -6.4243  -19.2367   22.0121 C.ar    1  UNL1        0.0031
      6 C          -5.0002  -19.0718   22.4533 C.ar    1  UNL1        0.0369
      7 C          -8.8556  -18.3317   21.8721 C.ar    1  UNL1        0.0136
      8 C          -9.9690  -17.7711   22.7064 C.ar    1  UNL1        0.0380
      9 C         -11.3931  -17.9360   22.2653 C.ar    1  UNL1        0.1469
     10 C         -11.7039  -18.6616   20.9898 C.ar    1  UNL1        0.0380
     11 C         -10.5906  -19.2222   20.1555 C.ar    1  UNL1        0.0145
     12 C          -9.1665  -19.0573   20.5966 C.ar    1  UNL1        0.0578
     13 CL         -8.0531  -19.6179   19.7622 Cl      1  UNL1       -0.0822
     14 O         -12.5065  -17.3754   23.0997 O.3     1  UNL1       -0.4045
     15 C         -13.0463  -18.1627   24.2567 C.3     1  UNL1        0.5753
     16 F         -13.5862  -18.9500   25.4138 F       1  UNL1       -0.1328
     17 F         -14.4454  -17.8878   23.7910 F       1  UNL1       -0.1328
     18 F         -11.6472  -18.4376   24.7224 F       1  UNL1       -0.1328
     19 O          -3.1591  -17.6720   23.6367 O.3     1  UNL1       -0.4755
     20 C          -2.0448  -17.8138   22.6427 C.3     1  UNL1        0.2058
     21 C          -2.0740  -17.0270   21.3659 C.3     1  UNL1        0.0532
     22 C          -2.3593  -17.7180   20.0655 C.3     1  UNL1        0.0455
     23 O          -0.0069  -18.7701   19.7349 O.co2   1  UNL1       -0.5492
     24 C          -1.2287  -18.1143   19.1629 C.2     1  UNL1        0.0505
     25 O          -1.3200  -17.8550   17.6883 O.co2   1  UNL1       -0.5492
@<TRIPOS>UNITY_ATOM_ATTR
23 1
charge -1
@<TRIPOS>BOND
     1    23    24   ar
     2    24    25   ar
     3    24    22    1
     4    22    21    1
     5    21    20    1
     6    20    19    1
     7    19     1    1
     8     1     2   ar
     9     2     3   ar
    10     3     4   ar
    11     4     7    1
    12     7     8   ar
    13     8     9   ar
    14     9    14    1
    15    14    15    1
    16    15    16    1
    17    15    17    1
    18    15    18    1
    19     9    10   ar
    20    10    11   ar
    21    11    12   ar
    22    12    13    1
    23     4     5   ar
    24     5     6   ar
    25     6     1   ar
    26    12     7   ar
@<TRIPOS>MOLECULE
*****
 25 26 0 0 0
SMALL
GASTEIGER

@<TRIPOS>ATOM
      1 C          -8.7846  -16.0477   25.8008 C.ar    1  UNL1        0.1386
      2 C          -8.5345  -15.3484   24.4976 C.ar    1  UNL1        0.0369
      3 C          -8.7272  -16.0821   23.2036 C.ar    1  UNL1        0.0031
      4 C          -9.1700  -17.5152   23.2127 C.ar    1  UNL1        0.0011
      5 C          -9.4201  -18.2146   24.5159 C.ar    1  UNL1        0.0031
      6 C          -9.2274  -17.4808   25.8099 C.ar    1  UNL1        0.0369
      7 C          -9.3627  -18.2489   21.9187 C.ar    1  UNL1        0.0136
      8 C          -8.2151  -18.9892   21.2982 C.ar    1  UNL1        0.0380
      9 C          -8.4078  -19.7229   20.0041 C.ar    1  UNL1        0.1469
     10 C          -9.7481  -19.7163   19.3306 C.ar    1  UNL1        0.0380
     11 C         -10.8956  -18.9760   19.9511 C.ar    1  UNL1        0.0145
     12 C         -10.7029  -18.2423   21.2451 C.ar    1  UNL1        0.0578
     13 CL        -11.8505  -17.5020   21.8656 Cl      1  UNL1       -0.0822
     14 O          -7.2602  -20.4633   19.3836 O.3     1  UNL1       -0.4045
     15 C          -5.8996  -20.4002   20.0118 C.3     1  UNL1        0.5753
     16 F          -4.5388  -20.3370   20.6400 F       1  UNL1       -0.1328
     17 F          -5.7372  -18.9929   19.5187 F       1  UNL1       -0.1328
     18 F          -6.0619  -21.8074   20.5048 F       1  UNL1       -0.1328
     19 O          -8.5919  -15.3140   27.0948 O.3     1  UNL1       -0.4755
     20 C          -7.2117  -15.1217   27.6496 C.3     1  UNL1        0.2058
     21 C          -6.0321  -15.7355   26.9555 C.3     1  UNL1        0.0532
     22 C          -5.3046  -14.9675   25.8919 C.3     1  UNL1        0.0455
     23 O          -5.1735  -14.8333   23.3006 O.co2   1  UNL1       -0.5492
     24 C          -5.0074  -15.6133   24.5711 C.2     1  UNL1        0.0505
     25 O          -4.5442  -17.0391   24.5207 O.co2   1  UNL1       -0.5492
@<TRIPOS>UNITY_ATOM_ATTR
23 1
charge -1
@<TRIPOS>BOND
     1    23    24   ar
     2    24    25   ar
     3    24    22    1
     4    22    21    1
     5    21    20    1
     6    20    19    1
     7    19     1    1
     8     1     2   ar
     9     2     3   ar
    10     3     4   ar
    11     4     7    1
    12     7     8   ar
    13     8     9   ar
    14     9    14    1
    15    14    15    1
    16    15    16    1
    17    15    17    1
    18    15    18    1
    19     9    10   ar
    20    10    11   ar
    21    11    12   ar
    22    12    13    1
    23     4     5   ar
    24     5     6   ar
    25     6     1   ar
    26    12     7   ar
@<TRIPOS>MOLECULE
*****
 25 26 0 0 0
SMALL
GASTEIGER

@<TRIPOS>ATOM
      1 C          -2.3516  -17.8032   22.1843 C.ar    1  UNL1        0.1386
      2 C          -2.6475  -16.3374   22.3022 C.ar    1  UNL1        0.0369
      3 C          -3.9566  -15.8801   22.8742 C.ar    1  UNL1        0.0031
      4 C          -4.9698  -16.8886   23.3284 C.ar    1  UNL1        0.0011
      5 C          -4.6739  -18.3544   23.2105 C.ar    1  UNL1        0.0031
      6 C          -3.3649  -18.8116   22.6384 C.ar    1  UNL1        0.0369
      7 C          -6.2788  -16.4313   23.9004 C.ar    1  UNL1        0.0136
      8 C          -7.5477  -16.6358   23.1270 C.ar    1  UNL1        0.0380
      9 C          -8.8567  -16.1785   23.6990 C.ar    1  UNL1        0.1469
     10 C          -8.8970  -15.5167   25.0445 C.ar    1  UNL1        0.0380
     11 C          -7.6282  -15.3122   25.8179 C.ar    1  UNL1        0.0145
     12 C          -6.3191  -15.7695   25.2459 C.ar    1  UNL1        0.0578
     13 CL         -5.0502  -15.5649   26.0194 Cl      1  UNL1       -0.0822
     14 O         -10.1256  -16.3831   22.9255 O.3     1  UNL1       -0.4045
     15 C         -11.1489  -17.3669   23.4100 C.3     1  UNL1        0.5753
     16 F         -12.1723  -18.3509   23.8944 F       1  UNL1       -0.1328
     17 F         -10.0523  -18.2861   23.8599 F       1  UNL1       -0.1328
     18 F         -12.2456  -16.4478   22.9600 F       1  UNL1       -0.1328
     19 O          -1.0426  -18.2605   21.6122 O.3     1  UNL1       -0.4755
     20 C          -0.6334  -17.8274   20.2357 C.3     1  UNL1        0.2058
     21 C          -1.4448  -18.2461   19.0456 C.3     1  UNL1        0.0532
     22 C          -2.9013  -17.8953   18.9698 C.3     1  UNL1        0.0455
     23 O          -3.5798  -20.3617   19.4243 O.co2   1  UNL1       -0.5492
     24 C          -3.9375  -18.9062   19.3624 C.2     1  UNL1        0.0505
     25 O          -5.3315  -18.4618   19.6931 O.co2   1  UNL1       -0.5492
@<TRIPOS>UNITY_ATOM_ATTR
23 1
charge -1
@<TRIPOS>BOND
     1    23    24   ar
     2    24    25   ar
     3    24    22    1
     4    22    21    1
     5    21    20    1
     6    20    19    1
     7    19     1    1
     8     1     2   ar
     9     2     3   ar
    10     3     4   ar
    11     4     7    1
    12     7     8   ar
    13     8     9   ar
    14     9    14    1
    15    14    15    1
    16    15    16    1
    17    15    17    1
    18    15    18    1
    19     9    10   ar
    20    10    11   ar
    21    11    12   ar
    22    12    13    1
    23     4     5   ar
    24     5     6   ar
    25     6     1   ar
    26    12     7   ar
