@<TRIPOS>MOLECULE
*****
 30 32 0 0 0
SMALL
GASTEIGER

@<TRIPOS>ATOM
      1 C          -5.7330  -15.6737   23.8053 C.3     1  UNL1        0.1628
      2 O          -6.8497  -16.3880   23.1034 O.3     1  UNL1       -0.3318
      3 C          -8.0698  -16.3079   23.9723 C.3     1  UNL1        0.2430
      4 C          -7.7071  -15.5440   25.2111 C.3     1  UNL1        0.2390
      5 F          -8.6271  -15.2275   26.3528 F       1  UNL1       -0.2298
      6 C          -6.2629  -15.1520   25.1080 C.3     1  UNL1        0.1760
      7 O          -5.4852  -14.3748   26.1283 O.3     1  UNL1       -0.3792
      8 H          -4.5737  -14.2562   25.8185 H       1  UNL1        0.2106
      9 N          -9.4161  -16.8895   23.6575 N.ar    1  UNL1       -0.2692
     10 C         -10.1957  -17.8299   24.5281 C.ar    1  UNL1        0.1816
     11 N         -11.4806  -18.1544   23.8255 N.ar    1  UNL1       -0.2194
     12 C         -11.4952  -17.4146   22.5207 C.ar    1  UNL1        0.1481
     13 C         -12.5054  -17.3517   21.4137 C.ar    1  UNL1        0.1480
     14 N         -13.7814  -18.1335   21.5175 N.pl3   1  UNL1       -0.3413
     15 N         -12.2397  -16.5072   20.2030 N.ar    1  UNL1       -0.2078
     16 C         -10.9638  -15.7254   20.0992 C.ar    1  UNL1        0.2015
     17 N          -9.9535  -15.7882   21.2061 N.ar    1  UNL1       -0.2048
     18 C         -10.2192  -16.6328   22.4169 C.ar    1  UNL1        0.1690
     19 H         -13.9558  -18.6879   22.3122 H       1  UNL1        0.1438
     20 H         -14.4444  -18.0923   20.7910 H       1  UNL1        0.1438
     21 C          -4.3323  -15.5098   23.2941 C.3     1  UNL1        0.1050
     22 C          -2.3390  -16.5059   21.9582 C.3     1  UNL1        0.0900
     23 N          -3.5759  -16.7005   22.7842 N.3     1  UNL1       -0.2656
     24 C          -4.0563  -18.0860   23.1003 C.3     1  UNL1        0.0987
     25 C          -3.8071  -19.2051   22.1331 C.2     1  UNL1       -0.0120
     26 C          -4.9534  -19.8198   21.3860 C.2     1  UNL1       -0.0125
     27 C          -6.3488  -19.3154   21.6060 C.3     1  UNL1        0.0916
     28 N          -6.8886  -18.2062   20.7526 N.3     1  UNL1       -0.3175
     29 H          -6.3663  -17.3499   20.9377 H       1  UNL1        0.1192
     30 H          -7.8737  -18.0577   20.9713 H       1  UNL1        0.1192
@<TRIPOS>BOND
     1    22    23    1
     2    23    24    1
     3    24    25    1
     4    25    26    2
     5    26    27    1
     6    27    28    1
     7    23    21    1
     8     1    21    1
     9     1     2    1
    10     2     3    1
    11     3     9    1
    12     9    10   ar
    13    10    11   ar
    14    11    12   ar
    15    12    13   ar
    16    13    14    1
    17    13    15   ar
    18    15    16   ar
    19    16    17   ar
    20    17    18   ar
    21     3     4    1
    22     4     5    1
    23     4     6    1
    24     6     7    1
    25     6     1    1
    26    18     9   ar
    27    18    12   ar
    28    28    29    1
    29    28    30    1
    30    14    19    1
    31    14    20    1
    32     7     8    1
@<TRIPOS>MOLECULE
*****
 30 32 0 0 0
SMALL
GASTEIGER

@<TRIPOS>ATOM
      1 C          -7.9758  -18.0832   22.7884 C.3     1  UNL1        0.1628
      2 O          -6.7469  -17.6675   22.0355 O.3     1  UNL1       -0.3318
      3 C          -6.0227  -18.9097   21.6082 C.3     1  UNL1        0.2430
      4 C          -6.8041  -20.0930   22.0969 C.3     1  UNL1        0.2390
      5 F          -6.4420  -21.5342   21.8921 F       1  UNL1       -0.2298
      6 C          -8.0113  -19.5824   22.8263 C.3     1  UNL1        0.1760
      7 O          -9.0681  -20.4231   23.4790 O.3     1  UNL1       -0.3792
      8 H          -9.7375  -19.8470   23.8803 H       1  UNL1        0.2106
      9 N          -4.7420  -18.9596   20.8289 N.ar    1  UNL1       -0.2692
     10 C          -4.4102  -19.9360   19.7396 C.ar    1  UNL1        0.1816
     11 N          -3.0314  -19.6217   19.2396 N.ar    1  UNL1       -0.2194
     12 C          -2.5110  -18.4510   20.0199 C.ar    1  UNL1        0.1481
     13 C          -1.2111  -17.7047   19.9628 C.ar    1  UNL1        0.1480
     14 N          -0.1539  -18.1139   18.9806 N.pl3   1  UNL1       -0.3413
     15 N          -0.9684  -16.5493   20.8880 N.ar    1  UNL1       -0.2078
     16 C          -2.0257  -16.1401   21.8702 C.ar    1  UNL1        0.2015
     17 N          -3.3256  -16.8863   21.9273 N.ar    1  UNL1       -0.2048
     18 C          -3.5683  -18.0418   21.0021 C.ar    1  UNL1        0.1690
     19 H          -0.3131  -18.8723   18.3733 H       1  UNL1        0.1438
     20 H           0.6993  -17.6242   18.9431 H       1  UNL1        0.1438
     21 C          -8.9912  -17.1616   23.3966 C.3     1  UNL1        0.1050
     22 C          -9.2954  -17.7290   25.9136 C.3     1  UNL1        0.0900
     23 N          -8.8780  -16.7686   24.8397 N.3     1  UNL1       -0.2656
     24 C          -8.3474  -15.4149   25.2090 C.3     1  UNL1        0.0987
     25 C          -7.3064  -15.2844   26.2811 C.2     1  UNL1       -0.0120
     26 C          -5.8631  -15.5369   25.9597 C.2     1  UNL1       -0.0125
     27 C          -5.4609  -15.9200   24.5663 C.3     1  UNL1        0.0916
     28 N          -5.4163  -14.8803   23.4861 N.3     1  UNL1       -0.3175
     29 H          -6.3600  -14.5389   23.3036 H       1  UNL1        0.1192
     30 H          -5.0327  -15.2907   22.6348 H       1  UNL1        0.1192
@<TRIPOS>BOND
     1    22    23    1
     2    23    24    1
     3    24    25    1
     4    25    26    2
     5    26    27    1
     6    27    28    1
     7    23    21    1
     8     1    21    1
     9     1     2    1
    10     2     3    1
    11     3     9    1
    12     9    10   ar
    13    10    11   ar
    14    11    12   ar
    15    12    13   ar
    16    13    14    1
    17    13    15   ar
    18    15    16   ar
    19    16    17   ar
    20    17    18   ar
    21     3     4    1
    22     4     5    1
    23     4     6    1
    24     6     7    1
    25     6     1    1
    26    18     9   ar
    27    18    12   ar
    28    28    29    1
    29    28    30    1
    30    14    19    1
    31    14    20    1
    32     7     8    1
@<TRIPOS>MOLECULE
*****
 30 32 0 0 0
SMALL
GASTEIGER

@<TRIPOS>ATOM
      1 C         -10.0864  -18.0865   23.3987 C.3     1  UNL1        0.1628
      2 O          -8.7641  -18.7466   23.1424 O.3     1  UNL1       -0.3318
      3 C          -7.7381  -17.6696   22.9489 C.3     1  UNL1        0.2430
      4 C          -8.4264  -16.3439   23.0857 C.3     1  UNL1        0.2390
      5 F          -7.7773  -14.9970   22.9655 F       1  UNL1       -0.2298
      6 C          -9.8778  -16.6015   23.3637 C.3     1  UNL1        0.1760
      7 O         -10.9347  -15.5575   23.5703 O.3     1  UNL1       -0.3792
      8 H         -11.7881  -15.9891   23.7328 H       1  UNL1        0.2106
      9 N          -6.2799  -17.8812   22.6681 N.ar    1  UNL1       -0.2692
     10 C          -5.1469  -17.0811   23.2391 C.ar    1  UNL1        0.1816
     11 N          -3.8655  -17.6355   22.6907 N.ar    1  UNL1       -0.2194
     12 C          -4.2066  -18.7782   21.7809 C.ar    1  UNL1        0.1481
     13 C          -3.3512  -19.7001   20.9633 C.ar    1  UNL1        0.1480
     14 N          -1.8590  -19.5482   20.9773 N.pl3   1  UNL1       -0.3413
     15 N          -3.9880  -20.7738   20.1318 N.ar    1  UNL1       -0.2078
     16 C          -5.4803  -20.9256   20.1177 C.ar    1  UNL1        0.2015
     17 N          -6.3357  -20.0038   20.9353 N.ar    1  UNL1       -0.2048
     18 C          -5.6988  -18.9301   21.7669 C.ar    1  UNL1        0.1690
     19 H          -1.4410  -18.8435   21.5231 H       1  UNL1        0.1438
     20 H          -1.2976  -20.1533   20.4407 H       1  UNL1        0.1438
     21 C         -11.3888  -18.7882   23.6466 C.3     1  UNL1        0.1050
     22 C         -13.7267  -17.7297   24.0516 C.3     1  UNL1        0.0900
     23 N         -12.6652  -18.2127   23.1083 N.3     1  UNL1       -0.2656
     24 C         -12.8799  -18.1201   21.6265 C.3     1  UNL1        0.0987
     25 C         -12.3299  -16.9537   20.8605 C.2     1  UNL1       -0.0120
     26 C         -11.1895  -17.1534   19.9067 C.2     1  UNL1       -0.0125
     27 C         -10.5993  -18.5196   19.7190 C.3     1  UNL1        0.0916
     28 N          -9.1322  -18.7397   19.9409 N.3     1  UNL1       -0.3175
     29 H          -8.6012  -18.2262   19.2375 H       1  UNL1        0.1192
     30 H          -8.9225  -19.7350   19.8656 H       1  UNL1        0.1192
@<TRIPOS>BOND
     1    22    23    1
     2    23    24    1
     3    24    25    1
     4    25    26    2
     5    26    27    1
     6    27    28    1
     7    23    21    1
     8     1    21    1
     9     1     2    1
    10     2     3    1
    11     3     9    1
    12     9    10   ar
    13    10    11   ar
    14    11    12   ar
    15    12    13   ar
    16    13    14    1
    17    13    15   ar
    18    15    16   ar
    19    16    17   ar
    20    17    18   ar
    21     3     4    1
    22     4     5    1
    23     4     6    1
    24     6     7    1
    25     6     1    1
    26    18     9   ar
    27    18    12   ar
    28    28    29    1
    29    28    30    1
    30    14    19    1
    31    14    20    1
    32     7     8    1
@<TRIPOS>MOLECULE
*****
 30 32 0 0 0
SMALL
GASTEIGER

@<TRIPOS>ATOM
      1 C          -4.9148  -16.7592   23.8490 C.3     1  UNL1        0.1628
      2 O          -5.9959  -17.1020   22.8674 O.3     1  UNL1       -0.3318
      3 C          -7.2436  -16.3794   23.2810 C.3     1  UNL1        0.2430
      4 C          -6.9336  -15.5901   24.5182 C.3     1  UNL1        0.2390
      5 F          -7.8943  -14.7190   25.2721 F       1  UNL1       -0.2298
      6 C          -5.4943  -15.8248   24.8694 C.3     1  UNL1        0.1760
      7 O          -4.7630  -15.2297   26.0359 O.3     1  UNL1       -0.3792
      8 H          -3.8446  -15.5420   26.0352 H       1  UNL1        0.2106
      9 N          -8.5687  -16.4361   22.5803 N.ar    1  UNL1       -0.2692
     10 C          -8.9202  -15.7364   21.3009 C.ar    1  UNL1        0.1816
     11 N         -10.3437  -16.0705   20.9659 N.ar    1  UNL1       -0.2194
     12 C         -10.8719  -16.9766   22.0382 C.ar    1  UNL1        0.1481
     13 C         -12.2100  -17.6251   22.2350 C.ar    1  UNL1        0.1480
     14 N         -13.3070  -17.3991   21.2373 N.pl3   1  UNL1       -0.3413
     15 N         -12.4512  -18.4996   23.4296 N.ar    1  UNL1       -0.2078
     16 C         -11.3542  -18.7257   24.4273 C.ar    1  UNL1        0.2015
     17 N         -10.0160  -18.0771   24.2305 N.ar    1  UNL1       -0.2048
     18 C          -9.7749  -17.2026   23.0360 C.ar    1  UNL1        0.1690
     19 H         -13.1487  -16.8251   20.4532 H       1  UNL1        0.1438
     20 H         -14.1853  -17.8248   21.3665 H       1  UNL1        0.1438
     21 C          -3.5021  -17.2626   23.8161 C.3     1  UNL1        0.1050
     22 C          -2.1959  -16.2591   21.8069 C.3     1  UNL1        0.0900
     23 N          -2.8004  -17.4426   22.5026 N.3     1  UNL1       -0.2656
     24 C          -2.7033  -18.8060   21.8848 C.3     1  UNL1        0.0987
     25 C          -2.6179  -18.9495   20.3941 C.2     1  UNL1       -0.0120
     26 C          -3.8503  -19.2650   19.5992 C.2     1  UNL1       -0.0125
     27 C          -5.1680  -19.4369   20.2950 C.3     1  UNL1        0.0916
     28 N          -6.2569  -18.4240   20.0999 N.3     1  UNL1       -0.3175
     29 H          -5.9673  -17.5319   20.5008 H       1  UNL1        0.1192
     30 H          -7.1069  -18.7451   20.5634 H       1  UNL1        0.1192
@<TRIPOS>BOND
     1    22    23    1
     2    23    24    1
     3    24    25    1
     4    25    26    2
     5    26    27    1
     6    27    28    1
     7    23    21    1
     8     1    21    1
     9     1     2    1
    10     2     3    1
    11     3     9    1
    12     9    10   ar
    13    10    11   ar
    14    11    12   ar
    15    12    13   ar
    16    13    14    1
    17    13    15   ar
    18    15    16   ar
    19    16    17   ar
    20    17    18   ar
    21     3     4    1
    22     4     5    1
    23     4     6    1
    24     6     7    1
    25     6     1    1
    26    18     9   ar
    27    18    12   ar
    28    28    29    1
    29    28    30    1
    30    14    19    1
    31    14    20    1
    32     7     8    1
@<TRIPOS>MOLECULE
*****
 30 32 0 0 0
SMALL
GASTEIGER

@<TRIPOS>ATOM
      1 C          -4.4570  -18.7180   21.9694 C.3     1  UNL1        0.1628
      2 O          -5.8533  -18.1708   22.0002 O.3     1  UNL1       -0.3318
      3 C          -6.7143  -19.0489   21.1415 C.3     1  UNL1        0.2430
      4 C          -5.8502  -20.1388   20.5800 C.3     1  UNL1        0.2390
      5 F          -6.3019  -21.2399   19.6670 F       1  UNL1       -0.2298
      6 C          -4.4550  -19.9344   21.0916 C.3     1  UNL1        0.1760
      7 O          -3.2668  -20.7950   20.7802 O.3     1  UNL1       -0.3792
      8 H          -2.4856  -20.4452   21.2367 H       1  UNL1        0.2106
      9 N          -8.1818  -18.8687   20.8887 N.ar    1  UNL1       -0.2692
     10 C          -8.9570  -19.4493   19.7432 C.ar    1  UNL1        0.1816
     11 N         -10.3861  -19.0157   19.8836 N.ar    1  UNL1       -0.2194
     12 C         -10.4941  -18.1671   21.1158 C.ar    1  UNL1        0.1481
     13 C         -11.6570  -17.4654   21.7525 C.ar    1  UNL1        0.1480
     14 N         -13.0193  -17.5562   21.1313 N.pl3   1  UNL1       -0.3413
     15 N         -11.4575  -16.6729   23.0102 N.ar    1  UNL1       -0.2078
     16 C         -10.0952  -16.5821   23.6314 C.ar    1  UNL1        0.2015
     17 N          -8.9324  -17.2838   22.9948 N.ar    1  UNL1       -0.2048
     18 C          -9.1318  -18.0763   21.7370 C.ar    1  UNL1        0.1690
     19 H         -13.1502  -18.0764   20.3057 H       1  UNL1        0.1438
     20 H         -13.7825  -17.0957   21.5491 H       1  UNL1        0.1438
     21 C          -3.2708  -18.1488   22.6900 C.3     1  UNL1        0.1050
     22 C          -2.1335  -15.9775   21.8283 C.3     1  UNL1        0.0900
     23 N          -2.1765  -17.4743   21.9169 N.3     1  UNL1       -0.2656
     24 C          -1.1250  -18.2967   21.2325 C.3     1  UNL1        0.0987
     25 C          -0.3703  -17.7295   20.0668 C.2     1  UNL1       -0.0120
     26 C          -1.0188  -17.6598   18.7160 C.2     1  UNL1       -0.0125
     27 C          -2.4217  -18.1571   18.5309 C.3     1  UNL1        0.0916
     28 N          -3.5821  -17.2433   18.7926 N.3     1  UNL1       -0.3175
     29 H          -3.6134  -17.0093   19.7849 H       1  UNL1        0.1192
     30 H          -4.4491  -17.7096   18.5257 H       1  UNL1        0.1192
@<TRIPOS>BOND
     1    22    23    1
     2    23    24    1
     3    24    25    1
     4    25    26    2
     5    26    27    1
     6    27    28    1
     7    23    21    1
     8     1    21    1
     9     1     2    1
    10     2     3    1
    11     3     9    1
    12     9    10   ar
    13    10    11   ar
    14    11    12   ar
    15    12    13   ar
    16    13    14    1
    17    13    15   ar
    18    15    16   ar
    19    16    17   ar
    20    17    18   ar
    21     3     4    1
    22     4     5    1
    23     4     6    1
    24     6     7    1
    25     6     1    1
    26    18     9   ar
    27    18    12   ar
    28    28    29    1
    29    28    30    1
    30    14    19    1
    31    14    20    1
    32     7     8    1
@<TRIPOS>MOLECULE
*****
 30 32 0 0 0
SMALL
GASTEIGER

@<TRIPOS>ATOM
      1 C         -10.2080  -18.2247   23.6536 C.3     1  UNL1        0.1628
      2 O          -9.2210  -19.2125   23.1058 O.3     1  UNL1       -0.3318
      3 C          -8.0277  -18.4498   22.6114 C.3     1  UNL1        0.2430
      4 C          -8.2773  -16.9907   22.8536 C.3     1  UNL1        0.2390
      5 F          -7.3433  -15.8679   22.5117 F       1  UNL1       -0.2298
      6 C          -9.6248  -16.8515   23.4977 C.3     1  UNL1        0.1760
      7 O         -10.2748  -15.5651   23.9130 O.3     1  UNL1       -0.3792
      8 H         -11.1425  -15.7528   24.3039 H       1  UNL1        0.2106
      9 N          -6.8004  -19.0423   21.9848 N.ar    1  UNL1       -0.2692
     10 C          -6.7732  -20.1571   20.9816 C.ar    1  UNL1        0.1816
     11 N          -5.3407  -20.4277   20.6282 N.ar    1  UNL1       -0.2194
     12 C          -4.4826  -19.4803   21.4131 C.ar    1  UNL1        0.1481
     13 C          -2.9964  -19.2866   21.4726 C.ar    1  UNL1        0.1480
     14 N          -2.0943  -20.1428   20.6342 N.pl3   1  UNL1       -0.3413
     15 N          -2.4123  -18.2366   22.3705 N.ar    1  UNL1       -0.2078
     16 C          -3.3144  -17.3803   23.2090 C.ar    1  UNL1        0.2015
     17 N          -4.8007  -17.5740   23.1495 N.ar    1  UNL1       -0.2048
     18 C          -5.3848  -18.6240   22.2515 C.ar    1  UNL1        0.1690
     19 H          -2.4777  -20.8320   20.0448 H       1  UNL1        0.1438
     20 H          -1.1188  -20.0157   20.6732 H       1  UNL1        0.1438
     21 C         -11.5438  -18.5525   24.2522 C.3     1  UNL1        0.1050
     22 C         -14.1117  -18.1629   24.3186 C.3     1  UNL1        0.0900
     23 N         -12.8002  -18.0590   23.5980 N.3     1  UNL1       -0.2656
     24 C         -12.7452  -17.4616   22.2231 C.3     1  UNL1        0.0987
     25 C         -12.0748  -18.2075   21.1077 C.2     1  UNL1       -0.0120
     26 C         -11.2674  -17.4625   20.0863 C.2     1  UNL1       -0.0125
     27 C         -11.1305  -15.9717   20.1804 C.3     1  UNL1        0.0916
     28 N         -10.9060  -15.1594   18.9395 N.3     1  UNL1       -0.3175
     29 H          -9.9951  -15.3898   18.5425 H       1  UNL1        0.1192
     30 H         -10.9339  -14.1669   19.1732 H       1  UNL1        0.1192
@<TRIPOS>BOND
     1    22    23    1
     2    23    24    1
     3    24    25    1
     4    25    26    2
     5    26    27    1
     6    27    28    1
     7    23    21    1
     8     1    21    1
     9     1     2    1
    10     2     3    1
    11     3     9    1
    12     9    10   ar
    13    10    11   ar
    14    11    12   ar
    15    12    13   ar
    16    13    14    1
    17    13    15   ar
    18    15    16   ar
    19    16    17   ar
    20    17    18   ar
    21     3     4    1
    22     4     5    1
    23     4     6    1
    24     6     7    1
    25     6     1    1
    26    18     9   ar
    27    18    12   ar
    28    28    29    1
    29    28    30    1
    30    14    19    1
    31    14    20    1
    32     7     8    1
@<TRIPOS>MOLECULE
*****
 30 32 0 0 0
SMALL
GASTEIGER

@<TRIPOS>ATOM
      1 C         -10.2102  -18.8979   22.9213 C.3     1  UNL1        0.1628
      2 O          -8.8871  -18.4696   23.4833 O.3     1  UNL1       -0.3318
      3 C          -7.8634  -18.5771   22.3922 C.3     1  UNL1        0.2430
      4 C          -8.5539  -19.0719   21.1560 C.3     1  UNL1        0.2390
      5 F          -7.9074  -19.3241   19.8262 F       1  UNL1       -0.2298
      6 C         -10.0043  -19.2701   21.4829 C.3     1  UNL1        0.1760
      7 O         -11.0629  -19.7554   20.5375 O.3     1  UNL1       -0.3792
      8 H         -11.9152  -19.7944   20.9990 H       1  UNL1        0.2106
      9 N          -6.4052  -18.2477   22.5158 N.ar    1  UNL1       -0.2692
     10 C          -5.8198  -17.1274   23.3233 C.ar    1  UNL1        0.1816
     11 N          -4.3292  -17.1681   23.1601 N.ar    1  UNL1       -0.2194
     12 C          -3.9935  -18.3137   22.2517 C.ar    1  UNL1        0.1481
     13 C          -2.6852  -18.8354   21.7358 C.ar    1  UNL1        0.1480
     14 N          -1.4022  -18.1681   22.1340 N.pl3   1  UNL1       -0.3413
     15 N          -2.6600  -20.0243   20.8217 N.ar    1  UNL1       -0.2078
     16 C          -3.9431  -20.6916   20.4235 C.ar    1  UNL1        0.2015
     17 N          -5.2514  -20.1698   20.9394 N.ar    1  UNL1       -0.2048
     18 C          -5.2765  -18.9809   21.8536 C.ar    1  UNL1        0.1690
     19 H          -1.4187  -17.3878   22.7340 H       1  UNL1        0.1438
     20 H          -0.5435  -18.5105   21.7953 H       1  UNL1        0.1438
     21 C         -11.5110  -18.9455   23.6669 C.3     1  UNL1        0.1050
     22 C         -13.9371  -18.0607   23.9520 C.3     1  UNL1        0.0900
     23 N         -12.5326  -17.8663   23.4626 N.3     1  UNL1       -0.2656
     24 C         -12.1495  -16.5926   22.7690 C.3     1  UNL1        0.0987
     25 C         -12.3238  -16.4654   21.2846 C.2     1  UNL1       -0.0120
     26 C         -11.1925  -15.9638   20.4369 C.2     1  UNL1       -0.0125
     27 C          -9.8870  -15.5894   21.0736 C.3     1  UNL1        0.0916
     28 N          -9.1184  -14.4046   20.5679 N.3     1  UNL1       -0.3175
     29 H          -8.7982  -14.5878   19.6170 H       1  UNL1        0.1192
     30 H          -8.3133  -14.2387   21.1717 H       1  UNL1        0.1192
@<TRIPOS>BOND
     1    22    23    1
     2    23    24    1
     3    24    25    1
     4    25    26    2
     5    26    27    1
     6    27    28    1
     7    23    21    1
     8     1    21    1
     9     1     2    1
    10     2     3    1
    11     3     9    1
    12     9    10   ar
    13    10    11   ar
    14    11    12   ar
    15    12    13   ar
    16    13    14    1
    17    13    15   ar
    18    15    16   ar
    19    16    17   ar
    20    17    18   ar
    21     3     4    1
    22     4     5    1
    23     4     6    1
    24     6     7    1
    25     6     1    1
    26    18     9   ar
    27    18    12   ar
    28    28    29    1
    29    28    30    1
    30    14    19    1
    31    14    20    1
    32     7     8    1
@<TRIPOS>MOLECULE
*****
 30 32 0 0 0
SMALL
GASTEIGER

@<TRIPOS>ATOM
      1 C          -9.7577  -19.3992   22.1767 C.3     1  UNL1        0.1628
      2 O          -8.2991  -19.4671   22.5199 O.3     1  UNL1       -0.3318
      3 C          -7.5226  -19.5098   21.2372 C.3     1  UNL1        0.2430
      4 C          -8.5014  -19.4683   20.1014 C.3     1  UNL1        0.2390
      5 F          -8.1589  -19.4912   18.6412 F       1  UNL1       -0.2298
      6 C          -9.8828  -19.4000   20.6819 C.3     1  UNL1        0.1760
      7 O         -11.1641  -19.3426   19.9043 O.3     1  UNL1       -0.3792
      8 H         -11.9138  -19.3042   20.5187 H       1  UNL1        0.2106
      9 N          -6.0296  -19.5814   21.1124 N.ar    1  UNL1       -0.2692
     10 C          -5.2625  -20.5232   20.2323 C.ar    1  UNL1        0.1816
     11 N          -3.8003  -20.2475   20.4218 N.ar    1  UNL1       -0.2194
     12 C          -3.6636  -19.1354   21.4190 C.ar    1  UNL1        0.1481
     13 C          -2.4626  -18.4444   21.9935 C.ar    1  UNL1        0.1480
     14 N          -1.0848  -18.8561   21.5667 N.pl3   1  UNL1       -0.3413
     15 N          -2.6394  -17.3417   22.9949 N.ar    1  UNL1       -0.2078
     16 C          -4.0172  -16.9299   23.4217 C.ar    1  UNL1        0.2015
     17 N          -5.2182  -17.6209   22.8472 N.ar    1  UNL1       -0.2048
     18 C          -5.0414  -18.7236   21.8459 C.ar    1  UNL1        0.1690
     19 H          -0.9688  -19.5799   20.9095 H       1  UNL1        0.1438
     20 H          -0.2966  -18.4026   21.9438 H       1  UNL1        0.1438
     21 C         -10.8922  -19.3409   23.1564 C.3     1  UNL1        0.1050
     22 C         -13.1186  -18.0964   23.6512 C.3     1  UNL1        0.0900
     23 N         -11.6492  -18.0607   23.3519 N.3     1  UNL1       -0.2656
     24 C         -10.9366  -16.7447   23.2482 C.3     1  UNL1        0.0987
     25 C          -9.7852  -16.4415   24.1604 C.2     1  UNL1       -0.0120
     26 C          -8.4594  -16.0384   23.5860 C.2     1  UNL1       -0.0125
     27 C          -8.2851  -15.9387   22.0995 C.3     1  UNL1        0.0916
     28 N          -7.9918  -14.6110   21.4662 N.3     1  UNL1       -0.3175
     29 H          -8.7940  -13.9925   21.5859 H       1  UNL1        0.1192
     30 H          -7.8088  -14.7418   20.4713 H       1  UNL1        0.1192
@<TRIPOS>BOND
     1    22    23    1
     2    23    24    1
     3    24    25    1
     4    25    26    2
     5    26    27    1
     6    27    28    1
     7    23    21    1
     8     1    21    1
     9     1     2    1
    10     2     3    1
    11     3     9    1
    12     9    10   ar
    13    10    11   ar
    14    11    12   ar
    15    12    13   ar
    16    13    14    1
    17    13    15   ar
    18    15    16   ar
    19    16    17   ar
    20    17    18   ar
    21     3     4    1
    22     4     5    1
    23     4     6    1
    24     6     7    1
    25     6     1    1
    26    18     9   ar
    27    18    12   ar
    28    28    29    1
    29    28    30    1
    30    14    19    1
    31    14    20    1
    32     7     8    1
@<TRIPOS>MOLECULE
*****
 30 32 0 0 0
SMALL
GASTEIGER

@<TRIPOS>ATOM
      1 C          -9.4419  -16.3976   23.1165 C.3     1  UNL1        0.1628
      2 O          -8.3498  -17.1809   22.4503 O.3     1  UNL1       -0.3318
      3 C          -7.0823  -16.9562   23.2203 C.3     1  UNL1        0.2430
      4 C          -7.3911  -16.0341   24.3624 C.3     1  UNL1        0.2390
      5 F          -6.4132  -15.5434   25.3885 F       1  UNL1       -0.2298
      6 C          -8.8494  -15.6888   24.2983 C.3     1  UNL1        0.1760
      7 O          -9.5858  -14.7923   25.2489 O.3     1  UNL1       -0.3792
      8 H         -10.5174  -14.7360   24.9844 H       1  UNL1        0.2106
      9 N          -5.7415  -17.5495   22.9038 N.ar    1  UNL1       -0.2692
     10 C          -4.4269  -17.1159   23.4816 C.ar    1  UNL1        0.1816
     11 N          -3.3529  -17.9790   22.8887 N.ar    1  UNL1       -0.2194
     12 C          -4.0036  -18.9460   21.9446 C.ar    1  UNL1        0.1481
     13 C          -3.4427  -20.0339   21.0776 C.ar    1  UNL1        0.1480
     14 N          -1.9664  -20.2994   21.0683 N.pl3   1  UNL1       -0.3413
     15 N          -4.3580  -20.8563   20.2199 N.ar    1  UNL1       -0.2078
     16 C          -5.8343  -20.5909   20.2292 C.ar    1  UNL1        0.2015
     17 N          -6.3953  -19.5030   21.0962 N.ar    1  UNL1       -0.2048
     18 C          -5.4799  -18.6805   21.9539 C.ar    1  UNL1        0.1690
     19 H          -1.3656  -19.7596   21.6312 H       1  UNL1        0.1438
     20 H          -1.5982  -21.0134   20.4992 H       1  UNL1        0.1438
     21 C         -10.8751  -16.3342   22.6779 C.3     1  UNL1        0.1050
     22 C         -11.2949  -16.3877   20.1145 C.3     1  UNL1        0.0900
     23 N         -11.3166  -17.0723   21.4489 N.3     1  UNL1       -0.2656
     24 C         -11.7799  -18.4952   21.5545 C.3     1  UNL1        0.0987
     25 C         -10.7805  -19.6133   21.5254 C.2     1  UNL1       -0.0120
     26 C         -10.2931  -20.2172   22.8091 C.2     1  UNL1       -0.0125
     27 C         -10.8051  -19.7028   24.1219 C.3     1  UNL1        0.0916
     28 N         -10.1591  -20.1413   25.4026 N.3     1  UNL1       -0.3175
     29 H         -10.3157  -21.1401   25.5378 H       1  UNL1        0.1192
     30 H         -10.5655  -19.6247   26.1826 H       1  UNL1        0.1192
@<TRIPOS>BOND
     1    22    23    1
     2    23    24    1
     3    24    25    1
     4    25    26    2
     5    26    27    1
     6    27    28    1
     7    23    21    1
     8     1    21    1
     9     1     2    1
    10     2     3    1
    11     3     9    1
    12     9    10   ar
    13    10    11   ar
    14    11    12   ar
    15    12    13   ar
    16    13    14    1
    17    13    15   ar
    18    15    16   ar
    19    16    17   ar
    20    17    18   ar
    21     3     4    1
    22     4     5    1
    23     4     6    1
    24     6     7    1
    25     6     1    1
    26    18     9   ar
    27    18    12   ar
    28    28    29    1
    29    28    30    1
    30    14    19    1
    31    14    20    1
    32     7     8    1
