@<TRIPOS>MOLECULE
*****
 21 23 0 0 0
SMALL
GASTEIGER

@<TRIPOS>ATOM
      1 C          -8.9083  -19.3657   20.6458 C.ar    1  UNL1        0.1386
      2 C          -8.3576  -19.3850   22.0409 C.ar    1  UNL1        0.0384
      3 C          -6.8740  -19.3886   22.2617 C.ar    1  UNL1        0.0207
      4 C          -5.9410  -19.3728   21.0872 C.ar    1  UNL1        0.0657
      5 C          -6.4917  -19.3535   19.6921 C.ar    1  UNL1        0.0207
      6 C          -7.9753  -19.3499   19.4714 C.ar    1  UNL1        0.0384
      7 N          -4.4573  -19.3763   21.3079 N.ar    1  UNL1       -0.2864
      8 C          -3.7014  -18.4701   22.2338 C.ar    1  UNL1        0.1022
      9 C          -2.2460  -18.8204   22.1396 C.ar    1  UNL1        0.1196
     10 N          -2.1023  -19.9433   21.1553 N.ar    1  UNL1       -0.2220
     11 C          -3.4689  -20.2868   20.6414 C.ar    1  UNL1        0.1828
     12 O         -10.3920  -19.3622   20.4251 O.3     1  UNL1       -0.4755
     13 C         -11.0873  -18.0954   20.0227 C.3     1  UNL1        0.2057
     14 C         -12.1909  -17.5424   20.8748 C.3     1  UNL1        0.0520
     15 C         -11.8632  -16.7226   22.0875 C.3     1  UNL1        0.0303
     16 C         -10.7969  -19.3053   24.9058 C.ar    1  UNL1        0.0986
     17 C         -11.5386  -18.6848   23.7591 C.ar    1  UNL1        0.0164
     18 C         -11.1214  -17.3430   23.2342 C.ar    1  UNL1       -0.0190
     19 C          -9.9624  -16.6218   23.8559 C.ar    1  UNL1        0.0164
     20 C          -9.2207  -17.2422   25.0025 C.ar    1  UNL1        0.0986
     21 N          -9.6380  -18.5840   25.5275 N.ar    1  UNL1       -0.2423
@<TRIPOS>BOND
     1    16    17   ar
     2    17    18   ar
     3    18    15    1
     4    15    14    1
     5    14    13    1
     6    13    12    1
     7    12     1    1
     8     1     2   ar
     9     2     3   ar
    10     3     4   ar
    11     4     7    1
    12     7     8   ar
    13     8     9   ar
    14     9    10   ar
    15    10    11   ar
    16     4     5   ar
    17     5     6   ar
    18    18    19   ar
    19    19    20   ar
    20    20    21   ar
    21    21    16   ar
    22     6     1   ar
    23    11     7   ar
@<TRIPOS>MOLECULE
*****
 21 23 0 0 0
SMALL
GASTEIGER

@<TRIPOS>ATOM
      1 C          -6.2130  -20.1095   21.9428 C.ar    1  UNL1        0.1386
      2 C          -5.6697  -20.7340   20.6918 C.ar    1  UNL1        0.0384
      3 C          -4.3930  -20.2237   20.0922 C.ar    1  UNL1        0.0207
      4 C          -3.6596  -19.0889   20.7435 C.ar    1  UNL1        0.0657
      5 C          -4.2029  -18.4644   21.9944 C.ar    1  UNL1        0.0207
      6 C          -5.4796  -18.9747   22.5941 C.ar    1  UNL1        0.0384
      7 N          -2.3828  -18.5785   20.1439 N.ar    1  UNL1       -0.2864
      8 C          -1.1409  -18.2071   20.8987 C.ar    1  UNL1        0.1022
      9 C          -0.1144  -17.7490   19.9055 C.ar    1  UNL1        0.1196
     10 N          -0.7220  -17.8373   18.5368 N.ar    1  UNL1       -0.2220
     11 C          -2.1239  -18.3500   18.6842 C.ar    1  UNL1        0.1828
     12 O          -7.4898  -20.6199   22.5424 O.3     1  UNL1       -0.4755
     13 C          -8.5537  -19.6548   22.9744 C.3     1  UNL1        0.2057
     14 C          -9.8672  -20.1667   23.4871 C.3     1  UNL1        0.0520
     15 C         -11.0710  -19.2718   23.4907 C.3     1  UNL1        0.0303
     16 C         -12.2637  -16.1766   21.3119 C.ar    1  UNL1        0.0986
     17 C         -11.9716  -17.0457   22.4990 C.ar    1  UNL1        0.0164
     18 C         -11.3631  -18.4027   22.3035 C.ar    1  UNL1       -0.0190
     19 C         -11.0466  -18.8906   20.9208 C.ar    1  UNL1        0.0164
     20 C         -11.3386  -18.0215   19.7337 C.ar    1  UNL1        0.0986
     21 N         -11.9472  -16.6645   19.9292 N.ar    1  UNL1       -0.2423
@<TRIPOS>BOND
     1    16    17   ar
     2    17    18   ar
     3    18    15    1
     4    15    14    1
     5    14    13    1
     6    13    12    1
     7    12     1    1
     8     1     2   ar
     9     2     3   ar
    10     3     4   ar
    11     4     7    1
    12     7     8   ar
    13     8     9   ar
    14     9    10   ar
    15    10    11   ar
    16     4     5   ar
    17     5     6   ar
    18    18    19   ar
    19    19    20   ar
    20    20    21   ar
    21    21    16   ar
    22     6     1   ar
    23    11     7   ar
@<TRIPOS>MOLECULE
*****
 21 23 0 0 0
SMALL
GASTEIGER

@<TRIPOS>ATOM
      1 C           4.9687   -3.5390   21.6742 C.ar    1  UNL1        0.1386
      2 C           4.4912   -2.3667   22.4790 C.ar    1  UNL1        0.0384
      3 C           3.5300   -1.3852   21.8768 C.ar    1  UNL1        0.0207
      4 C           3.0464   -1.5759   20.4699 C.ar    1  UNL1        0.0657
      5 C           3.5239   -2.7482   19.6650 C.ar    1  UNL1        0.0207
      6 C           4.4850   -3.7297   20.2672 C.ar    1  UNL1        0.0384
      7 N           2.0851   -0.5943   19.8676 N.ar    1  UNL1       -0.2864
      8 C           2.2883    0.1700   18.5930 C.ar    1  UNL1        0.1022
      9 C           1.0807    1.0319   18.3720 C.ar    1  UNL1        0.1196
     10 N           0.1312    0.8004   19.5100 N.ar    1  UNL1       -0.2220
     11 C           0.7520   -0.2047   20.4343 C.ar    1  UNL1        0.1828
     12 O           5.9299   -4.5206   22.2764 O.3     1  UNL1       -0.4755
     13 C           7.4059   -4.2617   22.2107 C.3     1  UNL1        0.2057
     14 C           8.1173   -4.3071   20.8909 C.3     1  UNL1        0.0520
     15 C           8.6669   -3.0468   20.2913 C.3     1  UNL1        0.0303
     16 C           6.3920    0.1985   20.0840 C.ar    1  UNL1        0.0986
     17 C           7.3255   -0.8462   20.6199 C.ar    1  UNL1        0.0164
     18 C           7.7334   -2.0021   19.7553 C.ar    1  UNL1       -0.0190
     19 C           7.2078   -2.1133   18.3549 C.ar    1  UNL1        0.0164
     20 C           6.2743   -1.0687   17.8190 C.ar    1  UNL1        0.0986
     21 N           5.8664    0.0873   18.6835 N.ar    1  UNL1       -0.2423
@<TRIPOS>BOND
     1    16    17   ar
     2    17    18   ar
     3    18    15    1
     4    15    14    1
     5    14    13    1
     6    13    12    1
     7    12     1    1
     8     1     2   ar
     9     2     3   ar
    10     3     4   ar
    11     4     7    1
    12     7     8   ar
    13     8     9   ar
    14     9    10   ar
    15    10    11   ar
    16     4     5   ar
    17     5     6   ar
    18    18    19   ar
    19    19    20   ar
    20    20    21   ar
    21    21    16   ar
    22     6     1   ar
    23    11     7   ar
@<TRIPOS>MOLECULE
*****
 21 23 0 0 0
SMALL
GASTEIGER

@<TRIPOS>ATOM
      1 C           0.2649    1.1692   20.0991 C.ar    1  UNL1        0.1386
      2 C           0.5024   -0.2333   20.5750 C.ar    1  UNL1        0.0384
      3 C           1.6835   -1.0071   20.0690 C.ar    1  UNL1        0.0207
      4 C           2.6272   -0.3784   19.0871 C.ar    1  UNL1        0.0657
      5 C           2.3897    1.0241   18.6112 C.ar    1  UNL1        0.0207
      6 C           1.2086    1.7979   19.1172 C.ar    1  UNL1        0.0384
      7 N           3.8084   -1.1523   18.5811 N.ar    1  UNL1       -0.2864
      8 C           4.1664   -2.5599   18.9557 C.ar    1  UNL1        0.1022
      9 C           5.4182   -2.9319   18.2178 C.ar    1  UNL1        0.1196
     10 N           5.8340   -1.7541   17.3871 N.ar    1  UNL1       -0.2220
     11 C           4.8390   -0.6542   17.6117 C.ar    1  UNL1        0.1828
     12 O          -0.9163    1.9431   20.6051 O.3     1  UNL1       -0.4755
     13 C          -0.7290    2.9929   21.6599 C.3     1  UNL1        0.2057
     14 C          -0.0933    2.6344   22.9704 C.3     1  UNL1        0.0520
     15 C           1.3706    2.8803   23.1859 C.3     1  UNL1        0.0303
     16 C           4.5167    0.7929   21.9631 C.ar    1  UNL1        0.0986
     17 C           3.5362    1.9169   22.1217 C.ar    1  UNL1        0.0164
     18 C           2.3512    1.7562   23.0273 C.ar    1  UNL1       -0.0190
     19 C           2.1469    0.4717   23.7743 C.ar    1  UNL1        0.0164
     20 C           3.1274   -0.6523   23.6157 C.ar    1  UNL1        0.0986
     21 N           4.3124   -0.4916   22.7101 N.ar    1  UNL1       -0.2423
@<TRIPOS>BOND
     1    16    17   ar
     2    17    18   ar
     3    18    15    1
     4    15    14    1
     5    14    13    1
     6    13    12    1
     7    12     1    1
     8     1     2   ar
     9     2     3   ar
    10     3     4   ar
    11     4     7    1
    12     7     8   ar
    13     8     9   ar
    14     9    10   ar
    15    10    11   ar
    16     4     5   ar
    17     5     6   ar
    18    18    19   ar
    19    19    20   ar
    20    20    21   ar
    21    21    16   ar
    22     6     1   ar
    23    11     7   ar
@<TRIPOS>MOLECULE
*****
 21 23 0 0 0
SMALL
GASTEIGER

@<TRIPOS>ATOM
      1 C           3.8122   -0.1616   21.6876 C.ar    1  UNL1        0.1386
      2 C           5.2299    0.0692   21.2553 C.ar    1  UNL1        0.0384
      3 C           6.2242   -1.0523   21.3151 C.ar    1  UNL1        0.0207
      4 C           5.8009   -2.4045   21.8073 C.ar    1  UNL1        0.0657
      5 C           4.3832   -2.6352   22.2396 C.ar    1  UNL1        0.0207
      6 C           3.3888   -1.5138   22.1798 C.ar    1  UNL1        0.0384
      7 N           6.7952   -3.5260   21.8671 N.ar    1  UNL1       -0.2864
      8 C           7.6981   -3.9643   20.7523 C.ar    1  UNL1        0.1022
      9 C           8.5221   -5.1153   21.2485 C.ar    1  UNL1        0.1196
     10 N           8.1285   -5.3884   22.6700 N.ar    1  UNL1       -0.2220
     11 C           7.0612   -4.4061   23.0523 C.ar    1  UNL1        0.1828
     12 O           2.8178    0.9600   21.6278 O.3     1  UNL1       -0.4755
     13 C           2.1285    1.2829   20.3353 C.3     1  UNL1        0.2057
     14 C           1.9185    0.2097   19.3087 C.3     1  UNL1        0.0520
     15 C           2.6796    0.2484   18.0167 C.3     1  UNL1        0.0303
     16 C           5.3949   -2.6452   18.0843 C.ar    1  UNL1        0.0986
     17 C           4.0809   -1.9316   18.2022 C.ar    1  UNL1        0.0164
     18 C           3.9938   -0.4652   17.8987 C.ar    1  UNL1       -0.0190
     19 C           5.2208    0.2876   17.4773 C.ar    1  UNL1        0.0164
     20 C           6.5349   -0.4259   17.3594 C.ar    1  UNL1        0.0986
     21 N           6.6220   -1.8923   17.6629 N.ar    1  UNL1       -0.2423
@<TRIPOS>BOND
     1    16    17   ar
     2    17    18   ar
     3    18    15    1
     4    15    14    1
     5    14    13    1
     6    13    12    1
     7    12     1    1
     8     1     2   ar
     9     2     3   ar
    10     3     4   ar
    11     4     7    1
    12     7     8   ar
    13     8     9   ar
    14     9    10   ar
    15    10    11   ar
    16     4     5   ar
    17     5     6   ar
    18    18    19   ar
    19    19    20   ar
    20    20    21   ar
    21    21    16   ar
    22     6     1   ar
    23    11     7   ar
@<TRIPOS>MOLECULE
*****
 21 23 0 0 0
SMALL
GASTEIGER

@<TRIPOS>ATOM
      1 C           2.2928   -1.1559   20.2786 C.ar    1  UNL1        0.1386
      2 C           2.9853   -2.2015   19.4557 C.ar    1  UNL1        0.0384
      3 C           4.1308   -2.9762   20.0368 C.ar    1  UNL1        0.0207
      4 C           4.5838   -2.7052   21.4408 C.ar    1  UNL1        0.0657
      5 C           3.8913   -1.6596   22.2637 C.ar    1  UNL1        0.0207
      6 C           2.7459   -0.8849   21.6826 C.ar    1  UNL1        0.0384
      7 N           5.7294   -3.4799   22.0220 N.ar    1  UNL1       -0.2864
      8 C           5.8984   -3.8551   23.4644 C.ar    1  UNL1        0.1022
      9 C           7.1804   -4.6224   23.5966 C.ar    1  UNL1        0.1196
     10 N           7.8039   -4.7214   22.2358 N.ar    1  UNL1       -0.2220
     11 C           6.9070   -4.0153   21.2627 C.ar    1  UNL1        0.1828
     12 O           1.1473   -0.3812   19.6975 O.3     1  UNL1       -0.4755
     13 C           1.3863    0.5784   18.5696 C.3     1  UNL1        0.2057
     14 C           2.0583    1.8932   18.8333 C.3     1  UNL1        0.0520
     15 C           3.4249    2.1621   18.2763 C.3     1  UNL1        0.0303
     16 C           6.0607   -0.7447   17.6821 C.ar    1  UNL1        0.0986
     17 C           4.9468    0.2299   17.4391 C.ar    1  UNL1        0.0164
     18 C           4.5389    1.1874   18.5194 C.ar    1  UNL1       -0.0190
     19 C           5.2451    1.1702   19.8426 C.ar    1  UNL1        0.0164
     20 C           6.3591    0.1956   20.0855 C.ar    1  UNL1        0.0986
     21 N           6.7669   -0.7619   19.0053 N.ar    1  UNL1       -0.2423
@<TRIPOS>BOND
     1    16    17   ar
     2    17    18   ar
     3    18    15    1
     4    15    14    1
     5    14    13    1
     6    13    12    1
     7    12     1    1
     8     1     2   ar
     9     2     3   ar
    10     3     4   ar
    11     4     7    1
    12     7     8   ar
    13     8     9   ar
    14     9    10   ar
    15    10    11   ar
    16     4     5   ar
    17     5     6   ar
    18    18    19   ar
    19    19    20   ar
    20    20    21   ar
    21    21    16   ar
    22     6     1   ar
    23    11     7   ar
@<TRIPOS>MOLECULE
*****
 21 23 0 0 0
SMALL
GASTEIGER

@<TRIPOS>ATOM
      1 C           4.5199   -3.1208   21.2931 C.ar    1  UNL1        0.1386
      2 C           3.7695   -2.8204   20.0295 C.ar    1  UNL1        0.0384
      3 C           2.7760   -1.6972   19.9963 C.ar    1  UNL1        0.0207
      4 C           2.5328   -0.8743   21.2266 C.ar    1  UNL1        0.0657
      5 C           3.2832   -1.1747   22.4902 C.ar    1  UNL1        0.0207
      6 C           4.2768   -2.2980   22.5234 C.ar    1  UNL1        0.0384
      7 N           1.5392    0.2490   21.1934 N.ar    1  UNL1       -0.2864
      8 C           1.6877    1.5778   21.8733 C.ar    1  UNL1        0.1022
      9 C           0.4630    2.3907   21.5745 C.ar    1  UNL1        0.1196
     10 N          -0.4424    1.5643   20.7100 N.ar    1  UNL1       -0.2220
     11 C           0.2228    0.2407   20.4744 C.ar    1  UNL1        0.1828
     12 O           5.5135   -4.2441   21.3263 O.3     1  UNL1       -0.4755
     13 C           6.8630   -4.0707   20.6947 C.3     1  UNL1        0.2057
     14 C           7.6374   -2.8053   20.9157 C.3     1  UNL1        0.0520
     15 C           7.9312   -1.8943   19.7608 C.3     1  UNL1        0.0303
     16 C           5.2756   -0.2529   17.3106 C.ar    1  UNL1        0.0986
     17 C           6.3441   -1.1640   17.8378 C.ar    1  UNL1        0.0164
     18 C           6.8625   -0.9831   19.2337 C.ar    1  UNL1       -0.0190
     19 C           6.3124    0.1089   20.1024 C.ar    1  UNL1        0.0164
     20 C           5.2438    1.0201   19.5752 C.ar    1  UNL1        0.0986
     21 N           4.7254    0.8392   18.1793 N.ar    1  UNL1       -0.2423
@<TRIPOS>BOND
     1    16    17   ar
     2    17    18   ar
     3    18    15    1
     4    15    14    1
     5    14    13    1
     6    13    12    1
     7    12     1    1
     8     1     2   ar
     9     2     3   ar
    10     3     4   ar
    11     4     7    1
    12     7     8   ar
    13     8     9   ar
    14     9    10   ar
    15    10    11   ar
    16     4     5   ar
    17     5     6   ar
    18    18    19   ar
    19    19    20   ar
    20    20    21   ar
    21    21    16   ar
    22     6     1   ar
    23    11     7   ar
@<TRIPOS>MOLECULE
*****
 21 23 0 0 0
SMALL
GASTEIGER

@<TRIPOS>ATOM
      1 C           8.1102   -8.3426   27.3113 C.ar    1  UNL1        0.1386
      2 C           7.5267   -7.8011   26.0400 C.ar    1  UNL1        0.0384
      3 C           7.2989   -6.3263   25.8878 C.ar    1  UNL1        0.0207
      4 C           7.6546   -5.3931   27.0069 C.ar    1  UNL1        0.0657
      5 C           8.2381   -5.9346   28.2782 C.ar    1  UNL1        0.0207
      6 C           8.4659   -7.4094   28.4304 C.ar    1  UNL1        0.0384
      7 N           7.4269   -3.9183   26.8547 N.ar    1  UNL1       -0.2864
      8 C           6.5868   -3.2600   25.8007 C.ar    1  UNL1        0.1022
      9 C           6.6399   -1.7777   26.0244 C.ar    1  UNL1        0.1196
     10 N           7.5129   -1.5199   27.2168 N.ar    1  UNL1       -0.2220
     11 C           7.9992   -2.8428   27.7299 C.ar    1  UNL1        0.1828
     12 O           8.3379   -9.8174   27.4635 O.3     1  UNL1       -0.4755
     13 C           7.2034  -10.7144   27.8612 C.3     1  UNL1        0.2057
     14 C           7.4768  -12.1280   28.2819 C.3     1  UNL1        0.0520
     15 C           6.4393  -12.8977   29.0440 C.3     1  UNL1        0.0303
     16 C           2.5088  -12.3644   28.9141 C.ar    1  UNL1        0.0986
     17 C           3.9278  -12.3352   29.3993 C.ar    1  UNL1        0.0164
     18 C           5.0202  -12.9269   28.5588 C.ar    1  UNL1       -0.0190
     19 C           4.6936  -13.5479   27.2330 C.ar    1  UNL1        0.0164
     20 C           3.2745  -13.5771   26.7478 C.ar    1  UNL1        0.0986
     21 N           2.1822  -12.9853   27.5883 N.ar    1  UNL1       -0.2423
@<TRIPOS>BOND
     1    16    17   ar
     2    17    18   ar
     3    18    15    1
     4    15    14    1
     5    14    13    1
     6    13    12    1
     7    12     1    1
     8     1     2   ar
     9     2     3   ar
    10     3     4   ar
    11     4     7    1
    12     7     8   ar
    13     8     9   ar
    14     9    10   ar
    15    10    11   ar
    16     4     5   ar
    17     5     6   ar
    18    18    19   ar
    19    19    20   ar
    20    20    21   ar
    21    21    16   ar
    22     6     1   ar
    23    11     7   ar
@<TRIPOS>MOLECULE
*****
 21 23 0 0 0
SMALL
GASTEIGER

@<TRIPOS>ATOM
      1 C           3.6004    0.0187   19.2620 C.ar    1  UNL1        0.1386
      2 C           2.7264   -1.0183   19.9030 C.ar    1  UNL1        0.0384
      3 C           2.6941   -1.1527   21.3966 C.ar    1  UNL1        0.0207
      4 C           3.5358   -0.2502   22.2492 C.ar    1  UNL1        0.0657
      5 C           4.4098    0.7867   21.6082 C.ar    1  UNL1        0.0207
      6 C           4.4421    0.9212   20.1146 C.ar    1  UNL1        0.0384
      7 N           3.5035   -0.3846   23.7429 N.ar    1  UNL1       -0.2864
      8 C           4.1458   -1.4782   24.5438 C.ar    1  UNL1        0.1022
      9 C           3.8625   -1.2184   25.9937 C.ar    1  UNL1        0.1196
     10 N           3.0451    0.0357   26.0889 N.ar    1  UNL1       -0.2220
     11 C           2.8232    0.5511   24.6978 C.ar    1  UNL1        0.1828
     12 O           3.6327    0.1531   17.7684 O.3     1  UNL1       -0.4755
     13 C           4.7920   -0.3959   16.9908 C.3     1  UNL1        0.2057
     14 C           6.0536   -0.7876   17.7015 C.3     1  UNL1        0.0520
     15 C           6.3762   -2.2371   17.9129 C.3     1  UNL1        0.0303
     16 C           3.9280   -4.7369   19.7857 C.ar    1  UNL1        0.0986
     17 C           4.6027   -3.9710   18.6867 C.ar    1  UNL1        0.0164
     18 C           5.7014   -3.0031   19.0121 C.ar    1  UNL1       -0.0190
     19 C           6.1254   -2.8011   20.4367 C.ar    1  UNL1        0.0164
     20 C           5.4507   -3.5671   21.5358 C.ar    1  UNL1        0.0986
     21 N           4.3520   -4.5350   21.2103 N.ar    1  UNL1       -0.2423
@<TRIPOS>BOND
     1    16    17   ar
     2    17    18   ar
     3    18    15    1
     4    15    14    1
     5    14    13    1
     6    13    12    1
     7    12     1    1
     8     1     2   ar
     9     2     3   ar
    10     3     4   ar
    11     4     7    1
    12     7     8   ar
    13     8     9   ar
    14     9    10   ar
    15    10    11   ar
    16     4     5   ar
    17     5     6   ar
    18    18    19   ar
    19    19    20   ar
    20    20    21   ar
    21    21    16   ar
    22     6     1   ar
    23    11     7   ar
