@<TRIPOS>MOLECULE
*****
 28 31 0 0 0
SMALL
GASTEIGER

@<TRIPOS>ATOM
      1 C          -9.2301  -17.0136   22.8738 C.ar    1  UNL1       -0.0004
      2 C          -8.9001  -15.9252   23.8519 C.ar    1  UNL1       -0.0011
      3 C          -7.4701  -15.6442   24.2070 C.ar    1  UNL1        0.0144
      4 C          -6.3700  -16.4516   23.5840 C.ar    1  UNL1        0.0497
      5 C          -6.7001  -17.5400   22.6059 C.ar    1  UNL1        0.0144
      6 C          -8.1301  -17.8209   22.2509 C.ar    1  UNL1       -0.0011
      7 N          -4.9400  -16.1706   23.9391 N.pl3   1  UNL1       -0.2927
      8 H          -4.7248  -15.6877   24.7696 H       1  UNL1        0.1541
      9 C          -3.8379  -16.6255   23.0288 C.ar    1  UNL1        0.1635
     10 N          -2.9440  -15.7378   22.2147 N.ar    1  UNL1       -0.2240
     11 C          -1.9899  -16.6115   21.4556 C.ar    1  UNL1        0.0892
     12 C          -0.8833  -16.2915   20.4948 C.ar    1  UNL1        0.0197
     13 C          -0.0810  -17.3992   19.8790 C.ar    1  UNL1        0.0016
     14 C          -0.3853  -18.8269   20.2240 C.ar    1  UNL1        0.0006
     15 C          -1.4919  -19.1469   21.1847 C.ar    1  UNL1        0.0081
     16 C          -2.2941  -18.0392   21.8005 C.ar    1  UNL1        0.0497
     17 S          -3.4363  -18.0478   22.7728 S.2     1  UNL1       -0.0515
     18 C         -10.6602  -17.2946   22.5187 C.3     1  UNL1        0.1240
     19 N         -11.2831  -16.6253   21.3296 N.ar    1  UNL1       -0.3045
     20 C         -10.5487  -15.9011   20.2404 C.ar    1  UNL1        0.0983
     21 C         -11.5615  -15.3909   19.2585 C.ar    1  UNL1        0.1193
     22 N         -12.9217  -15.7998   19.7409 N.ar    1  UNL1       -0.2223
     23 C         -12.7496  -16.5627   21.0209 C.ar    1  UNL1        0.1788
     24 C         -12.8046  -17.8245   23.8863 C.3     1  UNL1        0.0197
     25 C         -11.4672  -18.2448   23.3527 C.3     1  UNL1        0.0827
     26 N         -10.9370  -19.6154   23.6532 N.3     1  UNL1       -0.2696
     27 C         -10.9218  -20.6652   22.5819 C.3     1  UNL1        0.0897
     28 C         -10.4219  -19.9363   25.0249 C.3     1  UNL1        0.0897
@<TRIPOS>BOND
     1    25    24    1
     2    25    18    1
     3    18     1    1
     4     1     2   ar
     5     2     3   ar
     6     3     4   ar
     7     4     7    1
     8     7     9    1
     9     9    10   ar
    10    10    11   ar
    11    11    12   ar
    12    12    13   ar
    13    13    14   ar
    14    14    15   ar
    15    15    16   ar
    16    16    17   ar
    17     4     5   ar
    18     5     6   ar
    19    18    19    1
    20    19    20   ar
    21    20    21   ar
    22    21    22   ar
    23    22    23   ar
    24    25    26    1
    25    26    27    1
    26    26    28    1
    27     6     1   ar
    28    23    19   ar
    29    17     9   ar
    30    16    11   ar
    31     7     8    1
@<TRIPOS>MOLECULE
*****
 28 31 0 0 0
SMALL
GASTEIGER

@<TRIPOS>ATOM
      1 C          -9.3629  -17.3176   22.5703 C.ar    1  UNL1       -0.0004
      2 C          -8.2427  -18.1270   21.9875 C.ar    1  UNL1       -0.0011
      3 C          -6.8318  -17.8886   22.4379 C.ar    1  UNL1        0.0144
      4 C          -6.5414  -16.8407   23.4711 C.ar    1  UNL1        0.0497
      5 C          -7.6618  -16.0313   24.0539 C.ar    1  UNL1        0.0144
      6 C          -9.0725  -16.2697   23.6035 C.ar    1  UNL1       -0.0011
      7 N          -5.1306  -16.6023   23.9215 N.pl3   1  UNL1       -0.2927
      8 H          -4.9561  -16.2214   24.8124 H       1  UNL1        0.1541
      9 C          -3.9858  -16.9442   23.0146 C.ar    1  UNL1        0.1635
     10 N          -3.0775  -15.9639   22.3333 N.ar    1  UNL1       -0.2240
     11 C          -2.0786  -16.7402   21.5274 C.ar    1  UNL1        0.0892
     12 C          -0.9418  -16.3063   20.6504 C.ar    1  UNL1        0.0197
     13 C          -0.0958  -17.3324   19.9566 C.ar    1  UNL1        0.0016
     14 C          -0.3868  -18.7925   20.1397 C.ar    1  UNL1        0.0006
     15 C          -1.5237  -19.2264   21.0167 C.ar    1  UNL1        0.0081
     16 C          -2.3696  -18.2003   21.7105 C.ar    1  UNL1        0.0497
     17 S          -3.5483  -18.3263   22.6297 S.2     1  UNL1       -0.0515
     18 C         -10.7738  -17.5560   22.1199 C.3     1  UNL1        0.1240
     19 N         -11.8337  -17.8998   23.1241 N.ar    1  UNL1       -0.3045
     20 C         -13.2831  -17.5226   23.0404 C.ar    1  UNL1        0.0983
     21 C         -13.9754  -18.0709   24.2529 C.ar    1  UNL1        0.1193
     22 N         -12.9539  -18.7869   25.0859 N.ar    1  UNL1       -0.2223
     23 C         -11.6303  -18.6812   24.3883 C.ar    1  UNL1        0.1788
     24 C         -11.1225  -18.6776   19.8026 C.3     1  UNL1        0.0197
     25 C         -11.1246  -17.4506   20.6653 C.3     1  UNL1        0.0827
     26 N         -11.4777  -16.1183   20.0736 N.3     1  UNL1       -0.2696
     27 C         -10.4075  -15.0931   19.8423 C.3     1  UNL1        0.0897
     28 C         -12.9009  -15.8111   19.7132 C.3     1  UNL1        0.0897
@<TRIPOS>BOND
     1    25    24    1
     2    25    18    1
     3    18     1    1
     4     1     2   ar
     5     2     3   ar
     6     3     4   ar
     7     4     7    1
     8     7     9    1
     9     9    10   ar
    10    10    11   ar
    11    11    12   ar
    12    12    13   ar
    13    13    14   ar
    14    14    15   ar
    15    15    16   ar
    16    16    17   ar
    17     4     5   ar
    18     5     6   ar
    19    18    19    1
    20    19    20   ar
    21    20    21   ar
    22    21    22   ar
    23    22    23   ar
    24    25    26    1
    25    26    27    1
    26    26    28    1
    27     6     1   ar
    28    23    19   ar
    29    17     9   ar
    30    16    11   ar
    31     7     8    1
@<TRIPOS>MOLECULE
*****
 28 31 0 0 0
SMALL
GASTEIGER

@<TRIPOS>ATOM
      1 C          -8.6822  -18.4645   23.2340 C.ar    1  UNL1       -0.0004
      2 C          -7.7578  -17.6424   22.3857 C.ar    1  UNL1       -0.0011
      3 C          -6.7450  -18.3175   21.5089 C.ar    1  UNL1        0.0144
      4 C          -6.6566  -19.8146   21.4806 C.ar    1  UNL1        0.0497
      5 C          -7.5811  -20.6367   22.3290 C.ar    1  UNL1        0.0144
      6 C          -8.5938  -19.9616   23.2056 C.ar    1  UNL1       -0.0011
      7 N          -5.6439  -20.4897   20.6039 N.pl3   1  UNL1       -0.2927
      8 H          -5.8402  -21.3724   20.2147 H       1  UNL1        0.1541
      9 C          -4.3321  -19.8198   20.3203 C.ar    1  UNL1        0.1635
     10 N          -3.9925  -19.0311   19.0904 N.ar    1  UNL1       -0.2240
     11 C          -2.5801  -18.5449   19.2268 C.ar    1  UNL1        0.0892
     12 C          -1.7108  -17.7207   18.3241 C.ar    1  UNL1        0.0197
     13 C          -0.3080  -17.3848   18.7355 C.ar    1  UNL1        0.0016
     14 C           0.2255  -17.8730   20.0497 C.ar    1  UNL1        0.0006
     15 C          -0.6439  -18.6973   20.9524 C.ar    1  UNL1        0.0081
     16 C          -2.0466  -19.0332   20.5409 C.ar    1  UNL1        0.0497
     17 S          -3.1294  -19.8211   21.2168 S.2     1  UNL1       -0.0515
     18 C          -9.6950  -17.7894   24.1107 C.3     1  UNL1        0.1240
     19 N          -9.2472  -17.0133   25.3136 N.ar    1  UNL1       -0.3045
     20 C          -8.8494  -15.5670   25.3318 C.ar    1  UNL1        0.0983
     21 C          -8.4748  -15.2071   26.7391 C.ar    1  UNL1        0.1193
     22 N          -8.6412  -16.4307   27.5905 N.ar    1  UNL1       -0.2223
     23 C          -9.1185  -17.5470   26.7096 C.ar    1  UNL1        0.1788
     24 C         -12.0653  -18.7000   24.6603 C.3     1  UNL1        0.0197
     25 C         -11.1556  -17.8905   23.7845 C.3     1  UNL1        0.0827
     26 N         -11.7064  -17.1822   22.5825 N.3     1  UNL1       -0.2696
     27 C         -12.8520  -17.7788   21.8199 C.3     1  UNL1        0.0897
     28 C         -11.1116  -15.8772   22.1430 C.3     1  UNL1        0.0897
@<TRIPOS>BOND
     1    25    24    1
     2    25    18    1
     3    18     1    1
     4     1     2   ar
     5     2     3   ar
     6     3     4   ar
     7     4     7    1
     8     7     9    1
     9     9    10   ar
    10    10    11   ar
    11    11    12   ar
    12    12    13   ar
    13    13    14   ar
    14    14    15   ar
    15    15    16   ar
    16    16    17   ar
    17     4     5   ar
    18     5     6   ar
    19    18    19    1
    20    19    20   ar
    21    20    21   ar
    22    21    22   ar
    23    22    23   ar
    24    25    26    1
    25    26    27    1
    26    26    28    1
    27     6     1   ar
    28    23    19   ar
    29    17     9   ar
    30    16    11   ar
    31     7     8    1
@<TRIPOS>MOLECULE
*****
 28 31 0 0 0
SMALL
GASTEIGER

@<TRIPOS>ATOM
      1 C           2.6145   -0.1330   19.9088 C.ar    1  UNL1       -0.0004
      2 C           2.9828    1.2932   20.1924 C.ar    1  UNL1       -0.0011
      3 C           1.9476    2.2459   20.7129 C.ar    1  UNL1        0.0144
      4 C           0.5441    1.7724   20.9497 C.ar    1  UNL1        0.0497
      5 C           0.1758    0.3462   20.6660 C.ar    1  UNL1        0.0144
      6 C           1.2110   -0.6064   20.1456 C.ar    1  UNL1       -0.0011
      7 N          -0.4910    2.7250   21.4701 N.pl3   1  UNL1       -0.2927
      8 H          -0.4094    3.0917   22.3801 H       1  UNL1        0.1541
      9 C          -1.6506    3.1190   20.6040 C.ar    1  UNL1        0.1635
     10 N          -3.1000    2.8827   20.9100 N.ar    1  UNL1       -0.2240
     11 C          -3.9096    3.4361   19.7750 C.ar    1  UNL1        0.0892
     12 C          -5.3883    3.4881   19.5287 C.ar    1  UNL1        0.0197
     13 C          -5.9180    4.1185   18.2750 C.ar    1  UNL1        0.0016
     14 C          -4.9691    4.6969   17.2675 C.ar    1  UNL1        0.0006
     15 C          -3.4904    4.6449   17.5138 C.ar    1  UNL1        0.0081
     16 C          -2.9607    4.0145   18.7676 C.ar    1  UNL1        0.0497
     17 S          -1.5646    3.8185   19.2799 S.2     1  UNL1       -0.0515
     18 C           3.6497   -1.0857   19.3883 C.3     1  UNL1        0.1240
     19 N           3.9436   -2.3540   20.1332 N.ar    1  UNL1       -0.3045
     20 C           4.3967   -2.4540   21.5597 C.ar    1  UNL1        0.0983
     21 C           4.5692   -3.9069   21.8905 C.ar    1  UNL1        0.1193
     22 N           4.2227   -4.7049   20.6685 N.ar    1  UNL1       -0.2223
     23 C           3.8361   -3.7451   19.5825 C.ar    1  UNL1        0.1788
     24 C           3.6946   -0.8789   16.7990 C.3     1  UNL1        0.0197
     25 C           4.3909   -0.7700   18.1231 C.3     1  UNL1        0.0827
     26 N           5.8283   -0.3455   18.1819 N.3     1  UNL1       -0.2696
     27 C           6.9111   -1.3774   18.2938 C.3     1  UNL1        0.0897
     28 C           6.1830    1.1110   18.1289 C.3     1  UNL1        0.0897
@<TRIPOS>BOND
     1    25    24    1
     2    25    18    1
     3    18     1    1
     4     1     2   ar
     5     2     3   ar
     6     3     4   ar
     7     4     7    1
     8     7     9    1
     9     9    10   ar
    10    10    11   ar
    11    11    12   ar
    12    12    13   ar
    13    13    14   ar
    14    14    15   ar
    15    15    16   ar
    16    16    17   ar
    17     4     5   ar
    18     5     6   ar
    19    18    19    1
    20    19    20   ar
    21    20    21   ar
    22    21    22   ar
    23    22    23   ar
    24    25    26    1
    25    26    27    1
    26    26    28    1
    27     6     1   ar
    28    23    19   ar
    29    17     9   ar
    30    16    11   ar
    31     7     8    1
@<TRIPOS>MOLECULE
*****
 28 31 0 0 0
SMALL
GASTEIGER

@<TRIPOS>ATOM
      1 C           2.5852   -0.5454   20.3028 C.ar    1  UNL1       -0.0004
      2 C           1.0982   -0.7327   20.3638 C.ar    1  UNL1       -0.0011
      3 C           0.1871    0.4517   20.2325 C.ar    1  UNL1        0.0144
      4 C           0.7630    1.8233   20.0403 C.ar    1  UNL1        0.0497
      5 C           2.2501    2.0106   19.9794 C.ar    1  UNL1        0.0144
      6 C           3.1612    0.8262   20.1106 C.ar    1  UNL1       -0.0011
      7 N          -0.1480    3.0076   19.9090 N.pl3   1  UNL1       -0.2927
      8 H          -0.0021    3.6636   19.1895 H       1  UNL1        0.1541
      9 C          -1.2814    3.1926   20.8740 C.ar    1  UNL1        0.1635
     10 N          -2.7407    3.0483   20.5582 N.ar    1  UNL1       -0.2240
     11 C          -3.5158    3.3209   21.8132 C.ar    1  UNL1        0.0892
     12 C          -4.9874    3.3247   22.1031 C.ar    1  UNL1        0.0197
     13 C          -5.4789    3.6412   23.4845 C.ar    1  UNL1        0.0016
     14 C          -4.4986    3.9540   24.5759 C.ar    1  UNL1        0.0006
     15 C          -3.0269    3.9502   24.2860 C.ar    1  UNL1        0.0081
     16 C          -2.5355    3.6336   22.9046 C.ar    1  UNL1        0.0497
     17 S          -1.1546    3.5544   22.3242 S.2     1  UNL1       -0.0515
     18 C           3.4964   -1.7298   20.4341 C.3     1  UNL1        0.1240
     19 N           4.0668   -2.0924   21.7732 N.ar    1  UNL1       -0.3045
     20 C           5.1488   -3.0999   22.0271 C.ar    1  UNL1        0.0983
     21 C           5.4061   -3.1413   23.5043 C.ar    1  UNL1        0.1193
     22 N           4.4832   -2.1595   24.1633 N.ar    1  UNL1       -0.2223
     23 C           3.6555   -1.5112   23.0934 C.ar    1  UNL1        0.1788
     24 C           3.3417   -3.9630   19.1156 C.3     1  UNL1        0.0197
     25 C           3.8370   -2.5515   19.2264 C.3     1  UNL1        0.0827
     26 N           4.6730   -1.9617   18.1294 N.3     1  UNL1       -0.2696
     27 C           6.1549   -2.1925   18.1090 C.3     1  UNL1        0.0897
     28 C           4.0269   -1.1410   17.0528 C.3     1  UNL1        0.0897
@<TRIPOS>BOND
     1    25    24    1
     2    25    18    1
     3    18     1    1
     4     1     2   ar
     5     2     3   ar
     6     3     4   ar
     7     4     7    1
     8     7     9    1
     9     9    10   ar
    10    10    11   ar
    11    11    12   ar
    12    12    13   ar
    13    13    14   ar
    14    14    15   ar
    15    15    16   ar
    16    16    17   ar
    17     4     5   ar
    18     5     6   ar
    19    18    19    1
    20    19    20   ar
    21    20    21   ar
    22    21    22   ar
    23    22    23   ar
    24    25    26    1
    25    26    27    1
    26    26    28    1
    27     6     1   ar
    28    23    19   ar
    29    17     9   ar
    30    16    11   ar
    31     7     8    1
@<TRIPOS>MOLECULE
*****
 28 31 0 0 0
SMALL
GASTEIGER

@<TRIPOS>ATOM
      1 C           2.6558   -0.1608   20.4635 C.ar    1  UNL1       -0.0004
      2 C           1.2418   -0.5534   20.1533 C.ar    1  UNL1       -0.0011
      3 C           0.1069    0.3276   20.5848 C.ar    1  UNL1        0.0144
      4 C           0.3863    1.6012   21.3263 C.ar    1  UNL1        0.0497
      5 C           1.8004    1.9938   21.6365 C.ar    1  UNL1        0.0144
      6 C           2.9352    1.1128   21.2050 C.ar    1  UNL1       -0.0011
      7 N          -0.7485    2.4822   21.7578 N.pl3   1  UNL1       -0.2927
      8 H          -0.8548    2.7181   22.7077 H       1  UNL1        0.1541
      9 C          -1.7213    3.0036   20.7420 C.ar    1  UNL1        0.1635
     10 N          -3.2136    2.8621   20.7965 N.ar    1  UNL1       -0.2240
     11 C          -3.7872    3.5292   19.5816 C.ar    1  UNL1        0.0892
     12 C          -5.1985    3.7038   19.1046 C.ar    1  UNL1        0.0197
     13 C          -5.4720    4.4323   17.8222 C.ar    1  UNL1        0.0016
     14 C          -4.3342    4.9861   17.0169 C.ar    1  UNL1        0.0006
     15 C          -2.9228    4.8115   17.4939 C.ar    1  UNL1        0.0081
     16 C          -2.6493    4.0830   18.7762 C.ar    1  UNL1        0.0497
     17 S          -1.3725    3.7582   19.4934 S.2     1  UNL1       -0.0515
     18 C           3.7907   -1.0418   20.0320 C.3     1  UNL1        0.1240
     19 N           4.5985   -0.6845   18.8197 N.ar    1  UNL1       -0.3045
     20 C           6.0486   -0.3005   18.8082 C.ar    1  UNL1        0.0983
     21 C           6.4443   -0.0271   17.3873 C.ar    1  UNL1        0.1193
     22 N           5.2390   -0.2421   16.5208 N.ar    1  UNL1       -0.2223
     23 C           4.0982   -0.6483   17.4061 C.ar    1  UNL1        0.1788
     24 C           4.0008   -2.2763   22.3083 C.3     1  UNL1        0.0197
     25 C           4.1176   -2.2800   20.8129 C.3     1  UNL1        0.0827
     26 N           4.5614   -3.5220   20.0984 N.3     1  UNL1       -0.2696
     27 C           5.9998   -3.9441   20.1510 C.3     1  UNL1        0.0897
     28 C           3.5668   -4.3419   19.3312 C.3     1  UNL1        0.0897
@<TRIPOS>BOND
     1    25    24    1
     2    25    18    1
     3    18     1    1
     4     1     2   ar
     5     2     3   ar
     6     3     4   ar
     7     4     7    1
     8     7     9    1
     9     9    10   ar
    10    10    11   ar
    11    11    12   ar
    12    12    13   ar
    13    13    14   ar
    14    14    15   ar
    15    15    16   ar
    16    16    17   ar
    17     4     5   ar
    18     5     6   ar
    19    18    19    1
    20    19    20   ar
    21    20    21   ar
    22    21    22   ar
    23    22    23   ar
    24    25    26    1
    25    26    27    1
    26    26    28    1
    27     6     1   ar
    28    23    19   ar
    29    17     9   ar
    30    16    11   ar
    31     7     8    1
@<TRIPOS>MOLECULE
*****
 28 31 0 0 0
SMALL
GASTEIGER

@<TRIPOS>ATOM
      1 C           2.7964   -0.9606   20.9778 C.ar    1  UNL1       -0.0004
      2 C           3.0039    0.0336   22.0816 C.ar    1  UNL1       -0.0011
      3 C           1.9398    1.0449   22.3901 C.ar    1  UNL1        0.0144
      4 C           0.6682    1.0618   21.5947 C.ar    1  UNL1        0.0497
      5 C           0.4607    0.0675   20.4908 C.ar    1  UNL1        0.0144
      6 C           1.5247   -0.9436   20.1824 C.ar    1  UNL1       -0.0011
      7 N          -0.3959    2.0730   21.9031 N.pl3   1  UNL1       -0.2927
      8 H          -0.6134    2.2890   22.8387 H       1  UNL1        0.1541
      9 C          -1.1287    2.7551   20.7861 C.ar    1  UNL1        0.1635
     10 N          -2.6183    2.8373   20.6294 N.ar    1  UNL1       -0.2240
     11 C          -2.9108    3.6078   19.3761 C.ar    1  UNL1        0.0892
     12 C          -4.1998    4.0014   18.7178 C.ar    1  UNL1        0.0197
     13 C          -4.1800    4.7891   17.4414 C.ar    1  UNL1        0.0016
     14 C          -2.8713    5.1832   16.8234 C.ar    1  UNL1        0.0006
     15 C          -1.5823    4.7895   17.4818 C.ar    1  UNL1        0.0081
     16 C          -1.6021    4.0018   18.7581 C.ar    1  UNL1        0.0497
     17 S          -0.5007    3.4748   19.6295 S.2     1  UNL1       -0.0515
     18 C           3.8605   -1.9719   20.6693 C.3     1  UNL1        0.1240
     19 N           4.8318   -2.3871   21.7343 N.ar    1  UNL1       -0.3045
     20 C           4.6289   -3.4893   22.7314 C.ar    1  UNL1        0.0983
     21 C           5.8483   -3.5565   23.6025 C.ar    1  UNL1        0.1193
     22 N           6.8047   -2.4958   23.1438 N.ar    1  UNL1       -0.2223
     23 C           6.1764   -1.7732   21.9892 C.ar    1  UNL1        0.1788
     24 C           3.3675   -3.9218   19.0248 C.3     1  UNL1        0.0197
     25 C           3.9533   -2.5678   19.2960 C.3     1  UNL1        0.0827
     26 N           4.6319   -1.8098   18.1937 N.3     1  UNL1       -0.2696
     27 C           6.1248   -1.8604   18.0574 C.3     1  UNL1        0.0897
     28 C           3.8176   -1.0011   17.2279 C.3     1  UNL1        0.0897
@<TRIPOS>BOND
     1    25    24    1
     2    25    18    1
     3    18     1    1
     4     1     2   ar
     5     2     3   ar
     6     3     4   ar
     7     4     7    1
     8     7     9    1
     9     9    10   ar
    10    10    11   ar
    11    11    12   ar
    12    12    13   ar
    13    13    14   ar
    14    14    15   ar
    15    15    16   ar
    16    16    17   ar
    17     4     5   ar
    18     5     6   ar
    19    18    19    1
    20    19    20   ar
    21    20    21   ar
    22    21    22   ar
    23    22    23   ar
    24    25    26    1
    25    26    27    1
    26    26    28    1
    27     6     1   ar
    28    23    19   ar
    29    17     9   ar
    30    16    11   ar
    31     7     8    1
@<TRIPOS>MOLECULE
*****
 28 31 0 0 0
SMALL
GASTEIGER

@<TRIPOS>ATOM
      1 C          -8.5652  -18.3173   23.3391 C.ar    1  UNL1       -0.0004
      2 C          -8.6626  -19.8041   23.1666 C.ar    1  UNL1       -0.0011
      3 C          -7.6476  -20.5307   22.3347 C.ar    1  UNL1        0.0144
      4 C          -6.5353  -19.7704   21.6754 C.ar    1  UNL1        0.0497
      5 C          -6.4380  -18.2834   21.8480 C.ar    1  UNL1        0.0144
      6 C          -7.4529  -17.5569   22.6798 C.ar    1  UNL1       -0.0011
      7 N          -5.5203  -20.4969   20.8436 N.pl3   1  UNL1       -0.2927
      8 H          -5.7017  -21.4143   20.5359 H       1  UNL1        0.1541
      9 C          -4.2289  -19.8257   20.4807 C.ar    1  UNL1        0.1635
     10 N          -3.9426  -19.0985   19.2003 N.ar    1  UNL1       -0.2240
     11 C          -2.5338  -18.5871   19.2627 C.ar    1  UNL1        0.0892
     12 C          -1.7076  -17.8003   18.2889 C.ar    1  UNL1        0.0197
     13 C          -0.2971  -17.4246   18.6340 C.ar    1  UNL1        0.0016
     14 C           0.2873  -17.8358   19.9529 C.ar    1  UNL1        0.0006
     15 C          -0.5388  -18.6226   20.9266 C.ar    1  UNL1        0.0081
     16 C          -1.9494  -18.9983   20.5815 C.ar    1  UNL1        0.0497
     17 S          -2.9970  -19.7638   21.3343 S.2     1  UNL1       -0.0515
     18 C          -9.5802  -17.5907   24.1709 C.3     1  UNL1        0.1240
     19 N         -10.9678  -17.3763   23.6430 N.ar    1  UNL1       -0.3045
     20 C         -11.4047  -16.2622   22.7386 C.ar    1  UNL1        0.0983
     21 C         -12.8691  -16.4358   22.4635 C.ar    1  UNL1        0.1193
     22 N         -13.3371  -17.6571   23.1978 N.ar    1  UNL1       -0.2223
     23 C         -12.1621  -18.2383   23.9268 C.ar    1  UNL1        0.1788
     24 C          -9.5084  -17.8992   26.7496 C.3     1  UNL1        0.0197
     25 C          -9.2077  -17.0785   25.5306 C.3     1  UNL1        0.0827
     26 N          -8.5343  -15.7455   25.6714 N.3     1  UNL1       -0.2696
     27 C          -8.1053  -15.2611   27.0246 C.3     1  UNL1        0.0897
     28 C          -8.2900  -14.8969   24.4589 C.3     1  UNL1        0.0897
@<TRIPOS>BOND
     1    25    24    1
     2    25    18    1
     3    18     1    1
     4     1     2   ar
     5     2     3   ar
     6     3     4   ar
     7     4     7    1
     8     7     9    1
     9     9    10   ar
    10    10    11   ar
    11    11    12   ar
    12    12    13   ar
    13    13    14   ar
    14    14    15   ar
    15    15    16   ar
    16    16    17   ar
    17     4     5   ar
    18     5     6   ar
    19    18    19    1
    20    19    20   ar
    21    20    21   ar
    22    21    22   ar
    23    22    23   ar
    24    25    26    1
    25    26    27    1
    26    26    28    1
    27     6     1   ar
    28    23    19   ar
    29    17     9   ar
    30    16    11   ar
    31     7     8    1
@<TRIPOS>MOLECULE
*****
 28 31 0 0 0
SMALL
GASTEIGER

@<TRIPOS>ATOM
      1 C           2.7507    0.1861   20.1383 C.ar    1  UNL1       -0.0004
      2 C           2.9845    1.6610   19.9968 C.ar    1  UNL1       -0.0011
      3 C           1.8182    2.5992   19.8984 C.ar    1  UNL1        0.0144
      4 C           0.4182    2.0625   19.9416 C.ar    1  UNL1        0.0497
      5 C           0.1844    0.5876   20.0831 C.ar    1  UNL1        0.0144
      6 C           1.3506   -0.3506   20.1815 C.ar    1  UNL1       -0.0011
      7 N          -0.7481    3.0007   19.8432 N.pl3   1  UNL1       -0.2927
      8 H          -0.9142    3.4935   19.0073 H       1  UNL1        0.1541
      9 C          -1.6612    3.1880   21.0184 C.ar    1  UNL1        0.1635
     10 N          -3.1527    3.0294   21.0102 N.ar    1  UNL1       -0.2240
     11 C          -3.6565    3.3101   22.3949 C.ar    1  UNL1        0.0892
     12 C          -5.0373    3.3063   22.9806 C.ar    1  UNL1        0.0197
     13 C          -5.2380    3.6345   24.4304 C.ar    1  UNL1        0.0016
     14 C          -4.0577    3.9666   25.2945 C.ar    1  UNL1        0.0006
     15 C          -2.6768    3.9704   24.7088 C.ar    1  UNL1        0.0081
     16 C          -2.4762    3.6422   23.2590 C.ar    1  UNL1        0.0497
     17 S          -1.2431    3.5667   22.4083 S.2     1  UNL1       -0.0515
     18 C           3.9169   -0.7521   20.2367 C.3     1  UNL1        0.1240
     19 N           5.0304   -0.6722   19.2348 N.ar    1  UNL1       -0.3045
     20 C           6.4125   -0.1490   19.4924 C.ar    1  UNL1        0.0983
     21 C           7.1935   -0.2548   18.2161 C.ar    1  UNL1        0.1193
     22 N           6.2942   -0.8434   17.1698 N.ar    1  UNL1       -0.2223
     23 C           4.9573   -1.1013   17.7993 C.ar    1  UNL1        0.1788
     24 C           3.4604   -1.4236   22.7045 C.3     1  UNL1        0.0197
     25 C           3.9697   -1.7702   21.3369 C.3     1  UNL1        0.0827
     26 N           4.5318   -3.1350   21.0696 N.3     1  UNL1       -0.2696
     27 C           3.9358   -3.9941   19.9941 C.3     1  UNL1        0.0897
     28 C           5.6900   -3.6406   21.8776 C.3     1  UNL1        0.0897
@<TRIPOS>BOND
     1    25    24    1
     2    25    18    1
     3    18     1    1
     4     1     2   ar
     5     2     3   ar
     6     3     4   ar
     7     4     7    1
     8     7     9    1
     9     9    10   ar
    10    10    11   ar
    11    11    12   ar
    12    12    13   ar
    13    13    14   ar
    14    14    15   ar
    15    15    16   ar
    16    16    17   ar
    17     4     5   ar
    18     5     6   ar
    19    18    19    1
    20    19    20   ar
    21    20    21   ar
    22    21    22   ar
    23    22    23   ar
    24    25    26    1
    25    26    27    1
    26    26    28    1
    27     6     1   ar
    28    23    19   ar
    29    17     9   ar
    30    16    11   ar
    31     7     8    1
