@<TRIPOS>MOLECULE
*****
 28 31 0 0 0
SMALL
GASTEIGER

@<TRIPOS>ATOM
      1 N          -6.9855  -19.9283   20.3769 N.ar    1  UNL1       -0.3220
      2 C          -8.3434  -19.5887   20.9162 C.ar    1  UNL1        0.0740
      3 C          -8.1964  -18.4119   21.8346 C.ar    1  UNL1        0.0211
      4 C          -6.7476  -18.0241   21.8629 C.ar    1  UNL1        0.0165
      5 C          -5.9992  -18.9613   20.9620 C.ar    1  UNL1        0.0599
      6 C          -4.5237  -18.9360   20.6934 C.ar    1  UNL1        0.0159
      7 C          -4.0149  -18.5467   19.3372 C.ar    1  UNL1        0.0023
      8 C          -2.5394  -18.5214   19.0686 C.ar    1  UNL1        0.0114
      9 C          -1.5727  -18.8853   20.1562 C.ar    1  UNL1        0.0577
     10 CL         -0.0972  -18.8600   19.8875 Cl      1  UNL1       -0.0822
     11 C          -2.0815  -19.2746   21.5125 C.ar    1  UNL1        0.0114
     12 C          -3.5570  -19.2999   21.7811 C.ar    1  UNL1        0.0023
     13 C          -6.6693  -21.0397   19.4204 C.3     1  UNL1        0.1325
     14 C          -8.7107  -21.2344   17.8250 C.2     1  UNL1       -0.0029
     15 C          -7.7787  -21.8541   18.8238 C.2     1  UNL1       -0.0018
     16 C          -9.3037  -17.7407   22.5917 C.3     1  UNL1        0.1336
     17 C          -9.0310  -17.1283   23.9337 C.ar    1  UNL1        0.0026
     18 C          -8.4432  -15.7513   24.0242 C.ar    1  UNL1       -0.0013
     19 C          -8.1705  -15.1390   25.3660 C.ar    1  UNL1        0.0111
     20 C          -8.4856  -15.9037   26.6174 C.ar    1  UNL1        0.0577
     21 CL         -8.2128  -15.2913   27.9593 Cl      1  UNL1       -0.0822
     22 C          -9.0733  -17.2808   26.5269 C.ar    1  UNL1        0.0111
     23 C          -9.3460  -17.8931   25.1850 C.ar    1  UNL1       -0.0013
     24 N         -10.6838  -17.6818   22.0070 N.ar    1  UNL1       -0.3019
     25 C         -11.9146  -18.3139   22.5865 C.ar    1  UNL1        0.0985
     26 C         -13.0669  -18.0033   21.6778 C.ar    1  UNL1        0.1193
     27 N         -12.5483  -17.1793   20.5367 N.ar    1  UNL1       -0.2223
     28 C         -11.0755  -16.9806   20.7402 C.ar    1  UNL1        0.1791
@<TRIPOS>BOND
     1    14    15    2
     2    15    13    1
     3    13     1    1
     4     1     2   ar
     5     2     3   ar
     6     3    16    1
     7    16    17    1
     8    17    18   ar
     9    18    19   ar
    10    19    20   ar
    11    20    21    1
    12    20    22   ar
    13    22    23   ar
    14    16    24    1
    15    24    25   ar
    16    25    26   ar
    17    26    27   ar
    18    27    28   ar
    19     3     4   ar
    20     4     5   ar
    21     5     6    1
    22     6     7   ar
    23     7     8   ar
    24     8     9   ar
    25     9    10    1
    26     9    11   ar
    27    11    12   ar
    28     5     1   ar
    29    12     6   ar
    30    23    17   ar
    31    28    24   ar
@<TRIPOS>MOLECULE
*****
 28 31 0 0 0
SMALL
GASTEIGER

@<TRIPOS>ATOM
      1 N          -6.7114  -19.6231   21.5434 N.ar    1  UNL1       -0.3220
      2 C          -7.9365  -19.2719   22.3344 C.ar    1  UNL1        0.0740
      3 C          -7.6285  -18.0499   23.1480 C.ar    1  UNL1        0.0211
      4 C          -6.2129  -17.6459   22.8598 C.ar    1  UNL1        0.0165
      5 C          -5.6461  -18.6181   21.8681 C.ar    1  UNL1        0.0599
      6 C          -4.2578  -18.5903   21.3008 C.ar    1  UNL1        0.0159
      7 C          -4.0524  -18.6649   19.8168 C.ar    1  UNL1        0.0023
      8 C          -2.6642  -18.6371   19.2495 C.ar    1  UNL1        0.0114
      9 C          -1.4813  -18.5348   20.1660 C.ar    1  UNL1        0.0577
     10 CL         -0.0930  -18.5070   19.5987 Cl      1  UNL1       -0.0822
     11 C          -1.6866  -18.4602   21.6500 C.ar    1  UNL1        0.0114
     12 C          -3.0749  -18.4879   22.2174 C.ar    1  UNL1        0.0023
     13 C          -6.5753  -20.7767   20.5944 C.3     1  UNL1        0.1325
     14 C          -8.3697  -19.7144   19.0445 C.2     1  UNL1       -0.0029
     15 C          -7.3867  -20.8101   19.3332 C.2     1  UNL1       -0.0018
     16 C          -8.5706  -17.3542   24.0852 C.3     1  UNL1        0.1336
     17 C         -10.0502  -17.5616   23.9522 C.ar    1  UNL1        0.0026
     18 C         -10.8517  -16.6826   23.0385 C.ar    1  UNL1       -0.0013
     19 C         -12.3313  -16.8901   22.9056 C.ar    1  UNL1        0.0111
     20 C         -13.0094  -17.9766   23.6864 C.ar    1  UNL1        0.0577
     21 CL        -14.4891  -18.1841   23.5534 Cl      1  UNL1       -0.0822
     22 C         -12.2079  -18.8557   24.6001 C.ar    1  UNL1        0.0111
     23 C         -10.7283  -18.6482   24.7330 C.ar    1  UNL1       -0.0013
     24 N          -8.0331  -16.4509   25.1553 N.ar    1  UNL1       -0.3019
     25 C          -8.4649  -16.4316   26.5917 C.ar    1  UNL1        0.0985
     26 C          -7.6681  -15.3771   27.3011 C.ar    1  UNL1        0.1193
     27 N          -6.7438  -14.7448   26.3032 N.ar    1  UNL1       -0.2223
     28 C          -6.9694  -15.4084   24.9770 C.ar    1  UNL1        0.1791
@<TRIPOS>BOND
     1    14    15    2
     2    15    13    1
     3    13     1    1
     4     1     2   ar
     5     2     3   ar
     6     3    16    1
     7    16    17    1
     8    17    18   ar
     9    18    19   ar
    10    19    20   ar
    11    20    21    1
    12    20    22   ar
    13    22    23   ar
    14    16    24    1
    15    24    25   ar
    16    25    26   ar
    17    26    27   ar
    18    27    28   ar
    19     3     4   ar
    20     4     5   ar
    21     5     6    1
    22     6     7   ar
    23     7     8   ar
    24     8     9   ar
    25     9    10    1
    26     9    11   ar
    27    11    12   ar
    28     5     1   ar
    29    12     6   ar
    30    23    17   ar
    31    28    24   ar
@<TRIPOS>MOLECULE
*****
 28 31 0 0 0
SMALL
GASTEIGER

@<TRIPOS>ATOM
      1 N          -8.6826  -17.2900   23.1820 N.ar    1  UNL1       -0.3220
      2 C          -7.4669  -17.6317   22.3725 C.ar    1  UNL1        0.0740
      3 C          -7.8087  -18.7972   21.4923 C.ar    1  UNL1        0.0211
      4 C          -9.2357  -19.1758   21.7578 C.ar    1  UNL1        0.0165
      5 C          -9.7758  -18.2443   22.8021 C.ar    1  UNL1        0.0599
      6 C         -11.1652  -18.2636   23.3672 C.ar    1  UNL1        0.0159
      7 C         -11.4192  -18.8766   24.7124 C.ar    1  UNL1        0.0023
      8 C         -12.8085  -18.8960   25.2775 C.ar    1  UNL1        0.0114
      9 C         -13.9438  -18.3023   24.4975 C.ar    1  UNL1        0.0577
     10 CL        -15.3331  -18.3216   25.0626 Cl      1  UNL1       -0.0822
     11 C         -13.6898  -17.6892   23.1522 C.ar    1  UNL1        0.0114
     12 C         -12.3005  -17.6699   22.5871 C.ar    1  UNL1        0.0023
     13 C          -8.7869  -16.1874   24.1937 C.3     1  UNL1        0.1325
     14 C          -8.2099  -15.5142   26.6359 C.2     1  UNL1       -0.0029
     15 C          -8.7625  -16.5090   25.6586 C.2     1  UNL1       -0.0018
     16 C          -6.8856  -19.4666   20.5178 C.3     1  UNL1        0.1336
     17 C          -5.4068  -19.2297   20.6014 C.ar    1  UNL1        0.0026
     18 C          -4.6712  -19.5218   21.8755 C.ar    1  UNL1       -0.0013
     19 C          -3.1925  -19.2848   21.9591 C.ar    1  UNL1        0.0111
     20 C          -2.4492  -18.7557   20.7684 C.ar    1  UNL1        0.0577
     21 CL         -0.9704  -18.5187   20.8520 Cl      1  UNL1       -0.0822
     22 C          -3.1848  -18.4636   19.4942 C.ar    1  UNL1        0.0111
     23 C          -4.6636  -18.7006   19.4107 C.ar    1  UNL1       -0.0013
     24 N          -7.4413  -20.3730   19.4596 N.ar    1  UNL1       -0.3019
     25 C          -8.5970  -20.0663   18.5539 C.ar    1  UNL1        0.0985
     26 C          -8.8088  -21.2490   17.6559 C.ar    1  UNL1        0.1193
     27 N          -7.7841  -22.2867   18.0067 N.ar    1  UNL1       -0.2223
     28 C          -6.9389  -21.7453   19.1214 C.ar    1  UNL1        0.1791
@<TRIPOS>BOND
     1    14    15    2
     2    15    13    1
     3    13     1    1
     4     1     2   ar
     5     2     3   ar
     6     3    16    1
     7    16    17    1
     8    17    18   ar
     9    18    19   ar
    10    19    20   ar
    11    20    21    1
    12    20    22   ar
    13    22    23   ar
    14    16    24    1
    15    24    25   ar
    16    25    26   ar
    17    26    27   ar
    18    27    28   ar
    19     3     4   ar
    20     4     5   ar
    21     5     6    1
    22     6     7   ar
    23     7     8   ar
    24     8     9   ar
    25     9    10    1
    26     9    11   ar
    27    11    12   ar
    28     5     1   ar
    29    12     6   ar
    30    23    17   ar
    31    28    24   ar
@<TRIPOS>MOLECULE
*****
 28 31 0 0 0
SMALL
GASTEIGER

@<TRIPOS>ATOM
      1 N           4.0717   -3.2373   20.8978 N.ar    1  UNL1       -0.3220
      2 C           4.8981   -3.8404   21.9948 C.ar    1  UNL1        0.0740
      3 C           5.0586   -2.8108   23.0737 C.ar    1  UNL1        0.0211
      4 C           4.3313   -1.5714   22.6436 C.ar    1  UNL1        0.0165
      5 C           3.7214   -1.8350   21.2988 C.ar    1  UNL1        0.0599
      6 C           2.9045   -0.8664   20.4960 C.ar    1  UNL1        0.0159
      7 C           3.5427   -0.0892   19.3831 C.ar    1  UNL1        0.0023
      8 C           2.7259    0.8795   18.5803 C.ar    1  UNL1        0.0114
      9 C           1.2709    1.0709   18.8904 C.ar    1  UNL1        0.0577
     10 CL          0.4541    2.0395   18.0875 Cl      1  UNL1       -0.0822
     11 C           0.6326    0.2937   20.0033 C.ar    1  UNL1        0.0114
     12 C           1.4495   -0.6749   20.8061 C.ar    1  UNL1        0.0023
     13 C           3.6667   -3.9172   19.6236 C.3     1  UNL1        0.1325
     14 C           5.5726   -2.9318   18.1584 C.2     1  UNL1       -0.0029
     15 C           4.6561   -4.0672   18.5062 C.2     1  UNL1       -0.0018
     16 C           5.8137   -2.9893   24.3574 C.3     1  UNL1        0.1336
     17 C           6.6284   -4.2286   24.5823 C.ar    1  UNL1        0.0026
     18 C           7.4921   -4.7684   23.4812 C.ar    1  UNL1       -0.0013
     19 C           8.3067   -6.0076   23.7061 C.ar    1  UNL1        0.0111
     20 C           8.2576   -6.7071   25.0321 C.ar    1  UNL1        0.0577
     21 CL          9.0723   -7.9464   25.2570 Cl      1  UNL1       -0.0822
     22 C           7.3939   -6.1673   26.1332 C.ar    1  UNL1        0.0111
     23 C           6.5793   -4.9280   25.9083 C.ar    1  UNL1       -0.0013
     24 N           5.7542   -1.9285   25.4163 N.ar    1  UNL1       -0.3019
     25 C           6.8786   -1.0213   25.8196 C.ar    1  UNL1        0.0985
     26 C           6.3792   -0.1208   26.9103 C.ar    1  UNL1        0.1193
     27 N           4.9461   -0.4714   27.1811 N.ar    1  UNL1       -0.2223
     28 C           4.5599   -1.5887   26.2578 C.ar    1  UNL1        0.1791
@<TRIPOS>BOND
     1    14    15    2
     2    15    13    1
     3    13     1    1
     4     1     2   ar
     5     2     3   ar
     6     3    16    1
     7    16    17    1
     8    17    18   ar
     9    18    19   ar
    10    19    20   ar
    11    20    21    1
    12    20    22   ar
    13    22    23   ar
    14    16    24    1
    15    24    25   ar
    16    25    26   ar
    17    26    27   ar
    18    27    28   ar
    19     3     4   ar
    20     4     5   ar
    21     5     6    1
    22     6     7   ar
    23     7     8   ar
    24     8     9   ar
    25     9    10    1
    26     9    11   ar
    27    11    12   ar
    28     5     1   ar
    29    12     6   ar
    30    23    17   ar
    31    28    24   ar
@<TRIPOS>MOLECULE
*****
 28 31 0 0 0
SMALL
GASTEIGER

@<TRIPOS>ATOM
      1 N           0.3818    2.9853   22.8862 N.ar    1  UNL1       -0.3220
      2 C          -0.2450    3.5885   24.1081 C.ar    1  UNL1        0.0740
      3 C          -0.3094    2.5284   25.1674 C.ar    1  UNL1        0.0211
      4 C           0.2777    1.2700   24.6001 C.ar    1  UNL1        0.0165
      5 C           0.7049    1.5523   23.1903 C.ar    1  UNL1        0.0599
      6 C           1.3431    0.5736   22.2497 C.ar    1  UNL1        0.0159
      7 C           0.6756    0.2390   20.9488 C.ar    1  UNL1        0.0023
      8 C           1.3138   -0.7397   20.0082 C.ar    1  UNL1        0.0114
      9 C           2.6196   -1.3838   20.3684 C.ar    1  UNL1        0.0577
     10 CL          3.2578   -2.3625   19.4278 Cl      1  UNL1       -0.0822
     11 C           3.2873   -1.0492   21.6693 C.ar    1  UNL1        0.0114
     12 C           2.6490   -0.0705   22.6099 C.ar    1  UNL1        0.0023
     13 C           0.6403    3.6910   21.5880 C.3     1  UNL1        0.1325
     14 C          -1.6944    3.0845   20.6228 C.2     1  UNL1       -0.0029
     15 C          -0.4970    3.9874   20.6561 C.2     1  UNL1       -0.0018
     16 C          -0.8636    2.6972   26.5510 C.3     1  UNL1        0.1336
     17 C          -1.8871    3.7591   26.8246 C.ar    1  UNL1        0.0026
     18 C          -3.3400    3.4826   26.5748 C.ar    1  UNL1       -0.0013
     19 C          -4.3634    4.5446   26.8485 C.ar    1  UNL1        0.0111
     20 C          -3.9339    5.8830   27.3720 C.ar    1  UNL1        0.0577
     21 CL         -4.9573    6.9450   27.6456 Cl      1  UNL1       -0.0822
     22 C          -2.4809    6.1595   27.6218 C.ar    1  UNL1        0.0111
     23 C          -1.4575    5.0976   27.3481 C.ar    1  UNL1       -0.0013
     24 N          -0.3944    1.8040   27.6609 N.ar    1  UNL1       -0.3019
     25 C           0.9556    1.8434   28.3135 C.ar    1  UNL1        0.0985
     26 C           0.9916    0.7784   29.3691 C.ar    1  UNL1        0.1193
     27 N          -0.3363    0.0806   29.3690 N.ar    1  UNL1       -0.2223
     28 C          -1.1928    0.7145   28.3133 C.ar    1  UNL1        0.1791
@<TRIPOS>BOND
     1    14    15    2
     2    15    13    1
     3    13     1    1
     4     1     2   ar
     5     2     3   ar
     6     3    16    1
     7    16    17    1
     8    17    18   ar
     9    18    19   ar
    10    19    20   ar
    11    20    21    1
    12    20    22   ar
    13    22    23   ar
    14    16    24    1
    15    24    25   ar
    16    25    26   ar
    17    26    27   ar
    18    27    28   ar
    19     3     4   ar
    20     4     5   ar
    21     5     6    1
    22     6     7   ar
    23     7     8   ar
    24     8     9   ar
    25     9    10    1
    26     9    11   ar
    27    11    12   ar
    28     5     1   ar
    29    12     6   ar
    30    23    17   ar
    31    28    24   ar
@<TRIPOS>MOLECULE
*****
 28 31 0 0 0
SMALL
GASTEIGER

@<TRIPOS>ATOM
      1 N           0.8690    2.8160   22.9496 N.ar    1  UNL1       -0.3220
      2 C           0.2288    3.3914   24.1780 C.ar    1  UNL1        0.0740
      3 C           0.0036    2.2722   25.1510 C.ar    1  UNL1        0.0211
      4 C           0.5046    1.0050   24.5239 C.ar    1  UNL1        0.0165
      5 C           1.0395    1.3411   23.1634 C.ar    1  UNL1        0.0599
      6 C           1.6395    0.3723   22.1879 C.ar    1  UNL1        0.0159
      7 C           2.9361   -0.3097   22.5094 C.ar    1  UNL1        0.0023
      8 C           3.5361   -1.2784   21.5339 C.ar    1  UNL1        0.0114
      9 C           2.8394   -1.5651   20.2369 C.ar    1  UNL1        0.0577
     10 CL          3.4393   -2.5338   19.2615 Cl      1  UNL1       -0.0822
     11 C           1.5427   -0.8831   19.9154 C.ar    1  UNL1        0.0114
     12 C           0.9427    0.0856   20.8908 C.ar    1  UNL1        0.0023
     13 C           1.2686    3.5811   21.7228 C.3     1  UNL1        0.1325
     14 C          -1.0891    3.1854   20.7055 C.2     1  UNL1       -0.0029
     15 C           0.3024    3.7325   20.5855 C.2     1  UNL1       -0.0018
     16 C          -0.6141    2.3981   26.5120 C.3     1  UNL1        0.1336
     17 C          -1.5537    3.5295   26.8075 C.ar    1  UNL1        0.0026
     18 C          -1.0276    4.8098   27.3856 C.ar    1  UNL1       -0.0013
     19 C          -1.9672    5.9411   27.6811 C.ar    1  UNL1        0.0111
     20 C          -3.4328    5.7922   27.3985 C.ar    1  UNL1        0.0577
     21 CL         -4.3723    6.9236   27.6940 Cl      1  UNL1       -0.0822
     22 C          -3.9588    4.5119   26.8204 C.ar    1  UNL1        0.0111
     23 C          -3.0193    3.3806   26.5250 C.ar    1  UNL1       -0.0013
     24 N          -0.2924    1.3927   27.5776 N.ar    1  UNL1       -0.3019
     25 C           1.0820    0.9806   28.0150 C.ar    1  UNL1        0.0985
     26 C           0.9353   -0.0440   29.1007 C.ar    1  UNL1        0.1193
     27 N          -0.5298   -0.2653   29.3343 N.ar    1  UNL1       -0.2223
     28 C          -1.2885    0.6226   28.3930 C.ar    1  UNL1        0.1791
@<TRIPOS>BOND
     1    14    15    2
     2    15    13    1
     3    13     1    1
     4     1     2   ar
     5     2     3   ar
     6     3    16    1
     7    16    17    1
     8    17    18   ar
     9    18    19   ar
    10    19    20   ar
    11    20    21    1
    12    20    22   ar
    13    22    23   ar
    14    16    24    1
    15    24    25   ar
    16    25    26   ar
    17    26    27   ar
    18    27    28   ar
    19     3     4   ar
    20     4     5   ar
    21     5     6    1
    22     6     7   ar
    23     7     8   ar
    24     8     9   ar
    25     9    10    1
    26     9    11   ar
    27    11    12   ar
    28     5     1   ar
    29    12     6   ar
    30    23    17   ar
    31    28    24   ar
@<TRIPOS>MOLECULE
*****
 28 31 0 0 0
SMALL
GASTEIGER

@<TRIPOS>ATOM
      1 N          -8.9511  -17.3474   22.7530 N.ar    1  UNL1       -0.3220
      2 C          -8.6604  -18.1859   21.5438 C.ar    1  UNL1        0.0740
      3 C          -7.1866  -18.4638   21.5157 C.ar    1  UNL1        0.0211
      4 C          -6.5664  -17.7969   22.7077 C.ar    1  UNL1        0.0165
      5 C          -7.6569  -17.1069   23.4724 C.ar    1  UNL1        0.0599
      6 C          -7.4837  -16.3155   24.7347 C.ar    1  UNL1        0.0159
      7 C          -6.1812  -15.6265   25.0152 C.ar    1  UNL1        0.0023
      8 C          -6.0080  -14.8351   26.2776 C.ar    1  UNL1        0.0114
      9 C          -7.1372  -14.7326   27.2595 C.ar    1  UNL1        0.0577
     10 CL         -6.9640  -13.9412   28.5218 Cl      1  UNL1       -0.0822
     11 C          -8.4398  -15.4216   26.9790 C.ar    1  UNL1        0.0114
     12 C          -8.6130  -16.2130   25.7167 C.ar    1  UNL1        0.0023
     13 C         -10.2992  -16.8385   23.1697 C.3     1  UNL1        0.1325
     14 C         -11.0473  -18.9453   24.4935 C.2     1  UNL1       -0.0029
     15 C         -11.3727  -17.8043   23.5757 C.2     1  UNL1       -0.0018
     16 C          -6.4605  -19.2674   20.4780 C.3     1  UNL1        0.1336
     17 C          -4.9719  -19.1440   20.3399 C.ar    1  UNL1        0.0026
     18 C          -4.0681  -19.8406   21.3134 C.ar    1  UNL1       -0.0013
     19 C          -2.5796  -19.7172   21.1752 C.ar    1  UNL1        0.0111
     20 C          -1.9950  -18.8972   20.0636 C.ar    1  UNL1        0.0577
     21 CL         -0.5064  -18.7739   19.9254 Cl      1  UNL1       -0.0822
     22 C          -2.8988  -18.2006   19.0901 C.ar    1  UNL1        0.0111
     23 C          -4.3873  -18.3240   19.2282 C.ar    1  UNL1       -0.0013
     24 N          -7.2229  -20.1944   19.5783 N.ar    1  UNL1       -0.3019
     25 C          -8.4665  -19.8542   18.8116 C.ar    1  UNL1        0.0985
     26 C          -8.8878  -21.0739   18.0468 C.ar    1  UNL1        0.1193
     27 N          -7.9046  -22.1679   18.3409 N.ar    1  UNL1       -0.2223
     28 C          -6.8756  -21.6243   19.2874 C.ar    1  UNL1        0.1791
@<TRIPOS>BOND
     1    14    15    2
     2    15    13    1
     3    13     1    1
     4     1     2   ar
     5     2     3   ar
     6     3    16    1
     7    16    17    1
     8    17    18   ar
     9    18    19   ar
    10    19    20   ar
    11    20    21    1
    12    20    22   ar
    13    22    23   ar
    14    16    24    1
    15    24    25   ar
    16    25    26   ar
    17    26    27   ar
    18    27    28   ar
    19     3     4   ar
    20     4     5   ar
    21     5     6    1
    22     6     7   ar
    23     7     8   ar
    24     8     9   ar
    25     9    10    1
    26     9    11   ar
    27    11    12   ar
    28     5     1   ar
    29    12     6   ar
    30    23    17   ar
    31    28    24   ar
@<TRIPOS>MOLECULE
*****
 28 31 0 0 0
SMALL
GASTEIGER

@<TRIPOS>ATOM
      1 N           2.2565    2.4372   23.4675 N.ar    1  UNL1       -0.3220
      2 C           1.4695    3.0964   24.5612 C.ar    1  UNL1        0.0740
      3 C           0.4150    2.1329   25.0189 C.ar    1  UNL1        0.0211
      4 C           0.5501    0.8781   24.2080 C.ar    1  UNL1        0.0165
      5 C           1.6883    1.0662   23.2492 C.ar    1  UNL1        0.0599
      6 C           2.1731    0.0600   22.2480 C.ar    1  UNL1        0.0159
      7 C           1.5255   -0.0266   20.8978 C.ar    1  UNL1        0.0023
      8 C           2.0103   -1.0328   19.8966 C.ar    1  UNL1        0.0114
      9 C           3.1426   -1.9524   20.2455 C.ar    1  UNL1        0.0577
     10 CL          3.6274   -2.9586   19.2443 Cl      1  UNL1       -0.0822
     11 C           3.7903   -1.8659   21.5957 C.ar    1  UNL1        0.0114
     12 C           3.3055   -0.8597   22.5970 C.ar    1  UNL1        0.0023
     13 C           3.4093    3.0426   22.7228 C.3     1  UNL1        0.1325
     14 C           4.1576    2.5777   20.2786 C.2     1  UNL1       -0.0029
     15 C           3.2909    3.3186   21.2532 C.2     1  UNL1       -0.0018
     16 C          -0.5971    2.3806   26.0979 C.3     1  UNL1        0.1336
     17 C          -1.8929    3.0608   25.7690 C.ar    1  UNL1        0.0026
     18 C          -2.2559    3.3317   24.3390 C.ar    1  UNL1       -0.0013
     19 C          -3.5517    4.0119   24.0101 C.ar    1  UNL1        0.0111
     20 C          -4.4845    4.4213   25.1112 C.ar    1  UNL1        0.0577
     21 CL         -5.7803    5.1016   24.7823 Cl      1  UNL1       -0.0822
     22 C          -4.1214    4.1505   26.5412 C.ar    1  UNL1        0.0111
     23 C          -2.8257    3.4702   26.8700 C.ar    1  UNL1       -0.0013
     24 N          -0.3134    1.9481   27.5059 N.ar    1  UNL1       -0.3019
     25 C           0.4693    2.7217   28.5252 C.ar    1  UNL1        0.0985
     26 C           0.5038    1.9177   29.7910 C.ar    1  UNL1        0.1193
     27 N          -0.2574    0.6472   29.5541 N.ar    1  UNL1       -0.2223
     28 C          -0.7625    0.6659   28.1418 C.ar    1  UNL1        0.1791
@<TRIPOS>BOND
     1    14    15    2
     2    15    13    1
     3    13     1    1
     4     1     2   ar
     5     2     3   ar
     6     3    16    1
     7    16    17    1
     8    17    18   ar
     9    18    19   ar
    10    19    20   ar
    11    20    21    1
    12    20    22   ar
    13    22    23   ar
    14    16    24    1
    15    24    25   ar
    16    25    26   ar
    17    26    27   ar
    18    27    28   ar
    19     3     4   ar
    20     4     5   ar
    21     5     6    1
    22     6     7   ar
    23     7     8   ar
    24     8     9   ar
    25     9    10    1
    26     9    11   ar
    27    11    12   ar
    28     5     1   ar
    29    12     6   ar
    30    23    17   ar
    31    28    24   ar
@<TRIPOS>MOLECULE
*****
 28 31 0 0 0
SMALL
GASTEIGER

@<TRIPOS>ATOM
      1 N          -5.3200  -17.8578   22.6537 N.ar    1  UNL1       -0.3220
      2 C          -6.7637  -18.2564   22.5724 C.ar    1  UNL1        0.0740
      3 C          -6.9938  -18.8946   21.2346 C.ar    1  UNL1        0.0211
      4 C          -5.6922  -18.8905   20.4890 C.ar    1  UNL1        0.0165
      5 C          -4.6577  -18.2497   21.3661 C.ar    1  UNL1        0.0599
      6 C          -3.2143  -18.0380   21.0169 C.ar    1  UNL1        0.0159
      7 C          -2.5489  -16.7325   21.3372 C.ar    1  UNL1        0.0023
      8 C          -1.1055  -16.5208   20.9880 C.ar    1  UNL1        0.0114
      9 C          -0.3277  -17.6146   20.3184 C.ar    1  UNL1        0.0577
     10 CL          1.1156  -17.4029   19.9692 Cl      1  UNL1       -0.0822
     11 C          -0.9931  -18.9202   19.9980 C.ar    1  UNL1        0.0114
     12 C          -2.4365  -19.1319   20.3472 C.ar    1  UNL1        0.0023
     13 C          -4.6551  -17.1855   23.8181 C.3     1  UNL1        0.1325
     14 C          -5.4221  -15.4996   25.6402 C.2     1  UNL1       -0.0029
     15 C          -5.0618  -15.7972   24.2149 C.2     1  UNL1       -0.0018
     16 C          -8.2967  -19.4410   20.7308 C.3     1  UNL1        0.1336
     17 C          -9.5824  -19.0473   21.3957 C.ar    1  UNL1        0.0026
     18 C         -10.0565  -19.7891   22.6102 C.ar    1  UNL1       -0.0013
     19 C         -11.3421  -19.3954   23.2751 C.ar    1  UNL1        0.0111
     20 C         -12.1537  -18.2599   22.7255 C.ar    1  UNL1        0.0577
     21 CL        -13.4393  -17.8663   23.3905 Cl      1  UNL1       -0.0822
     22 C         -11.6796  -17.5181   21.5111 C.ar    1  UNL1        0.0111
     23 C         -10.3940  -17.9118   20.8462 C.ar    1  UNL1       -0.0013
     24 N          -8.3140  -20.3810   19.5620 N.ar    1  UNL1       -0.3019
     25 C          -9.2699  -20.3342   18.4069 C.ar    1  UNL1        0.0985
     26 C          -8.9251  -21.4572   17.4741 C.ar    1  UNL1        0.1193
     27 N          -7.7562  -22.1980   18.0527 N.ar    1  UNL1       -0.2223
     28 C          -7.3786  -21.5329   19.3431 C.ar    1  UNL1        0.1791
@<TRIPOS>BOND
     1    14    15    2
     2    15    13    1
     3    13     1    1
     4     1     2   ar
     5     2     3   ar
     6     3    16    1
     7    16    17    1
     8    17    18   ar
     9    18    19   ar
    10    19    20   ar
    11    20    21    1
    12    20    22   ar
    13    22    23   ar
    14    16    24    1
    15    24    25   ar
    16    25    26   ar
    17    26    27   ar
    18    27    28   ar
    19     3     4   ar
    20     4     5   ar
    21     5     6    1
    22     6     7   ar
    23     7     8   ar
    24     8     9   ar
    25     9    10    1
    26     9    11   ar
    27    11    12   ar
    28     5     1   ar
    29    12     6   ar
    30    23    17   ar
    31    28    24   ar
