@<TRIPOS>MOLECULE
*****
 31 35 0 0 0
SMALL
GASTEIGER

@<TRIPOS>ATOM
      1 N          -7.9003  -20.8690   23.0058 N.pl3   1  UNL1       -0.2927
      2 H          -7.8642  -21.7890   23.3546 H       1  UNL1        0.1541
      3 C          -9.1492  -20.0541   23.1676 C.ar    1  UNL1        0.1629
      4 N          -9.5551  -18.8849   22.3200 N.ar    1  UNL1       -0.2284
      5 C         -10.8682  -18.3734   22.8340 C.ar    1  UNL1        0.0666
      6 C         -11.2738  -19.2264   23.9992 C.ar    1  UNL1        0.0237
      7 S         -10.2115  -20.2651   24.2054 S.2     1  UNL1       -0.0561
      8 C         -12.5582  -18.9472   24.7220 C.3     1  UNL1        0.0343
      9 C         -13.4369  -17.8149   24.2794 C.3     1  UNL1        0.0060
     10 C         -13.0312  -16.9619   23.1142 C.3     1  UNL1        0.0107
     11 C         -11.7468  -17.2412   22.3915 C.3     1  UNL1        0.0627
     12 C         -11.3411  -16.3882   21.2262 C.ar    1  UNL1       -0.0169
     13 C         -10.0893  -15.5651   21.2991 C.ar    1  UNL1       -0.0039
     14 C          -9.6836  -14.7121   20.1339 C.ar    1  UNL1       -0.0003
     15 C         -10.5297  -14.6821   18.8957 C.ar    1  UNL1       -0.0000
     16 C         -11.7816  -15.5052   18.8228 C.ar    1  UNL1       -0.0003
     17 C         -12.1873  -16.3582   19.9881 C.ar    1  UNL1       -0.0039
     18 C          -4.8774  -18.4445   22.1493 C.ar    1  UNL1        0.1404
     19 C          -6.0713  -19.0311   22.8426 C.ar    1  UNL1        0.0515
     20 C          -6.7065  -20.2824   22.3126 C.ar    1  UNL1        0.0528
     21 C          -6.1478  -20.9471   21.0894 C.ar    1  UNL1        0.0149
     22 C          -4.9539  -20.3604   20.3962 C.ar    1  UNL1        0.0048
     23 C          -4.3188  -19.1091   20.9262 C.ar    1  UNL1        0.0416
     24 C          -3.1249  -18.5224   20.2330 C.ar    1  UNL1        0.0526
     25 C          -3.1141  -17.9059   18.8656 C.ar    1  UNL1        0.1056
     26 N          -1.7148  -17.4517   18.5729 N.ar    1  UNL1       -0.2412
     27 C          -0.8607  -17.7875   19.7595 C.ar    1  UNL1        0.0887
     28 C           0.6070  -17.5104   19.8961 C.3     1  UNL1        0.0594
     29 S          -1.7322  -18.4493   20.7854 S.2     1  UNL1       -0.0706
     30 C          -4.8657  -16.4667   23.8341 C.3     1  UNL1        0.2525
     31 O          -4.2422  -17.1931   22.6793 O.3     1  UNL1       -0.4714
@<TRIPOS>BOND
     1    30    31    1
     2    31    18    1
     3    18    19   ar
     4    19    20   ar
     5    20     1    1
     6     1     3    1
     7     3     4   ar
     8     4     5   ar
     9     5     6   ar
    10     6     7   ar
    11     6     8    1
    12     8     9    1
    13     9    10    1
    14    10    11    1
    15    11    12    1
    16    12    13   ar
    17    13    14   ar
    18    14    15   ar
    19    15    16   ar
    20    16    17   ar
    21    20    21   ar
    22    21    22   ar
    23    22    23   ar
    24    23    24    1
    25    24    25   ar
    26    25    26   ar
    27    26    27   ar
    28    27    28    1
    29    27    29   ar
    30    23    18   ar
    31    29    24   ar
    32     7     3   ar
    33    17    12   ar
    34    11     5    1
    35     1     2    1
@<TRIPOS>MOLECULE
*****
 31 35 0 0 0
SMALL
GASTEIGER

@<TRIPOS>ATOM
      1 N          -7.4415  -19.7293   19.8625 N.pl3   1  UNL1       -0.2927
      2 H          -7.5294  -20.1641   18.9836 H       1  UNL1        0.1541
      3 C          -6.0846  -19.3586   20.3834 C.ar    1  UNL1        0.1629
      4 N          -5.8038  -18.5442   21.6113 N.ar    1  UNL1       -0.2284
      5 C          -4.3159  -18.4195   21.7547 C.ar    1  UNL1        0.0666
      6 C          -3.6770  -19.1569   20.6154 C.ar    1  UNL1        0.0237
      7 S          -4.7701  -19.7373   19.7679 S.2     1  UNL1       -0.0561
      8 C          -2.1825  -19.2045   20.4968 C.3     1  UNL1        0.0343
      9 C          -1.3269  -18.5148   21.5176 C.3     1  UNL1        0.0060
     10 C          -1.9657  -17.7774   22.6569 C.3     1  UNL1        0.0107
     11 C          -3.4602  -17.7297   22.7755 C.3     1  UNL1        0.0627
     12 C          -4.0991  -16.9923   23.9148 C.ar    1  UNL1       -0.0169
     13 C          -4.9366  -15.7772   23.6462 C.ar    1  UNL1       -0.0039
     14 C          -5.5754  -15.0398   24.7855 C.ar    1  UNL1       -0.0003
     15 C          -5.3768  -15.5174   26.1935 C.ar    1  UNL1       -0.0000
     16 C          -4.5393  -16.7325   26.4621 C.ar    1  UNL1       -0.0003
     17 C          -3.9004  -17.4699   25.3228 C.ar    1  UNL1       -0.0039
     18 C         -11.0066  -18.3377   20.9127 C.ar    1  UNL1        0.1404
     19 C          -9.7838  -18.6294   20.0945 C.ar    1  UNL1        0.0515
     20 C          -8.6644  -19.4377   20.6807 C.ar    1  UNL1        0.0528
     21 C          -8.7679  -19.9544   22.0851 C.ar    1  UNL1        0.0149
     22 C          -9.9908  -19.6627   22.9033 C.ar    1  UNL1        0.0048
     23 C         -11.1102  -18.8544   22.3171 C.ar    1  UNL1        0.0416
     24 C         -12.3331  -18.5627   23.1353 C.ar    1  UNL1        0.0526
     25 C         -13.6007  -17.9367   22.6338 C.ar    1  UNL1        0.1056
     26 N         -14.5542  -17.8329   23.7872 N.ar    1  UNL1       -0.2412
     27 C         -13.8759  -18.3948   25.0014 C.ar    1  UNL1        0.0887
     28 C         -14.4665  -18.4891   26.3769 C.3     1  UNL1        0.0594
     29 S         -12.5032  -18.8459   24.5985 S.2     1  UNL1       -0.0706
     30 C         -11.8736  -16.1262   19.8601 C.3     1  UNL1        0.2525
     31 O         -12.1261  -17.5294   20.3265 O.3     1  UNL1       -0.4714
@<TRIPOS>BOND
     1    30    31    1
     2    31    18    1
     3    18    19   ar
     4    19    20   ar
     5    20     1    1
     6     1     3    1
     7     3     4   ar
     8     4     5   ar
     9     5     6   ar
    10     6     7   ar
    11     6     8    1
    12     8     9    1
    13     9    10    1
    14    10    11    1
    15    11    12    1
    16    12    13   ar
    17    13    14   ar
    18    14    15   ar
    19    15    16   ar
    20    16    17   ar
    21    20    21   ar
    22    21    22   ar
    23    22    23   ar
    24    23    24    1
    25    24    25   ar
    26    25    26   ar
    27    26    27   ar
    28    27    28    1
    29    27    29   ar
    30    23    18   ar
    31    29    24   ar
    32     7     3   ar
    33    17    12   ar
    34    11     5    1
    35     1     2    1
@<TRIPOS>MOLECULE
*****
 31 35 0 0 0
SMALL
GASTEIGER

@<TRIPOS>ATOM
      1 N           5.5388   -1.4095   24.6983 N.pl3   1  UNL1       -0.2927
      2 H           6.5046   -1.3333   24.8734 H       1  UNL1        0.1541
      3 C           5.0549   -2.0162   23.4147 C.ar    1  UNL1        0.1629
      4 N           4.2076   -1.3344   22.3816 N.ar    1  UNL1       -0.2284
      5 C           3.9623   -2.3080   21.2671 C.ar    1  UNL1        0.0666
      6 C           4.6579   -3.5915   21.6115 C.ar    1  UNL1        0.0237
      7 S           5.3332   -3.4112   22.9387 S.2     1  UNL1       -0.0561
      8 C           4.5867   -4.7587   20.6721 C.3     1  UNL1        0.0343
      9 C           3.8197   -4.6423   19.3882 C.3     1  UNL1        0.0060
     10 C           3.1241   -3.3588   19.0439 C.3     1  UNL1        0.0107
     11 C           3.1954   -2.1916   19.9833 C.3     1  UNL1        0.0627
     12 C           2.4998   -0.9080   19.6389 C.ar    1  UNL1       -0.0169
     13 C           1.1543   -0.6029   20.2275 C.ar    1  UNL1       -0.0039
     14 C           0.4586    0.6807   19.8831 C.ar    1  UNL1       -0.0003
     15 C           1.1085    1.6591   18.9502 C.ar    1  UNL1       -0.0000
     16 C           2.4540    1.3539   18.3617 C.ar    1  UNL1       -0.0003
     17 C           3.1497    0.0703   18.7060 C.ar    1  UNL1       -0.0039
     18 C           2.5763    0.6394   26.3644 C.ar    1  UNL1        0.1404
     19 C           3.5639    0.1488   25.3475 C.ar    1  UNL1        0.0515
     20 C           4.5513   -0.9189   25.7152 C.ar    1  UNL1        0.0528
     21 C           4.5510   -1.4960   27.0997 C.ar    1  UNL1        0.0149
     22 C           3.5634   -1.0054   28.1166 C.ar    1  UNL1        0.0048
     23 C           2.5761    0.0623   27.7489 C.ar    1  UNL1        0.0416
     24 C           1.5885    0.5530   28.7658 C.ar    1  UNL1        0.0526
     25 C           0.1998    0.0250   28.9723 C.ar    1  UNL1        0.1056
     26 N          -0.4308    0.8034   30.0888 N.ar    1  UNL1       -0.2412
     27 C           0.5683    1.8124   30.5723 C.ar    1  UNL1        0.0887
     28 C           0.3566    2.8024   31.6791 C.3     1  UNL1        0.0594
     29 S           1.8163    1.6576   29.7546 S.2     1  UNL1       -0.0706
     30 C           0.2961    1.3365   25.3325 C.3     1  UNL1        0.2525
     31 O           1.5889    1.7071   25.9967 O.3     1  UNL1       -0.4714
@<TRIPOS>BOND
     1    30    31    1
     2    31    18    1
     3    18    19   ar
     4    19    20   ar
     5    20     1    1
     6     1     3    1
     7     3     4   ar
     8     4     5   ar
     9     5     6   ar
    10     6     7   ar
    11     6     8    1
    12     8     9    1
    13     9    10    1
    14    10    11    1
    15    11    12    1
    16    12    13   ar
    17    13    14   ar
    18    14    15   ar
    19    15    16   ar
    20    16    17   ar
    21    20    21   ar
    22    21    22   ar
    23    22    23   ar
    24    23    24    1
    25    24    25   ar
    26    25    26   ar
    27    26    27   ar
    28    27    28    1
    29    27    29   ar
    30    23    18   ar
    31    29    24   ar
    32     7     3   ar
    33    17    12   ar
    34    11     5    1
    35     1     2    1
@<TRIPOS>MOLECULE
*****
 31 35 0 0 0
SMALL
GASTEIGER

@<TRIPOS>ATOM
      1 N          -0.0629    3.0997   19.9113 N.pl3   1  UNL1       -0.2927
      2 H           0.1325    3.8062   19.2540 H       1  UNL1        0.1541
      3 C          -1.2135    3.2561   20.8608 C.ar    1  UNL1        0.1629
      4 N          -1.1162    3.3639   22.3538 N.ar    1  UNL1       -0.2284
      5 C          -2.5060    3.5066   22.8998 C.ar    1  UNL1        0.0666
      6 C          -3.4623    3.4869   21.7443 C.ar    1  UNL1        0.0237
      7 S          -2.6634    3.3321   20.4842 S.2     1  UNL1       -0.0561
      8 C          -4.9368    3.6124   21.9888 C.3     1  UNL1        0.0343
      9 C          -5.4551    3.7577   23.3889 C.3     1  UNL1        0.0060
     10 C          -4.4989    3.7774   24.5444 C.3     1  UNL1        0.0107
     11 C          -3.0243    3.6518   24.2998 C.3     1  UNL1        0.0627
     12 C          -2.0681    3.6715   25.4553 C.ar    1  UNL1       -0.0169
     13 C          -1.8979    4.9215   26.2668 C.ar    1  UNL1       -0.0039
     14 C          -0.9416    4.9413   27.4223 C.ar    1  UNL1       -0.0003
     15 C          -0.1556    3.7110   27.7664 C.ar    1  UNL1       -0.0000
     16 C          -0.3258    2.4610   26.9549 C.ar    1  UNL1       -0.0003
     17 C          -1.2820    2.4412   25.7994 C.ar    1  UNL1       -0.0039
     18 C           3.1039    0.7185   19.6845 C.ar    1  UNL1        0.1404
     19 C           2.2509    1.9512   19.6326 C.ar    1  UNL1        0.0515
     20 C           0.7901    1.8670   19.9632 C.ar    1  UNL1        0.0528
     21 C           0.1825    0.5500   20.3455 C.ar    1  UNL1        0.0149
     22 C           1.0356   -0.6828   20.3974 C.ar    1  UNL1        0.0048
     23 C           2.4962   -0.5985   20.0669 C.ar    1  UNL1        0.0416
     24 C           3.3493   -1.8313   20.1187 C.ar    1  UNL1        0.0526
     25 C           4.2794   -2.2136   21.2318 C.ar    1  UNL1        0.1056
     26 N           4.9270   -3.5167   20.8676 N.ar    1  UNL1       -0.2412
     27 C           4.3971   -3.9397   19.5295 C.ar    1  UNL1        0.0887
     28 C           4.7758   -5.1855   18.7850 C.3     1  UNL1        0.0594
     29 S           3.4221   -2.8980   19.0667 S.2     1  UNL1       -0.0706
     30 C           5.0163    0.7228   17.9258 C.3     1  UNL1        0.2525
     31 O           4.5647    0.8028   19.3540 O.3     1  UNL1       -0.4714
@<TRIPOS>BOND
     1    30    31    1
     2    31    18    1
     3    18    19   ar
     4    19    20   ar
     5    20     1    1
     6     1     3    1
     7     3     4   ar
     8     4     5   ar
     9     5     6   ar
    10     6     7   ar
    11     6     8    1
    12     8     9    1
    13     9    10    1
    14    10    11    1
    15    11    12    1
    16    12    13   ar
    17    13    14   ar
    18    14    15   ar
    19    15    16   ar
    20    16    17   ar
    21    20    21   ar
    22    21    22   ar
    23    22    23   ar
    24    23    24    1
    25    24    25   ar
    26    25    26   ar
    27    26    27   ar
    28    27    28    1
    29    27    29   ar
    30    23    18   ar
    31    29    24   ar
    32     7     3   ar
    33    17    12   ar
    34    11     5    1
    35     1     2    1
@<TRIPOS>MOLECULE
*****
 31 35 0 0 0
SMALL
GASTEIGER

@<TRIPOS>ATOM
      1 N           3.6778    0.6214   25.9499 N.pl3   1  UNL1       -0.2927
      2 H           4.4072    0.7166   26.6043 H       1  UNL1        0.1541
      3 C           3.8240   -0.3263   24.7965 C.ar    1  UNL1        0.1629
      4 N           3.2939   -0.1153   23.4093 N.ar    1  UNL1       -0.2284
      5 C           3.6683   -1.3100   22.5831 C.ar    1  UNL1        0.0666
      6 C           4.4298   -2.2595   23.4598 C.ar    1  UNL1        0.0237
      7 S           4.5261   -1.6515   24.8277 S.2     1  UNL1       -0.0561
      8 C           4.9372   -3.5549   22.8993 C.3     1  UNL1        0.0343
      9 C           4.6831   -3.9009   21.4620 C.3     1  UNL1        0.0060
     10 C           3.9215   -2.9514   20.5854 C.3     1  UNL1        0.0107
     11 C           3.4141   -1.6560   21.1459 C.3     1  UNL1        0.0627
     12 C           2.6526   -0.7065   20.2693 C.ar    1  UNL1       -0.0169
     13 C           1.2190   -0.3886   20.5756 C.ar    1  UNL1       -0.0039
     14 C           0.4575    0.5609   19.6989 C.ar    1  UNL1       -0.0003
     15 C           1.1295    1.1924   18.5159 C.ar    1  UNL1       -0.0000
     16 C           2.5630    0.8745   18.2096 C.ar    1  UNL1       -0.0003
     17 C           3.3245   -0.0750   19.0863 C.ar    1  UNL1       -0.0039
     18 C           0.0963    1.7720   27.2145 C.ar    1  UNL1        0.1404
     19 C           1.3538    0.9693   27.0580 C.ar    1  UNL1        0.0515
     20 C           2.4204    1.4241   26.1064 C.ar    1  UNL1        0.0528
     21 C           2.2295    2.6815   25.3111 C.ar    1  UNL1        0.0149
     22 C           0.9719    3.4842   25.4676 C.ar    1  UNL1        0.0048
     23 C          -0.0946    3.0295   26.4192 C.ar    1  UNL1        0.0416
     24 C          -1.3521    3.8321   26.5757 C.ar    1  UNL1        0.0526
     25 C          -1.5016    5.0882   27.3819 C.ar    1  UNL1        0.1056
     26 N          -2.9228    5.5521   27.2580 N.ar    1  UNL1       -0.2412
     27 C          -3.6514    4.5827   26.3751 C.ar    1  UNL1        0.0887
     28 C          -5.0970    4.6622   25.9828 C.3     1  UNL1        0.0594
     29 S          -2.6807    3.5197   25.9535 S.2     1  UNL1       -0.0706
     30 C          -1.0549   -0.1267   28.5635 C.3     1  UNL1        0.2525
     31 O          -0.9703    1.3173   28.1662 O.3     1  UNL1       -0.4714
@<TRIPOS>BOND
     1    30    31    1
     2    31    18    1
     3    18    19   ar
     4    19    20   ar
     5    20     1    1
     6     1     3    1
     7     3     4   ar
     8     4     5   ar
     9     5     6   ar
    10     6     7   ar
    11     6     8    1
    12     8     9    1
    13     9    10    1
    14    10    11    1
    15    11    12    1
    16    12    13   ar
    17    13    14   ar
    18    14    15   ar
    19    15    16   ar
    20    16    17   ar
    21    20    21   ar
    22    21    22   ar
    23    22    23   ar
    24    23    24    1
    25    24    25   ar
    26    25    26   ar
    27    26    27   ar
    28    27    28    1
    29    27    29   ar
    30    23    18   ar
    31    29    24   ar
    32     7     3   ar
    33    17    12   ar
    34    11     5    1
    35     1     2    1
@<TRIPOS>MOLECULE
*****
 31 35 0 0 0
SMALL
GASTEIGER

@<TRIPOS>ATOM
      1 N          -7.3503  -20.6725   20.9479 N.pl3   1  UNL1       -0.2927
      2 H          -7.5311  -21.6371   20.8704 H       1  UNL1        0.1541
      3 C          -8.4529  -19.7314   21.3335 C.ar    1  UNL1        0.1629
      4 N          -8.4963  -18.8836   22.5702 N.ar    1  UNL1       -0.2284
      5 C          -9.7758  -18.1011   22.5512 C.ar    1  UNL1        0.0666
      6 C         -10.5233  -18.4652   21.3027 C.ar    1  UNL1        0.0237
      7 S          -9.7056  -19.4728   20.5502 S.2     1  UNL1       -0.0561
      8 C         -11.8518  -17.8323   21.0123 C.3     1  UNL1        0.0343
      9 C         -12.4329  -16.8352   21.9705 C.3     1  UNL1        0.0060
     10 C         -11.6855  -16.4711   23.2190 C.3     1  UNL1        0.0107
     11 C         -10.3569  -17.1040   23.5093 C.3     1  UNL1        0.0627
     12 C          -9.6095  -16.7399   24.7578 C.ar    1  UNL1       -0.0169
     13 C          -9.5891  -17.6850   25.9223 C.ar    1  UNL1       -0.0039
     14 C          -8.8416  -17.3209   27.1708 C.ar    1  UNL1       -0.0003
     15 C          -8.1146  -16.0116   27.2548 C.ar    1  UNL1       -0.0000
     16 C          -8.1350  -15.0664   26.0903 C.ar    1  UNL1       -0.0003
     17 C          -8.8825  -15.4305   24.8418 C.ar    1  UNL1       -0.0039
     18 C          -4.0682  -18.4566   21.2074 C.ar    1  UNL1        0.1404
     19 C          -5.4462  -18.9852   21.4748 C.ar    1  UNL1        0.0515
     20 C          -5.9723  -20.1439   20.6805 C.ar    1  UNL1        0.0528
     21 C          -5.1202  -20.7739   19.6189 C.ar    1  UNL1        0.0149
     22 C          -3.7421  -20.2452   19.3515 C.ar    1  UNL1        0.0048
     23 C          -3.2161  -19.0866   20.1457 C.ar    1  UNL1        0.0416
     24 C          -1.8380  -18.5579   19.8784 C.ar    1  UNL1        0.0526
     25 C          -1.3391  -18.0185   18.5706 C.ar    1  UNL1        0.1056
     26 N           0.0904  -17.6031   18.7558 N.ar    1  UNL1       -0.2412
     27 C           0.4747  -17.8857   20.1779 C.ar    1  UNL1        0.0887
     28 C           1.8155  -17.6242   20.7975 C.3     1  UNL1        0.0594
     29 S          -0.7171  -18.4758   20.8717 S.2     1  UNL1       -0.0706
     30 C          -4.0640  -17.0373   23.3836 C.3     1  UNL1        0.2525
     31 O          -3.5421  -17.2979   22.0016 O.3     1  UNL1       -0.4714
@<TRIPOS>BOND
     1    30    31    1
     2    31    18    1
     3    18    19   ar
     4    19    20   ar
     5    20     1    1
     6     1     3    1
     7     3     4   ar
     8     4     5   ar
     9     5     6   ar
    10     6     7   ar
    11     6     8    1
    12     8     9    1
    13     9    10    1
    14    10    11    1
    15    11    12    1
    16    12    13   ar
    17    13    14   ar
    18    14    15   ar
    19    15    16   ar
    20    16    17   ar
    21    20    21   ar
    22    21    22   ar
    23    22    23   ar
    24    23    24    1
    25    24    25   ar
    26    25    26   ar
    27    26    27   ar
    28    27    28    1
    29    27    29   ar
    30    23    18   ar
    31    29    24   ar
    32     7     3   ar
    33    17    12   ar
    34    11     5    1
    35     1     2    1
@<TRIPOS>MOLECULE
*****
 31 35 0 0 0
SMALL
GASTEIGER

@<TRIPOS>ATOM
      1 N           0.2205    1.7264   23.1830 N.pl3   1  UNL1       -0.2927
      2 H          -0.6987    1.9916   22.9504 H       1  UNL1        0.1541
      3 C           1.2495    1.5625   22.1040 C.ar    1  UNL1        0.1629
      4 N           1.9031    0.2752   21.6970 N.ar    1  UNL1       -0.2284
      5 C           2.8632    0.5743   20.5841 C.ar    1  UNL1        0.0666
      6 C           2.8031    2.0465   20.3031 C.ar    1  UNL1        0.0237
      7 S           1.8058    2.6572   21.2425 S.2     1  UNL1       -0.0561
      8 C           3.6642    2.6407   19.2283 C.3     1  UNL1        0.0343
      9 C           4.5854    1.7628   18.4344 C.3     1  UNL1        0.0060
     10 C           4.6456    0.2905   18.7153 C.3     1  UNL1        0.0107
     11 C           3.7845   -0.3037   19.7901 C.3     1  UNL1        0.0627
     12 C           3.8447   -1.7759   20.0711 C.ar    1  UNL1       -0.0169
     13 C           3.4436   -2.7587   19.0113 C.ar    1  UNL1       -0.0039
     14 C           3.5037   -4.2309   19.2922 C.ar    1  UNL1       -0.0003
     15 C           3.9650   -4.7204   20.6329 C.ar    1  UNL1       -0.0000
     16 C           4.3661   -3.7376   21.6928 C.ar    1  UNL1       -0.0003
     17 C           4.3059   -2.2654   21.4118 C.ar    1  UNL1       -0.0039
     18 C          -0.1098    1.0832   27.0852 C.ar    1  UNL1        0.1404
     19 C          -0.4811    1.3235   25.6519 C.ar    1  UNL1        0.0515
     20 C           0.5918    1.4861   24.6162 C.ar    1  UNL1        0.0528
     21 C           2.0360    1.4084   25.0140 C.ar    1  UNL1        0.0149
     22 C           2.4073    1.1682   26.4474 C.ar    1  UNL1        0.0048
     23 C           1.3344    1.0056   27.4829 C.ar    1  UNL1        0.0416
     24 C           1.7057    0.7653   28.9163 C.ar    1  UNL1        0.0526
     25 C           2.1600   -0.5385   29.5026 C.ar    1  UNL1        0.1056
     26 N           2.4229   -0.3230   30.9637 N.ar    1  UNL1       -0.2412
     27 C           2.1310    1.1139   31.2802 C.ar    1  UNL1        0.0887
     28 C           2.2598    1.7641   32.6257 C.3     1  UNL1        0.0594
     29 S           1.6878    1.7865   30.0148 S.2     1  UNL1       -0.0706
     30 C          -1.4358   -0.4249   28.7336 C.3     1  UNL1        0.2525
     31 O          -1.1828    0.9206   28.1208 O.3     1  UNL1       -0.4714
@<TRIPOS>BOND
     1    30    31    1
     2    31    18    1
     3    18    19   ar
     4    19    20   ar
     5    20     1    1
     6     1     3    1
     7     3     4   ar
     8     4     5   ar
     9     5     6   ar
    10     6     7   ar
    11     6     8    1
    12     8     9    1
    13     9    10    1
    14    10    11    1
    15    11    12    1
    16    12    13   ar
    17    13    14   ar
    18    14    15   ar
    19    15    16   ar
    20    16    17   ar
    21    20    21   ar
    22    21    22   ar
    23    22    23   ar
    24    23    24    1
    25    24    25   ar
    26    25    26   ar
    27    26    27   ar
    28    27    28    1
    29    27    29   ar
    30    23    18   ar
    31    29    24   ar
    32     7     3   ar
    33    17    12   ar
    34    11     5    1
    35     1     2    1
@<TRIPOS>MOLECULE
*****
 31 35 0 0 0
SMALL
GASTEIGER

@<TRIPOS>ATOM
      1 N           2.7706    1.3892   26.0833 N.pl3   1  UNL1       -0.2927
      2 H           3.4052    1.7166   26.7610 H       1  UNL1        0.1541
      3 C           3.1962    0.3353   25.1045 C.ar    1  UNL1        0.1629
      4 N           2.8759    0.3118   23.6392 N.ar    1  UNL1       -0.2284
      5 C           3.4985   -0.9182   23.0482 C.ar    1  UNL1        0.0666
      6 C           4.2036   -1.6550   24.1482 C.ar    1  UNL1        0.0237
      7 S           4.0168   -0.8803   25.4190 S.2     1  UNL1       -0.0561
      8 C           4.9248   -2.9361   23.8505 C.3     1  UNL1        0.0343
      9 C           4.9407   -3.4804   22.4529 C.3     1  UNL1        0.0060
     10 C           4.2356   -2.7436   21.3529 C.3     1  UNL1        0.0107
     11 C           3.5145   -1.4625   21.6506 C.3     1  UNL1        0.0627
     12 C           2.8093   -0.7257   20.5506 C.ar    1  UNL1       -0.0169
     13 C           3.5709   -0.2817   19.3371 C.ar    1  UNL1       -0.0039
     14 C           2.8658    0.4551   18.2371 C.ar    1  UNL1       -0.0003
     15 C           1.3991    0.7479   18.3507 C.ar    1  UNL1       -0.0000
     16 C           0.6375    0.3039   19.5643 C.ar    1  UNL1       -0.0003
     17 C           1.3426   -0.4329   20.6643 C.ar    1  UNL1       -0.0039
     18 C          -0.3382    3.6225   25.0355 C.ar    1  UNL1        0.1404
     19 C           1.0542    3.0674   25.0893 C.ar    1  UNL1        0.0515
     20 C           1.3782    1.9443   26.0295 C.ar    1  UNL1        0.0528
     21 C           0.3096    1.3764   26.9158 C.ar    1  UNL1        0.0149
     22 C          -1.0829    1.9316   26.8620 C.ar    1  UNL1        0.0048
     23 C          -1.4068    3.0546   25.9219 C.ar    1  UNL1        0.0416
     24 C          -2.7993    3.6098   25.8681 C.ar    1  UNL1        0.0526
     25 C          -3.5015    4.3379   26.9757 C.ar    1  UNL1        0.1056
     26 N          -4.8702    4.7124   26.4894 N.ar    1  UNL1       -0.2412
     27 C          -5.0138    4.2158   25.0812 C.ar    1  UNL1        0.0887
     28 C          -6.2247    4.3730   24.2101 C.3     1  UNL1        0.0594
     29 S          -3.7339    3.5343   24.6973 S.2     1  UNL1       -0.0706
     30 C          -0.5966    4.5254   22.6131 C.3     1  UNL1        0.2525
     31 O          -0.6621    4.7456   24.0954 O.3     1  UNL1       -0.4714
@<TRIPOS>BOND
     1    30    31    1
     2    31    18    1
     3    18    19   ar
     4    19    20   ar
     5    20     1    1
     6     1     3    1
     7     3     4   ar
     8     4     5   ar
     9     5     6   ar
    10     6     7   ar
    11     6     8    1
    12     8     9    1
    13     9    10    1
    14    10    11    1
    15    11    12    1
    16    12    13   ar
    17    13    14   ar
    18    14    15   ar
    19    15    16   ar
    20    16    17   ar
    21    20    21   ar
    22    21    22   ar
    23    22    23   ar
    24    23    24    1
    25    24    25   ar
    26    25    26   ar
    27    26    27   ar
    28    27    28    1
    29    27    29   ar
    30    23    18   ar
    31    29    24   ar
    32     7     3   ar
    33    17    12   ar
    34    11     5    1
    35     1     2    1
@<TRIPOS>MOLECULE
*****
 31 35 0 0 0
SMALL
GASTEIGER

@<TRIPOS>ATOM
      1 N           5.9493   -1.0800   24.4985 N.pl3   1  UNL1       -0.2927
      2 H           6.9068   -0.9376   24.6775 H       1  UNL1        0.1541
      3 C           5.5121   -1.6980   23.2035 C.ar    1  UNL1        0.1629
      4 N           4.5066   -1.1260   22.2487 N.ar    1  UNL1       -0.2284
      5 C           4.3768   -2.0710   21.0910 C.ar    1  UNL1        0.0666
      6 C           5.3021   -3.2270   21.3304 C.ar    1  UNL1        0.0237
      7 S           6.0038   -2.9965   22.6360 S.2     1  UNL1       -0.0561
      8 C           5.3862   -4.3403   20.3286 C.3     1  UNL1        0.0343
      9 C           4.5450   -4.2974   19.0875 C.3     1  UNL1        0.0060
     10 C           3.6196   -3.1414   18.8481 C.3     1  UNL1        0.0107
     11 C           3.5355   -2.0282   19.8499 C.3     1  UNL1        0.0627
     12 C           2.6102   -0.8721   19.6106 C.ar    1  UNL1       -0.0169
     13 C           2.9862    0.1990   18.6302 C.ar    1  UNL1       -0.0039
     14 C           2.0608    1.3551   18.3909 C.ar    1  UNL1       -0.0003
     15 C           0.7595    1.4400   19.1319 C.ar    1  UNL1       -0.0000
     16 C           0.3835    0.3689   20.1123 C.ar    1  UNL1       -0.0003
     17 C           1.3088   -0.7872   20.3516 C.ar    1  UNL1       -0.0039
     18 C           4.0569   -0.7203   27.9683 C.ar    1  UNL1        0.1404
     19 C           5.0787   -1.1214   26.9461 C.ar    1  UNL1        0.0515
     20 C           4.9275   -0.6789   25.5207 C.ar    1  UNL1        0.0528
     21 C           3.7544    0.1647   25.1178 C.ar    1  UNL1        0.0149
     22 C           2.7326    0.5657   26.1401 C.ar    1  UNL1        0.0048
     23 C           2.8839    0.1233   27.5653 C.ar    1  UNL1        0.0416
     24 C           1.8621    0.5244   28.5877 C.ar    1  UNL1        0.0526
     25 C           0.5490   -0.1569   28.8361 C.ar    1  UNL1        0.1056
     26 N          -0.1507    0.5748   29.9430 N.ar    1  UNL1       -0.2412
     27 C           0.7300    1.7082   30.3786 C.ar    1  UNL1        0.0887
     28 C           0.4211    2.6989   31.4616 C.3     1  UNL1        0.0594
     29 S           1.9740    1.6771   29.5409 S.2     1  UNL1       -0.0706
     30 C           5.1455   -0.4334   30.3099 C.3     1  UNL1        0.2525
     31 O           4.2082   -1.1627   29.3936 O.3     1  UNL1       -0.4714
@<TRIPOS>BOND
     1    30    31    1
     2    31    18    1
     3    18    19   ar
     4    19    20   ar
     5    20     1    1
     6     1     3    1
     7     3     4   ar
     8     4     5   ar
     9     5     6   ar
    10     6     7   ar
    11     6     8    1
    12     8     9    1
    13     9    10    1
    14    10    11    1
    15    11    12    1
    16    12    13   ar
    17    13    14   ar
    18    14    15   ar
    19    15    16   ar
    20    16    17   ar
    21    20    21   ar
    22    21    22   ar
    23    22    23   ar
    24    23    24    1
    25    24    25   ar
    26    25    26   ar
    27    26    27   ar
    28    27    28    1
    29    27    29   ar
    30    23    18   ar
    31    29    24   ar
    32     7     3   ar
    33    17    12   ar
    34    11     5    1
    35     1     2    1
