@<TRIPOS>MOLECULE
*****
 27 30 0 0 0
SMALL
GASTEIGER

@<TRIPOS>ATOM
      1 O          -7.9610  -15.0995   21.8332 O.2     1  UNL1       -0.2698
      2 C          -8.4294  -15.8648   23.0353 C.2     1  UNL1        0.2520
      3 N          -9.6007  -16.7950   22.9225 N.am    1  UNL1       -0.2762
      4 C          -7.7266  -15.6997   24.3501 C.ar    1  UNL1        0.0880
      5 C          -8.5224  -15.5708   25.6150 C.ar    1  UNL1        0.0076
      6 C          -7.8195  -15.4057   26.9298 C.ar    1  UNL1        0.0003
      7 C          -6.3208  -15.3696   26.9797 C.ar    1  UNL1        0.0031
      8 C          -5.5250  -15.4985   25.7148 C.ar    1  UNL1        0.0376
      9 C          -6.2278  -15.6635   24.4000 C.ar    1  UNL1        0.1496
     10 O          -5.4320  -15.7925   23.1351 O.3     1  UNL1       -0.4533
     11 C          -4.7392  -17.0834   22.8131 C.ar    1  UNL1        0.1453
     12 C          -3.2408  -17.1415   22.7762 C.ar    1  UNL1        0.0375
     13 C          -2.5480  -18.4325   22.4542 C.ar    1  UNL1        0.0031
     14 C          -3.3538  -19.6652   22.1692 C.ar    1  UNL1        0.0002
     15 C          -4.8522  -19.6070   22.2062 C.ar    1  UNL1        0.0031
     16 C          -5.5449  -18.3161   22.5281 C.ar    1  UNL1        0.0375
     17 C         -10.3035  -16.9601   21.6076 C.3     1  UNL1        0.0927
     18 C         -10.1865  -18.1388   20.6873 C.3     1  UNL1        0.0383
     19 C         -11.0574  -17.8827   19.4931 C.3     1  UNL1        0.0704
     20 N         -11.7127  -16.5457   19.6755 N.3     1  UNL1       -0.2960
     21 C         -11.2468  -15.9756   20.9824 C.3     1  UNL1        0.0887
     22 H         -12.7266  -16.6560   19.6879 H       1  UNL1        0.1233
     23 C         -10.0691  -17.5603   24.1246 C.3     1  UNL1        0.0936
     24 C          -9.8237  -19.0373   24.2158 C.3     1  UNL1        0.0199
     25 C         -10.3569  -20.1504   25.0682 C.3     1  UNL1        0.0017
     26 C          -9.4767  -21.1261   24.3447 C.3     1  UNL1        0.0001
     27 C          -8.9435  -20.0129   23.4923 C.3     1  UNL1        0.0017
@<TRIPOS>BOND
     1     1     2    2
     2     2     4    1
     3     4     5   ar
     4     5     6   ar
     5     6     7   ar
     6     7     8   ar
     7     8     9   ar
     8     9    10    1
     9    10    11    1
    10    11    12   ar
    11    12    13   ar
    12    13    14   ar
    13    14    15   ar
    14    15    16   ar
    15     2     3   am
    16     3    23    1
    17    23    24    1
    18    24    25    1
    19    25    26    1
    20    26    27    1
    21    17     3    1
    22    17    18    1
    23    18    19    1
    24    19    20    1
    25    20    21    1
    26     9     4   ar
    27    16    11   ar
    28    27    24    1
    29    21    17    1
    30    20    22    1
@<TRIPOS>MOLECULE
*****
 27 30 0 0 0
SMALL
GASTEIGER

@<TRIPOS>ATOM
      1 O          -7.7208  -16.0822   22.5760 O.2     1  UNL1       -0.2698
      2 C          -8.7342  -17.1729   22.7591 C.2     1  UNL1        0.2520
      3 N          -9.2583  -17.4874   24.1288 N.am    1  UNL1       -0.2762
      4 C          -9.2234  -17.9490   21.5723 C.ar    1  UNL1        0.0880
      5 C         -10.3226  -17.3950   20.7151 C.ar    1  UNL1        0.0076
      6 C         -10.8118  -18.1711   19.5284 C.ar    1  UNL1        0.0003
      7 C         -10.2017  -19.5012   19.1989 C.ar    1  UNL1        0.0031
      8 C          -9.1025  -20.0552   20.0560 C.ar    1  UNL1        0.0376
      9 C          -8.6133  -19.2791   21.2427 C.ar    1  UNL1        0.1496
     10 O          -7.5140  -19.8331   22.0999 O.3     1  UNL1       -0.4533
     11 C          -6.0938  -19.7895   21.6192 C.ar    1  UNL1        0.1453
     12 C          -5.6680  -20.6408   20.4598 C.ar    1  UNL1        0.0375
     13 C          -4.2478  -20.5972   19.9791 C.ar    1  UNL1        0.0031
     14 C          -3.2534  -19.7023   20.6578 C.ar    1  UNL1        0.0002
     15 C          -3.6792  -18.8512   21.8171 C.ar    1  UNL1        0.0031
     16 C          -5.0994  -18.8947   22.2978 C.ar    1  UNL1        0.0375
     17 C          -8.7691  -16.7113   25.3156 C.3     1  UNL1        0.0927
     18 C          -8.7906  -17.1750   26.7420 C.3     1  UNL1        0.0383
     19 C          -8.2073  -16.0855   27.5923 C.3     1  UNL1        0.0704
     20 N          -7.8253  -14.9486   26.6914 N.3     1  UNL1       -0.2960
     21 C          -8.1725  -15.3354   25.2843 C.3     1  UNL1        0.0887
     22 H          -6.8236  -14.7707   26.7643 H       1  UNL1        0.1233
     23 C         -10.2717  -18.5781   24.3119 C.3     1  UNL1        0.0936
     24 C         -11.7299  -18.2882   24.1127 C.3     1  UNL1        0.0199
     25 C         -12.9969  -18.6994   24.8021 C.3     1  UNL1        0.0017
     26 C         -13.7920  -17.8781   23.8309 C.3     1  UNL1        0.0001
     27 C         -12.5249  -17.4669   23.1414 C.3     1  UNL1        0.0017
@<TRIPOS>BOND
     1     1     2    2
     2     2     4    1
     3     4     5   ar
     4     5     6   ar
     5     6     7   ar
     6     7     8   ar
     7     8     9   ar
     8     9    10    1
     9    10    11    1
    10    11    12   ar
    11    12    13   ar
    12    13    14   ar
    13    14    15   ar
    14    15    16   ar
    15     2     3   am
    16     3    23    1
    17    23    24    1
    18    24    25    1
    19    25    26    1
    20    26    27    1
    21    17     3    1
    22    17    18    1
    23    18    19    1
    24    19    20    1
    25    20    21    1
    26     9     4   ar
    27    16    11   ar
    28    27    24    1
    29    21    17    1
    30    20    22    1
@<TRIPOS>MOLECULE
*****
 27 30 0 0 0
SMALL
GASTEIGER

@<TRIPOS>ATOM
      1 O          -6.7027  -16.1478   22.5824 O.2     1  UNL1       -0.2698
      2 C          -8.0699  -16.6648   22.9191 C.2     1  UNL1        0.2520
      3 N          -8.5955  -16.5395   24.3184 N.am    1  UNL1       -0.2762
      4 C          -8.9115  -17.3073   21.8565 C.ar    1  UNL1        0.0880
      5 C         -10.0473  -16.5474   21.2379 C.ar    1  UNL1        0.0076
      6 C         -10.8888  -17.1898   20.1754 C.ar    1  UNL1        0.0003
      7 C         -10.5946  -18.5921   19.7314 C.ar    1  UNL1        0.0031
      8 C          -9.4588  -19.3519   20.3500 C.ar    1  UNL1        0.0376
      9 C          -8.6173  -18.7095   21.4125 C.ar    1  UNL1        0.1496
     10 O          -7.4815  -19.4694   22.0311 O.3     1  UNL1       -0.4533
     11 C          -6.0890  -19.3013   21.4994 C.ar    1  UNL1        0.1453
     12 C          -4.9221  -19.2936   22.4420 C.ar    1  UNL1        0.0375
     13 C          -3.5296  -19.1255   21.9103 C.ar    1  UNL1        0.0031
     14 C          -3.3040  -18.9652   20.4360 C.ar    1  UNL1        0.0002
     15 C          -4.4709  -18.9730   19.4935 C.ar    1  UNL1        0.0031
     16 C          -5.8634  -19.1410   20.0252 C.ar    1  UNL1        0.0375
     17 C          -7.7539  -15.8971   25.3810 C.3     1  UNL1        0.0927
     18 C          -6.2821  -15.6212   25.2930 C.3     1  UNL1        0.0383
     19 C          -5.8548  -14.9714   26.5757 C.3     1  UNL1        0.0704
     20 N          -7.0626  -14.8458   27.4564 N.3     1  UNL1       -0.2960
     21 C          -8.2363  -15.4179   26.7180 C.3     1  UNL1        0.0887
     22 H          -7.2340  -13.8634   27.6708 H       1  UNL1        0.1233
     23 C          -9.9627  -17.0566   24.6551 C.3     1  UNL1        0.0936
     24 C         -10.3158  -18.4859   24.3676 C.3     1  UNL1        0.0199
     25 C         -11.4118  -19.1761   23.6112 C.3     1  UNL1        0.0017
     26 C         -10.8151  -20.5071   23.9610 C.3     1  UNL1        0.0001
     27 C          -9.7191  -19.8168   24.7175 C.3     1  UNL1        0.0017
@<TRIPOS>BOND
     1     1     2    2
     2     2     4    1
     3     4     5   ar
     4     5     6   ar
     5     6     7   ar
     6     7     8   ar
     7     8     9   ar
     8     9    10    1
     9    10    11    1
    10    11    12   ar
    11    12    13   ar
    12    13    14   ar
    13    14    15   ar
    14    15    16   ar
    15     2     3   am
    16     3    23    1
    17    23    24    1
    18    24    25    1
    19    25    26    1
    20    26    27    1
    21    17     3    1
    22    17    18    1
    23    18    19    1
    24    19    20    1
    25    20    21    1
    26     9     4   ar
    27    16    11   ar
    28    27    24    1
    29    21    17    1
    30    20    22    1
@<TRIPOS>MOLECULE
*****
 27 30 0 0 0
SMALL
GASTEIGER

@<TRIPOS>ATOM
      1 O         -13.5399   -5.4460   20.4268 O.2     1  UNL1       -0.2698
      2 C         -14.2802   -4.8796   19.2516 C.2     1  UNL1        0.2520
      3 N         -15.2446   -5.7381   18.4881 N.am    1  UNL1       -0.2762
      4 C         -14.0562   -3.4547   18.8399 C.ar    1  UNL1        0.0880
      5 C         -14.7229   -2.3425   19.5938 C.ar    1  UNL1        0.0076
      6 C         -14.4989   -0.9177   19.1821 C.ar    1  UNL1        0.0003
      7 C         -13.6081   -0.6050   18.0165 C.ar    1  UNL1        0.0031
      8 C         -12.9413   -1.7172   17.2626 C.ar    1  UNL1        0.0376
      9 C         -13.1654   -3.1420   17.6743 C.ar    1  UNL1        0.1496
     10 O         -12.4986   -4.2543   16.9204 O.3     1  UNL1       -0.4533
     11 C         -11.5035   -5.1381   17.6122 C.ar    1  UNL1        0.1453
     12 C         -11.4904   -6.6125   17.3361 C.ar    1  UNL1        0.0375
     13 C         -10.4953   -7.4963   18.0279 C.ar    1  UNL1        0.0031
     14 C          -9.5131   -6.9057   18.9957 C.ar    1  UNL1        0.0002
     15 C          -9.5262   -5.4314   19.2718 C.ar    1  UNL1        0.0031
     16 C         -10.5213   -4.5476   18.5800 C.ar    1  UNL1        0.0375
     17 C         -15.4687   -7.1631   18.8998 C.3     1  UNL1        0.0927
     18 C         -16.6392   -7.6812   19.6817 C.3     1  UNL1        0.0383
     19 C         -16.4555   -9.1584   19.8671 C.3     1  UNL1        0.0704
     20 N         -15.1714   -9.5531   19.1997 N.3     1  UNL1       -0.2960
     21 C         -14.5615   -8.3199   18.6020 C.3     1  UNL1        0.0887
     22 H         -15.3584  -10.2371   18.4665 H       1  UNL1        0.1233
     23 C         -15.9850   -5.1718   17.3129 C.3     1  UNL1        0.0936
     24 C         -17.0795   -4.1689   17.5285 C.3     1  UNL1        0.0199
     25 C         -17.3792   -2.7966   17.0025 C.3     1  UNL1        0.0017
     26 C         -18.6273   -2.7507   17.8334 C.3     1  UNL1        0.0001
     27 C         -18.3275   -4.1231   18.3593 C.3     1  UNL1        0.0017
@<TRIPOS>BOND
     1     1     2    2
     2     2     4    1
     3     4     5   ar
     4     5     6   ar
     5     6     7   ar
     6     7     8   ar
     7     8     9   ar
     8     9    10    1
     9    10    11    1
    10    11    12   ar
    11    12    13   ar
    12    13    14   ar
    13    14    15   ar
    14    15    16   ar
    15     2     3   am
    16     3    23    1
    17    23    24    1
    18    24    25    1
    19    25    26    1
    20    26    27    1
    21    17     3    1
    22    17    18    1
    23    18    19    1
    24    19    20    1
    25    20    21    1
    26     9     4   ar
    27    16    11   ar
    28    27    24    1
    29    21    17    1
    30    20    22    1
@<TRIPOS>MOLECULE
*****
 27 30 0 0 0
SMALL
GASTEIGER

@<TRIPOS>ATOM
      1 O         -13.7812   -7.0713   16.5316 O.2     1  UNL1       -0.2698
      2 C         -13.7887   -5.9886   17.5697 C.2     1  UNL1        0.2520
      3 N         -12.6105   -5.8158   18.4817 N.am    1  UNL1       -0.2762
      4 C         -14.9745   -5.0785   17.6957 C.ar    1  UNL1        0.0880
      5 C         -15.1026   -3.8847   16.7967 C.ar    1  UNL1        0.0076
      6 C         -16.2883   -2.9747   16.9227 C.ar    1  UNL1        0.0003
      7 C         -17.3460   -3.2586   17.9478 C.ar    1  UNL1        0.0031
      8 C         -17.2180   -4.4525   18.8468 C.ar    1  UNL1        0.0376
      9 C         -16.0322   -5.3625   18.7207 C.ar    1  UNL1        0.1496
     10 O         -15.9041   -6.5564   19.6197 O.3     1  UNL1       -0.4533
     11 C         -16.5695   -7.8488   19.2496 C.ar    1  UNL1        0.1453
     12 C         -18.0495   -8.0098   19.4331 C.ar    1  UNL1        0.0375
     13 C         -18.7149   -9.3022   19.0630 C.ar    1  UNL1        0.0031
     14 C         -17.9002  -10.4335   18.5092 C.ar    1  UNL1        0.0002
     15 C         -16.4203  -10.2724   18.3257 C.ar    1  UNL1        0.0031
     16 C         -15.7549   -8.9801   18.6959 C.ar    1  UNL1        0.0375
     17 C         -11.4247   -6.7258   18.3557 C.3     1  UNL1        0.0927
     18 C         -10.1116   -6.5660   19.0631 C.3     1  UNL1        0.0383
     19 C          -9.2191   -7.6968   18.6448 C.3     1  UNL1        0.0704
     20 N          -9.9807   -8.5554   17.6789 N.3     1  UNL1       -0.2960
     21 C         -11.3438   -7.9553   17.5003 C.3     1  UNL1        0.0887
     22 H         -10.0651   -9.5020   18.0494 H       1  UNL1        0.1233
     23 C         -12.6179   -4.7331   19.5198 C.3     1  UNL1        0.0936
     24 C         -12.2097   -3.3375   19.1509 C.3     1  UNL1        0.0199
     25 C         -10.9707   -2.7095   18.5851 C.3     1  UNL1        0.0017
     26 C         -11.6325   -1.3640   18.6293 C.3     1  UNL1        0.0001
     27 C         -12.8716   -1.9922   19.1951 C.3     1  UNL1        0.0017
@<TRIPOS>BOND
     1     1     2    2
     2     2     4    1
     3     4     5   ar
     4     5     6   ar
     5     6     7   ar
     6     7     8   ar
     7     8     9   ar
     8     9    10    1
     9    10    11    1
    10    11    12   ar
    11    12    13   ar
    12    13    14   ar
    13    14    15   ar
    14    15    16   ar
    15     2     3   am
    16     3    23    1
    17    23    24    1
    18    24    25    1
    19    25    26    1
    20    26    27    1
    21    17     3    1
    22    17    18    1
    23    18    19    1
    24    19    20    1
    25    20    21    1
    26     9     4   ar
    27    16    11   ar
    28    27    24    1
    29    21    17    1
    30    20    22    1
@<TRIPOS>MOLECULE
*****
 27 30 0 0 0
SMALL
GASTEIGER

@<TRIPOS>ATOM
      1 O           7.2602   -0.5697   19.1386 O.2     1  UNL1       -0.2698
      2 C           5.8632   -0.9597   18.7560 C.2     1  UNL1        0.2520
      3 N           5.0573   -0.0726   17.8540 N.am    1  UNL1       -0.2762
      4 C           5.2722   -2.2368   19.2754 C.ar    1  UNL1        0.0880
      5 C           4.9374   -3.3489   18.3262 C.ar    1  UNL1        0.0076
      6 C           4.3464   -4.6259   18.8457 C.ar    1  UNL1        0.0003
      7 C           4.0902   -4.7908   20.3144 C.ar    1  UNL1        0.0031
      8 C           4.4250   -3.6787   21.2637 C.ar    1  UNL1        0.0376
      9 C           5.0160   -2.4017   20.7442 C.ar    1  UNL1        0.1496
     10 O           5.3508   -1.2895   21.6934 O.3     1  UNL1       -0.4533
     11 C           4.3312   -0.2330   22.0004 C.ar    1  UNL1        0.1453
     12 C           3.1940   -0.5359   22.9306 C.ar    1  UNL1        0.0375
     13 C           2.1744    0.5205   23.2376 C.ar    1  UNL1        0.0031
     14 C           2.2920    1.8799   22.6144 C.ar    1  UNL1        0.0002
     15 C           3.4291    2.1828   21.6843 C.ar    1  UNL1        0.0031
     16 C           4.4488    1.1263   21.3773 C.ar    1  UNL1        0.0375
     17 C           5.6484    1.2044   17.3346 C.3     1  UNL1        0.0927
     18 C           5.3296    2.5863   17.8234 C.3     1  UNL1        0.0383
     19 C           6.1462    3.5598   17.0260 C.3     1  UNL1        0.0704
     20 N           6.9695    2.7795   16.0445 N.3     1  UNL1       -0.2960
     21 C           6.6618    1.3239   16.2352 C.3     1  UNL1        0.0887
     22 H           7.9612    2.9487   16.2129 H       1  UNL1        0.1233
     23 C           3.6603   -0.4626   17.4714 C.3     1  UNL1        0.0936
     24 C           2.5101   -0.1036   18.3649 C.3     1  UNL1        0.0199
     25 C           1.8066   -0.7722   19.5085 C.3     1  UNL1        0.0017
     26 C           0.8835    0.4041   19.6284 C.3     1  UNL1        0.0001
     27 C           1.5872    1.0727   18.4848 C.3     1  UNL1        0.0017
@<TRIPOS>BOND
     1     1     2    2
     2     2     4    1
     3     4     5   ar
     4     5     6   ar
     5     6     7   ar
     6     7     8   ar
     7     8     9   ar
     8     9    10    1
     9    10    11    1
    10    11    12   ar
    11    12    13   ar
    12    13    14   ar
    13    14    15   ar
    14    15    16   ar
    15     2     3   am
    16     3    23    1
    17    23    24    1
    18    24    25    1
    19    25    26    1
    20    26    27    1
    21    17     3    1
    22    17    18    1
    23    18    19    1
    24    19    20    1
    25    20    21    1
    26     9     4   ar
    27    16    11   ar
    28    27    24    1
    29    21    17    1
    30    20    22    1
@<TRIPOS>MOLECULE
*****
 27 30 0 0 0
SMALL
GASTEIGER

@<TRIPOS>ATOM
      1 O           4.7187   -1.1723   16.9227 O.2     1  UNL1       -0.2698
      2 C           5.1061   -0.5358   18.2245 C.2     1  UNL1        0.2520
      3 N           5.1138   -1.3497   19.4844 N.am    1  UNL1       -0.2762
      4 C           5.4859    0.9148   18.2664 C.ar    1  UNL1        0.0880
      5 C           6.9222    1.3093   18.4432 C.ar    1  UNL1        0.0076
      6 C           7.3019    2.7598   18.4851 C.ar    1  UNL1        0.0003
      7 C           6.2452    3.8159   18.3502 C.ar    1  UNL1        0.0031
      8 C           4.8089    3.4214   18.1733 C.ar    1  UNL1        0.0376
      9 C           4.4292    1.9709   18.1315 C.ar    1  UNL1        0.1496
     10 O           2.9928    1.5764   17.9546 O.3     1  UNL1       -0.4533
     11 C           2.1245    1.3476   19.1562 C.ar    1  UNL1        0.1453
     12 C           1.5265   -0.0058   19.4026 C.ar    1  UNL1        0.0375
     13 C           0.6582   -0.2346   20.6042 C.ar    1  UNL1        0.0031
     14 C           0.3879    0.8901   21.5593 C.ar    1  UNL1        0.0002
     15 C           0.9860    2.2434   21.3128 C.ar    1  UNL1        0.0031
     16 C           1.8542    2.4722   20.1113 C.ar    1  UNL1        0.0375
     17 C           4.7341   -2.8003   19.4425 C.3     1  UNL1        0.0927
     18 C           3.3433   -3.3437   19.2989 C.3     1  UNL1        0.0383
     19 C           3.4281   -4.8414   19.3045 C.3     1  UNL1        0.0704
     20 N           4.8712   -5.2235   19.4516 N.3     1  UNL1       -0.2960
     21 C           5.6783   -3.9620   19.5368 C.3     1  UNL1        0.0887
     22 H           5.1685   -5.7706   18.6437 H       1  UNL1        0.1233
     23 C           5.5012   -0.7132   20.7862 C.3     1  UNL1        0.0936
     24 C           4.4999   -0.6110   21.8984 C.3     1  UNL1        0.0199
     25 C           3.6664   -1.5918   22.6686 C.3     1  UNL1        0.0017
     26 C           3.0838   -0.4664   23.4713 C.3     1  UNL1        0.0001
     27 C           3.9174    0.5144   22.7010 C.3     1  UNL1        0.0017
@<TRIPOS>BOND
     1     1     2    2
     2     2     4    1
     3     4     5   ar
     4     5     6   ar
     5     6     7   ar
     6     7     8   ar
     7     8     9   ar
     8     9    10    1
     9    10    11    1
    10    11    12   ar
    11    12    13   ar
    12    13    14   ar
    13    14    15   ar
    14    15    16   ar
    15     2     3   am
    16     3    23    1
    17    23    24    1
    18    24    25    1
    19    25    26    1
    20    26    27    1
    21    17     3    1
    22    17    18    1
    23    18    19    1
    24    19    20    1
    25    20    21    1
    26     9     4   ar
    27    16    11   ar
    28    27    24    1
    29    21    17    1
    30    20    22    1
@<TRIPOS>MOLECULE
*****
 27 30 0 0 0
SMALL
GASTEIGER

@<TRIPOS>ATOM
      1 O           4.1588   -1.1035   17.1054 O.2     1  UNL1       -0.2698
      2 C           3.3780   -0.6838   18.3154 C.2     1  UNL1        0.2520
      3 N           3.2455   -1.6161   19.4830 N.am    1  UNL1       -0.2762
      4 C           2.7296    0.6682   18.3578 C.ar    1  UNL1        0.0880
      5 C           1.2392    0.7893   18.2407 C.ar    1  UNL1        0.0076
      6 C           0.5909    2.1412   18.2831 C.ar    1  UNL1        0.0003
      7 C           1.4331    3.3722   18.4425 C.ar    1  UNL1        0.0031
      8 C           2.9236    3.2512   18.5596 C.ar    1  UNL1        0.0376
      9 C           3.5719    1.8992   18.5172 C.ar    1  UNL1        0.1496
     10 O           5.0624    1.7781   18.6343 O.3     1  UNL1       -0.4533
     11 C           5.6917    1.5283   19.9728 C.ar    1  UNL1        0.1453
     12 C           6.3940    0.2301   20.2409 C.ar    1  UNL1        0.0375
     13 C           7.0233   -0.0197   21.5793 C.ar    1  UNL1        0.0031
     14 C           6.9503    1.0286   22.6498 C.ar    1  UNL1        0.0002
     15 C           6.2481    2.3267   22.3817 C.ar    1  UNL1        0.0031
     16 C           5.6188    2.5765   21.0433 C.ar    1  UNL1        0.0375
     17 C           3.8938   -2.9681   19.4406 C.3     1  UNL1        0.0927
     18 C           3.2254   -4.2546   19.0559 C.3     1  UNL1        0.0383
     19 C           4.2428   -5.3527   19.1530 C.3     1  UNL1        0.0704
     20 N           5.5400   -4.7446   19.5978 N.3     1  UNL1       -0.2960
     21 C           5.3242   -3.2709   19.7756 C.3     1  UNL1        0.0887
     22 H           6.2583   -4.9066   18.8920 H       1  UNL1        0.1233
     23 C           2.4646   -1.1963   20.6930 C.3     1  UNL1        0.0936
     24 C           3.1547   -1.0480   22.0166 C.3     1  UNL1        0.0199
     25 C           3.9699   -1.9502   22.8948 C.3     1  UNL1        0.0017
     26 C           4.1306   -0.8380   23.8884 C.3     1  UNL1        0.0001
     27 C           3.3153    0.0643   23.0102 C.3     1  UNL1        0.0017
@<TRIPOS>BOND
     1     1     2    2
     2     2     4    1
     3     4     5   ar
     4     5     6   ar
     5     6     7   ar
     6     7     8   ar
     7     8     9   ar
     8     9    10    1
     9    10    11    1
    10    11    12   ar
    11    12    13   ar
    12    13    14   ar
    13    14    15   ar
    14    15    16   ar
    15     2     3   am
    16     3    23    1
    17    23    24    1
    18    24    25    1
    19    25    26    1
    20    26    27    1
    21    17     3    1
    22    17    18    1
    23    18    19    1
    24    19    20    1
    25    20    21    1
    26     9     4   ar
    27    16    11   ar
    28    27    24    1
    29    21    17    1
    30    20    22    1
