@<TRIPOS>MOLECULE
*****
 21 23 0 0 0
SMALL
GASTEIGER

@<TRIPOS>ATOM
      1 C          -5.9922  -19.6031   21.4484 C.3     1  UNL1        0.0591
      2 C          -5.0403  -18.6165   22.0570 C.3     1  UNL1        0.0418
      3 C          -5.5589  -17.5215   22.9414 C.ar    1  UNL1       -0.0245
      4 C          -4.6070  -16.5348   23.5500 C.ar    1  UNL1       -0.0045
      5 C          -5.1256  -15.4399   24.4343 C.ar    1  UNL1       -0.0003
      6 C          -6.5961  -15.3316   24.7101 C.ar    1  UNL1       -0.0003
      7 C          -7.5479  -16.3182   24.1015 C.ar    1  UNL1       -0.0043
      8 C          -7.0293  -17.4132   23.2171 C.ar    1  UNL1       -0.0223
      9 C          -7.9812  -18.3999   22.6084 C.3     1  UNL1        0.0456
     10 C          -7.4626  -19.4948   21.7241 C.3     1  UNL1        0.0248
     11 C          -9.4517  -18.2916   22.8842 C.ar    1  UNL1       -0.0175
     12 C         -10.0336  -18.9286   24.1113 C.ar    1  UNL1       -0.0030
     13 C         -11.5040  -18.8203   24.3871 C.ar    1  UNL1        0.0119
     14 C         -12.3926  -18.0750   23.4357 C.ar    1  UNL1        0.0682
     15 CL        -13.8630  -17.9667   23.7114 Cl      1  UNL1       -0.0814
     16 C         -11.8107  -17.4380   22.2087 C.ar    1  UNL1        0.0679
     17 CL        -12.6993  -16.6927   21.2573 Cl      1  UNL1       -0.0814
     18 C         -10.3402  -17.5463   21.9329 C.ar    1  UNL1        0.0083
     19 C          -4.1005  -20.5949   19.9691 C.3     1  UNL1        0.0859
     20 N          -5.4736  -20.6982   20.5639 N.3     1  UNL1       -0.2971
     21 H          -5.4917  -21.5558   21.1158 H       1  UNL1        0.1233
@<TRIPOS>BOND
     1    19    20    1
     2     1    20    1
     3     1     2    1
     4     2     3    1
     5     3     4   ar
     6     4     5   ar
     7     5     6   ar
     8     6     7   ar
     9     7     8   ar
    10     8     9    1
    11     9    11    1
    12    11    12   ar
    13    12    13   ar
    14    13    14   ar
    15    14    15    1
    16    14    16   ar
    17    16    17    1
    18    16    18   ar
    19     9    10    1
    20    10     1    1
    21     8     3   ar
    22    18    11   ar
    23    20    21    1
@<TRIPOS>MOLECULE
*****
 21 23 0 0 0
SMALL
GASTEIGER

@<TRIPOS>ATOM
      1 C         -12.0745  -17.9331   22.4451 C.3     1  UNL1        0.0591
      2 C         -11.6959  -18.7255   21.2291 C.3     1  UNL1        0.0418
      3 C         -10.2521  -18.8747   20.8506 C.ar    1  UNL1       -0.0245
      4 C          -9.8735  -19.6671   19.6346 C.ar    1  UNL1       -0.0045
      5 C          -8.4297  -19.8162   19.2562 C.ar    1  UNL1       -0.0003
      6 C          -7.3646  -19.1728   20.0937 C.ar    1  UNL1       -0.0003
      7 C          -7.7432  -18.3803   21.3097 C.ar    1  UNL1       -0.0043
      8 C          -9.1869  -18.2313   21.6881 C.ar    1  UNL1       -0.0223
      9 C          -9.5656  -17.4388   22.9042 C.3     1  UNL1        0.0456
     10 C         -11.0094  -17.2897   23.2826 C.3     1  UNL1        0.0248
     11 C          -8.5004  -16.7954   23.7417 C.ar    1  UNL1       -0.0175
     12 C          -7.1770  -16.4419   23.1303 C.ar    1  UNL1       -0.0030
     13 C          -6.1118  -15.7985   23.9678 C.ar    1  UNL1        0.0119
     14 C          -6.3701  -15.5086   25.4168 C.ar    1  UNL1        0.0682
     15 CL         -5.3049  -14.8653   26.2543 Cl      1  UNL1       -0.0814
     16 C          -7.6934  -15.8621   26.0281 C.ar    1  UNL1        0.0679
     17 CL         -7.9516  -15.5722   27.4771 Cl      1  UNL1       -0.0814
     18 C          -8.7586  -16.5055   25.1906 C.ar    1  UNL1        0.0083
     19 C         -13.9685  -18.1251   24.2132 C.3     1  UNL1        0.0859
     20 N         -13.5184  -17.7840   22.8236 N.3     1  UNL1       -0.2971
     21 H         -13.7647  -16.8068   22.6658 H       1  UNL1        0.1233
@<TRIPOS>BOND
     1    19    20    1
     2     1    20    1
     3     1     2    1
     4     2     3    1
     5     3     4   ar
     6     4     5   ar
     7     5     6   ar
     8     6     7   ar
     9     7     8   ar
    10     8     9    1
    11     9    11    1
    12    11    12   ar
    13    12    13   ar
    14    13    14   ar
    15    14    15    1
    16    14    16   ar
    17    16    17    1
    18    16    18   ar
    19     9    10    1
    20    10     1    1
    21     8     3   ar
    22    18    11   ar
    23    20    21    1
@<TRIPOS>MOLECULE
*****
 21 23 0 0 0
SMALL
GASTEIGER

@<TRIPOS>ATOM
      1 C          -5.6076  -16.2240   23.9177 C.3     1  UNL1        0.0591
      2 C          -4.6487  -17.1820   23.2752 C.3     1  UNL1        0.0418
      3 C          -5.1636  -18.2779   22.3898 C.ar    1  UNL1       -0.0245
      4 C          -4.2047  -19.2359   21.7473 C.ar    1  UNL1       -0.0045
      5 C          -4.7196  -20.3318   20.8620 C.ar    1  UNL1       -0.0003
      6 C          -6.1934  -20.4698   20.6192 C.ar    1  UNL1       -0.0003
      7 C          -7.1523  -19.5118   21.2617 C.ar    1  UNL1       -0.0043
      8 C          -6.6374  -18.4159   22.1471 C.ar    1  UNL1       -0.0223
      9 C          -7.5963  -17.4579   22.7896 C.3     1  UNL1        0.0456
     10 C          -7.0814  -16.3620   23.6750 C.3     1  UNL1        0.0248
     11 C          -9.0700  -17.5959   22.5469 C.ar    1  UNL1       -0.0175
     12 C          -9.8826  -18.5404   23.3823 C.ar    1  UNL1       -0.0030
     13 C         -11.3564  -18.6784   23.1395 C.ar    1  UNL1        0.0119
     14 C         -12.0176  -17.8719   22.0613 C.ar    1  UNL1        0.0682
     15 CL        -13.4914  -18.0099   21.8185 Cl      1  UNL1       -0.0814
     16 C         -11.2051  -16.9275   21.2260 C.ar    1  UNL1        0.0679
     17 CL        -11.8663  -16.1210   20.1478 Cl      1  UNL1       -0.0814
     18 C          -9.7313  -16.7895   21.4687 C.ar    1  UNL1        0.0083
     19 C          -5.5300  -15.0536   26.2360 C.3     1  UNL1        0.0859
     20 N          -5.0927  -15.1281   24.8031 N.3     1  UNL1       -0.2971
     21 H          -4.0759  -15.2078   24.8094 H       1  UNL1        0.1233
@<TRIPOS>BOND
     1    19    20    1
     2     1    20    1
     3     1     2    1
     4     2     3    1
     5     3     4   ar
     6     4     5   ar
     7     5     6   ar
     8     6     7   ar
     9     7     8   ar
    10     8     9    1
    11     9    11    1
    12    11    12   ar
    13    12    13   ar
    14    13    14   ar
    15    14    15    1
    16    14    16   ar
    17    16    17    1
    18    16    18   ar
    19     9    10    1
    20    10     1    1
    21     8     3   ar
    22    18    11   ar
    23    20    21    1
@<TRIPOS>MOLECULE
*****
 21 23 0 0 0
SMALL
GASTEIGER

@<TRIPOS>ATOM
      1 C          -1.8358  -17.6517   21.2107 C.3     1  UNL1        0.0591
      2 C          -2.4392  -18.7959   20.4514 C.3     1  UNL1        0.0418
      3 C          -3.7943  -19.3160   20.8302 C.ar    1  UNL1       -0.0245
      4 C          -4.3977  -20.4602   20.0709 C.ar    1  UNL1       -0.0045
      5 C          -5.7527  -20.9801   20.4497 C.ar    1  UNL1       -0.0003
      6 C          -6.5043  -20.3559   21.5879 C.ar    1  UNL1       -0.0003
      7 C          -5.9009  -19.2116   22.3472 C.ar    1  UNL1       -0.0043
      8 C          -4.5459  -18.6917   21.9684 C.ar    1  UNL1       -0.0223
      9 C          -3.9424  -17.5474   22.7277 C.3     1  UNL1        0.0456
     10 C          -2.5874  -17.0274   22.3489 C.3     1  UNL1        0.0248
     11 C          -4.6940  -16.9231   23.8658 C.ar    1  UNL1       -0.0175
     12 C          -4.1756  -17.0523   25.2675 C.ar    1  UNL1       -0.0030
     13 C          -4.9272  -16.4281   26.4057 C.ar    1  UNL1        0.0119
     14 C          -6.1972  -15.6746   26.1421 C.ar    1  UNL1        0.0682
     15 CL         -6.9488  -15.0503   27.2803 Cl      1  UNL1       -0.0814
     16 C          -6.7156  -15.5454   24.7405 C.ar    1  UNL1        0.0679
     17 CL         -7.9856  -14.7920   24.4770 Cl      1  UNL1       -0.0814
     18 C          -5.9640  -16.1697   23.6024 C.ar    1  UNL1        0.0083
     19 C           0.3501  -17.8681   19.8233 C.3     1  UNL1        0.0859
     20 N          -0.4807  -17.1317   20.8319 N.3     1  UNL1       -0.2971
     21 H          -0.6183  -16.1888   20.4680 H       1  UNL1        0.1233
@<TRIPOS>BOND
     1    19    20    1
     2     1    20    1
     3     1     2    1
     4     2     3    1
     5     3     4   ar
     6     4     5   ar
     7     5     6   ar
     8     6     7   ar
     9     7     8   ar
    10     8     9    1
    11     9    11    1
    12    11    12   ar
    13    12    13   ar
    14    13    14   ar
    15    14    15    1
    16    14    16   ar
    17    16    17    1
    18    16    18   ar
    19     9    10    1
    20    10     1    1
    21     8     3   ar
    22    18    11   ar
    23    20    21    1
@<TRIPOS>MOLECULE
*****
 21 23 0 0 0
SMALL
GASTEIGER

@<TRIPOS>ATOM
      1 C          -6.0661  -15.5404   25.0280 C.3     1  UNL1        0.0591
      2 C          -4.9381  -16.3244   24.4257 C.3     1  UNL1        0.0418
      3 C          -5.2166  -17.3384   23.3560 C.ar    1  UNL1       -0.0245
      4 C          -4.0886  -18.1223   22.7536 C.ar    1  UNL1       -0.0045
      5 C          -4.3672  -19.1363   21.6840 C.ar    1  UNL1       -0.0003
      6 C          -5.7738  -19.3664   21.2167 C.ar    1  UNL1       -0.0003
      7 C          -6.9019  -18.5825   21.8191 C.ar    1  UNL1       -0.0043
      8 C          -6.6233  -17.5685   22.8887 C.ar    1  UNL1       -0.0223
      9 C          -7.7514  -16.7845   23.4911 C.3     1  UNL1        0.0456
     10 C          -7.4728  -15.7705   24.5607 C.3     1  UNL1        0.0248
     11 C          -9.1581  -17.0146   23.0238 C.ar    1  UNL1       -0.0175
     12 C          -9.5743  -16.5732   21.6519 C.ar    1  UNL1       -0.0030
     13 C         -10.9810  -16.8033   21.1847 C.ar    1  UNL1        0.0119
     14 C         -11.9714  -17.4747   22.0893 C.ar    1  UNL1        0.0682
     15 CL        -13.3781  -17.7048   21.6220 Cl      1  UNL1       -0.0814
     16 C         -11.5552  -17.9160   23.4611 C.ar    1  UNL1        0.0679
     17 CL        -12.5456  -18.5874   24.3658 Cl      1  UNL1       -0.0814
     18 C         -10.1485  -17.6859   23.9284 C.ar    1  UNL1        0.0083
     19 C          -6.4669  -14.6362   27.4305 C.3     1  UNL1        0.0859
     20 N          -5.7876  -14.5264   26.0977 N.3     1  UNL1       -0.2971
     21 H          -4.7836  -14.5544   26.2757 H       1  UNL1        0.1233
@<TRIPOS>BOND
     1    19    20    1
     2     1    20    1
     3     1     2    1
     4     2     3    1
     5     3     4   ar
     6     4     5   ar
     7     5     6   ar
     8     6     7   ar
     9     7     8   ar
    10     8     9    1
    11     9    11    1
    12    11    12   ar
    13    12    13   ar
    14    13    14   ar
    15    14    15    1
    16    14    16   ar
    17    16    17    1
    18    16    18   ar
    19     9    10    1
    20    10     1    1
    21     8     3   ar
    22    18    11   ar
    23    20    21    1
@<TRIPOS>MOLECULE
*****
 21 23 0 0 0
SMALL
GASTEIGER

@<TRIPOS>ATOM
      1 C         -13.6302   -3.0576   18.9522 C.3     1  UNL1        0.0591
      2 C         -12.1332   -3.1413   18.9962 C.3     1  UNL1        0.0418
      3 C         -11.4554   -4.4789   18.9573 C.ar    1  UNL1       -0.0245
      4 C          -9.9584   -4.5627   19.0013 C.ar    1  UNL1       -0.0045
      5 C          -9.2806   -5.9003   18.9623 C.ar    1  UNL1       -0.0003
      6 C         -10.0999   -7.1540   18.8794 C.ar    1  UNL1       -0.0003
      7 C         -11.5968   -7.0703   18.8354 C.ar    1  UNL1       -0.0043
      8 C         -12.2746   -5.7327   18.8744 C.ar    1  UNL1       -0.0223
      9 C         -13.7717   -5.6489   18.8304 C.3     1  UNL1        0.0456
     10 C         -14.4494   -4.3114   18.8693 C.3     1  UNL1        0.0248
     11 C         -14.5909   -6.9027   18.7475 C.ar    1  UNL1       -0.0175
     12 C         -14.1763   -8.0098   17.8241 C.ar    1  UNL1       -0.0030
     13 C         -14.9956   -9.2636   17.7411 C.ar    1  UNL1        0.0119
     14 C         -16.2294   -9.4103   18.5816 C.ar    1  UNL1        0.0682
     15 CL        -17.0486  -10.6641   18.4987 Cl      1  UNL1       -0.0814
     16 C         -16.6438   -8.3032   19.5050 C.ar    1  UNL1        0.0679
     17 CL        -17.8776   -8.4499   20.3454 Cl      1  UNL1       -0.0814
     18 C         -15.8246   -7.0494   19.5879 C.ar    1  UNL1        0.0083
     19 C         -15.6000   -1.5552   19.7352 C.3     1  UNL1        0.0859
     20 N         -14.3080   -1.7200   18.9911 N.3     1  UNL1       -0.2971
     21 H         -13.6443   -1.0654   19.4052 H       1  UNL1        0.1233
@<TRIPOS>BOND
     1    19    20    1
     2     1    20    1
     3     1     2    1
     4     2     3    1
     5     3     4   ar
     6     4     5   ar
     7     5     6   ar
     8     6     7   ar
     9     7     8   ar
    10     8     9    1
    11     9    11    1
    12    11    12   ar
    13    12    13   ar
    14    13    14   ar
    15    14    15    1
    16    14    16   ar
    17    16    17    1
    18    16    18   ar
    19     9    10    1
    20    10     1    1
    21     8     3   ar
    22    18    11   ar
    23    20    21    1
@<TRIPOS>MOLECULE
*****
 21 23 0 0 0
SMALL
GASTEIGER

@<TRIPOS>ATOM
      1 C          -4.9669  -16.2374   23.9401 C.3     1  UNL1        0.0591
      2 C          -3.6902  -16.8432   23.4370 C.3     1  UNL1        0.0418
      3 C          -3.7334  -18.0230   22.5116 C.ar    1  UNL1       -0.0245
      4 C          -2.4568  -18.6287   22.0085 C.ar    1  UNL1       -0.0045
      5 C          -2.5000  -19.8085   21.0832 C.ar    1  UNL1       -0.0003
      6 C          -3.8200  -20.3825   20.6610 C.ar    1  UNL1       -0.0003
      7 C          -5.0967  -19.7768   21.1641 C.ar    1  UNL1       -0.0043
      8 C          -5.0534  -18.5970   22.0894 C.ar    1  UNL1       -0.0223
      9 C          -6.3301  -17.9912   22.5925 C.3     1  UNL1        0.0456
     10 C          -6.2868  -16.8115   23.5178 C.3     1  UNL1        0.0248
     11 C          -7.6500  -18.5652   22.1703 C.ar    1  UNL1       -0.0175
     12 C          -8.0266  -18.5913   20.7185 C.ar    1  UNL1       -0.0030
     13 C          -9.3465  -19.1654   20.2963 C.ar    1  UNL1        0.0119
     14 C         -10.2899  -19.7133   21.3258 C.ar    1  UNL1        0.0682
     15 CL        -11.6098  -20.2873   20.9036 Cl      1  UNL1       -0.0814
     16 C          -9.9133  -19.6871   22.7775 C.ar    1  UNL1        0.0679
     17 CL        -10.8567  -20.2350   23.8071 Cl      1  UNL1       -0.0814
     18 C          -8.5934  -19.1131   23.1998 C.ar    1  UNL1        0.0083
     19 C          -5.6805  -15.0917   26.1600 C.3     1  UNL1        0.0859
     20 N          -4.9237  -15.0576   24.8654 N.3     1  UNL1       -0.2971
     21 H          -3.9433  -14.9043   25.1015 H       1  UNL1        0.1233
@<TRIPOS>BOND
     1    19    20    1
     2     1    20    1
     3     1     2    1
     4     2     3    1
     5     3     4   ar
     6     4     5   ar
     7     5     6   ar
     8     6     7   ar
     9     7     8   ar
    10     8     9    1
    11     9    11    1
    12    11    12   ar
    13    12    13   ar
    14    13    14   ar
    15    14    15    1
    16    14    16   ar
    17    16    17    1
    18    16    18   ar
    19     9    10    1
    20    10     1    1
    21     8     3   ar
    22    18    11   ar
    23    20    21    1
@<TRIPOS>MOLECULE
*****
 21 23 0 0 0
SMALL
GASTEIGER

@<TRIPOS>ATOM
      1 C         -12.0910   -6.9905   18.8028 C.3     1  UNL1        0.0591
      2 C         -12.1213   -5.5623   19.2602 C.3     1  UNL1        0.0418
      3 C         -13.4332   -4.8959   19.5518 C.ar    1  UNL1       -0.0245
      4 C         -13.4635   -3.4677   20.0093 C.ar    1  UNL1       -0.0045
      5 C         -14.7753   -2.8013   20.3009 C.ar    1  UNL1       -0.0003
      6 C         -16.0568   -3.5631   20.1350 C.ar    1  UNL1       -0.0003
      7 C         -16.0264   -4.9913   19.6775 C.ar    1  UNL1       -0.0043
      8 C         -14.7146   -5.6577   19.3859 C.ar    1  UNL1       -0.0223
      9 C         -14.6842   -7.0859   18.9284 C.3     1  UNL1        0.0456
     10 C         -13.3724   -7.7523   18.6369 C.3     1  UNL1        0.0248
     11 C         -15.9657   -7.8477   18.7625 C.ar    1  UNL1       -0.0175
     12 C         -16.5128   -8.6527   19.9039 C.ar    1  UNL1       -0.0030
     13 C         -17.7943   -9.4145   19.7380 C.ar    1  UNL1        0.0119
     14 C         -18.5286   -9.3713   18.4307 C.ar    1  UNL1        0.0682
     15 CL        -19.8101  -10.1331   18.2648 Cl      1  UNL1       -0.0814
     16 C         -17.9815   -8.5663   17.2894 C.ar    1  UNL1        0.0679
     17 CL        -18.7158   -8.5231   15.9821 Cl      1  UNL1       -0.0814
     18 C         -16.7000   -7.8045   17.4553 C.ar    1  UNL1        0.0083
     19 C          -9.4995   -7.0332   18.9840 C.3     1  UNL1        0.0859
     20 N         -10.7791   -7.6570   18.5112 N.3     1  UNL1       -0.2971
     21 H         -10.8234   -8.5881   18.9252 H       1  UNL1        0.1233
@<TRIPOS>BOND
     1    19    20    1
     2     1    20    1
     3     1     2    1
     4     2     3    1
     5     3     4   ar
     6     4     5   ar
     7     5     6   ar
     8     6     7   ar
     9     7     8   ar
    10     8     9    1
    11     9    11    1
    12    11    12   ar
    13    12    13   ar
    14    13    14   ar
    15    14    15    1
    16    14    16   ar
    17    16    17    1
    18    16    18   ar
    19     9    10    1
    20    10     1    1
    21     8     3   ar
    22    18    11   ar
    23    20    21    1
@<TRIPOS>MOLECULE
*****
 21 23 0 0 0
SMALL
GASTEIGER

@<TRIPOS>ATOM
      1 C         -11.6269   -4.9137   19.1853 C.3     1  UNL1        0.0591
      2 C         -12.2881   -3.5847   19.4006 C.3     1  UNL1        0.0418
      3 C         -13.7840   -3.4926   19.4635 C.ar    1  UNL1       -0.0245
      4 C         -14.4452   -2.1635   19.6789 C.ar    1  UNL1       -0.0045
      5 C         -15.9410   -2.0715   19.7418 C.ar    1  UNL1       -0.0003
      6 C         -16.7756   -3.3085   19.5894 C.ar    1  UNL1       -0.0003
      7 C         -16.1144   -4.6375   19.3740 C.ar    1  UNL1       -0.0043
      8 C         -14.6186   -4.7296   19.3111 C.ar    1  UNL1       -0.0223
      9 C         -13.9573   -6.0586   19.0957 C.3     1  UNL1        0.0456
     10 C         -12.4615   -6.1507   19.0328 C.3     1  UNL1        0.0248
     11 C         -14.7919   -7.2956   18.9432 C.ar    1  UNL1       -0.0175
     12 C         -14.2969   -8.4356   18.1032 C.ar    1  UNL1       -0.0030
     13 C         -15.1316   -9.6726   17.9507 C.ar    1  UNL1        0.0119
     14 C         -16.4612   -9.7696   18.6383 C.ar    1  UNL1        0.0682
     15 CL        -17.2958  -11.0066   18.4859 Cl      1  UNL1       -0.0814
     16 C         -16.9561   -8.6297   19.4783 C.ar    1  UNL1        0.0679
     17 CL        -18.2858   -8.7268   20.1659 Cl      1  UNL1       -0.0814
     18 C         -16.1215   -7.3927   19.6308 C.ar    1  UNL1        0.0083
     19 C          -9.4647   -5.5653   17.9004 C.3     1  UNL1        0.0859
     20 N         -10.1310   -5.0058   19.1223 N.3     1  UNL1       -0.2971
     21 H          -9.7722   -4.0590   19.2459 H       1  UNL1        0.1233
@<TRIPOS>BOND
     1    19    20    1
     2     1    20    1
     3     1     2    1
     4     2     3    1
     5     3     4   ar
     6     4     5   ar
     7     5     6   ar
     8     6     7   ar
     9     7     8   ar
    10     8     9    1
    11     9    11    1
    12    11    12   ar
    13    12    13   ar
    14    13    14   ar
    15    14    15    1
    16    14    16   ar
    17    16    17    1
    18    16    18   ar
    19     9    10    1
    20    10     1    1
    21     8     3   ar
    22    18    11   ar
    23    20    21    1
