@<TRIPOS>MOLECULE
*****
 44 46 0 0 0
SMALL
GASTEIGER

@<TRIPOS>ATOM
      1 C           0.7111    3.0352   19.1130 C.ar    1  UNL1        0.0539
      2 S          -0.4370    3.2133   18.1642 S.2     1  UNL1       -0.0619
      3 C          -1.2426    4.3908   18.6272 C.ar    1  UNL1        0.1641
      4 N          -0.5924    4.9406   19.8621 N.ar    1  UNL1       -0.2291
      5 C           0.6151    4.1028   20.1623 C.ar    1  UNL1        0.1414
      6 C           1.5605    4.2983   21.3103 C.2     1  UNL1        0.2673
      7 O           2.7708    5.1691   21.1453 O.2     1  UNL1       -0.2682
      8 N           1.2958    3.6231   22.6233 N.am    1  UNL1       -0.2745
      9 C           2.2413    3.8186   23.7713 C.3     1  UNL1        0.0994
     10 C           1.9765    3.1434   25.0843 C.3     1  UNL1        0.0881
     11 C           0.7664    2.2726   25.2493 C.3     1  UNL1        0.2672
     12 F          -0.2365    1.3597   25.8903 F       1  UNL1       -0.2042
     13 F           1.3635    2.1510   26.6199 F       1  UNL1       -0.2042
     14 C          -0.1792    2.0771   24.1013 C.3     1  UNL1        0.0881
     15 C           0.0856    2.7523   22.7883 C.3     1  UNL1        0.0994
     16 C           3.8862   -0.1433   18.8563 C.ar    1  UNL1        0.1333
     17 C           4.1389    1.2176   18.2784 C.ar    1  UNL1        0.0208
     18 C           3.0806    2.2771   18.3640 C.ar    1  UNL1        0.0028
     19 C           1.7695    1.9757   19.0274 C.ar    1  UNL1        0.0191
     20 C           1.5168    0.6148   19.6052 C.ar    1  UNL1        0.0700
     21 CL          0.2056    0.3133   20.2687 Cl      1  UNL1       -0.0813
     22 C           2.5751   -0.4447   19.5197 C.ar    1  UNL1        0.0867
     23 CL          2.3223   -1.8057   20.0976 Cl      1  UNL1       -0.0800
     24 S           4.9446   -1.2028   18.7707 S.O2    1  UNL1        0.0613
     25 O           5.4266   -0.8320   20.1419 O.2     1  UNL1       -0.1530
     26 O           4.4625   -1.5736   17.3995 O.2     1  UNL1       -0.1530
     27 N           6.0029   -2.2623   18.6851 N.3     1  UNL1       -0.1723
     28 H           5.9816   -2.6234   17.7314 H       1  UNL1        0.1491
     29 C           7.1333   -3.7898   20.4568 C.3     1  UNL1        0.0278
     30 C           5.9504   -3.4504   19.5992 C.3     1  UNL1        0.1701
     31 C           4.7149   -4.2992   19.6557 C.3     1  UNL1        0.4118
     32 F           3.4794   -5.1480   19.7123 F       1  UNL1       -0.1685
     33 F           4.8957   -4.6586   18.2107 F       1  UNL1       -0.1685
     34 F           4.5341   -3.9398   21.1008 F       1  UNL1       -0.1685
     35 C          -2.4810    4.9248   17.9705 C.2     1  UNL1        0.2699
     36 O          -2.4082    6.1627   17.1265 O.2     1  UNL1       -0.2679
     37 N          -3.7923    4.2209   18.1579 N.am    1  UNL1       -0.2969
     38 H          -3.8401    3.4084   18.7119 H       1  UNL1        0.1499
     39 C          -5.0307    4.7549   17.5013 C.3     1  UNL1        0.1166
     40 C          -6.3750    4.5006   18.1166 C.3     1  UNL1        0.1064
     41 C          -6.8978    5.7620   17.4955 C.3     1  UNL1        0.0311
     42 C          -5.8520    3.2393   18.7377 C.3     1  UNL1        0.0311
     43 O          -7.7191    4.2464   18.7319 O.3     1  UNL1       -0.3851
     44 H          -8.3276    4.9605   18.4858 H       1  UNL1        0.2103
@<TRIPOS>BOND
     1    30    29    1
     2    30    27    1
     3    27    24    1
     4    24    25    2
     5    24    26    2
     6    24    16    1
     7    16    17   ar
     8    17    18   ar
     9    18    19   ar
    10    19     1    1
    11     1     2   ar
    12     2     3   ar
    13     3    35    1
    14    35    36    2
    15    35    37   am
    16    37    39    1
    17    39    40    1
    18    40    41    1
    19    40    42    1
    20    40    43    1
    21     3     4   ar
    22     4     5   ar
    23     5     6    1
    24     6     7    2
    25     6     8   am
    26     8     9    1
    27     9    10    1
    28    10    11    1
    29    11    12    1
    30    11    13    1
    31    11    14    1
    32    14    15    1
    33    19    20   ar
    34    20    21    1
    35    20    22   ar
    36    22    23    1
    37    30    31    1
    38    31    32    1
    39    31    33    1
    40    31    34    1
    41    22    16   ar
    42     5     1   ar
    43    15     8    1
    44    27    28    1
    45    37    38    1
    46    43    44    1
@<TRIPOS>MOLECULE
*****
 44 46 0 0 0
SMALL
GASTEIGER

@<TRIPOS>ATOM
      1 C           0.1084    2.4835   21.9043 C.ar    1  UNL1        0.0539
      2 S          -1.1500    2.9038   21.2045 S.2     1  UNL1       -0.0619
      3 C          -1.9102    3.8131   22.1239 C.ar    1  UNL1        0.1641
      4 N          -1.1215    3.9549   23.3919 N.ar    1  UNL1       -0.2291
      5 C           0.1260    3.1331   23.2562 C.ar    1  UNL1        0.1414
      6 C           1.2022    2.9867   24.2908 C.2     1  UNL1        0.2673
      7 O           2.6101    3.3939   23.9713 O.2     1  UNL1       -0.2682
      8 N           0.8706    2.4333   25.6449 N.am    1  UNL1       -0.2745
      9 C           1.9467    2.2869   26.6795 C.3     1  UNL1        0.0994
     10 C           1.6150    1.7334   28.0336 C.3     1  UNL1        0.0881
     11 C           0.2072    1.3262   28.3531 C.3     1  UNL1        0.2672
     12 F          -0.9688    0.8054   29.1250 F       1  UNL1       -0.2042
     13 F           0.8749    0.9990   29.6558 F       1  UNL1       -0.2042
     14 C          -0.8691    1.4726   27.3186 C.3     1  UNL1        0.0881
     15 C          -0.5374    2.0261   25.9645 C.3     1  UNL1        0.0994
     16 C           3.2748   -0.2468   20.2403 C.ar    1  UNL1        0.1333
     17 C           2.0678   -0.8239   20.9186 C.ar    1  UNL1        0.0208
     18 C           1.0124    0.0862   21.4733 C.ar    1  UNL1        0.0028
     19 C           1.1638    1.5734   21.3496 C.ar    1  UNL1        0.0191
     20 C           2.3708    2.1504   20.6713 C.ar    1  UNL1        0.0700
     21 CL          2.5223    3.6377   20.5476 Cl      1  UNL1       -0.0813
     22 C           3.4263    1.2403   20.1166 C.ar    1  UNL1        0.0867
     23 CL          4.6333    1.8175   19.4382 Cl      1  UNL1       -0.0800
     24 S           4.3303   -1.1570   19.6856 S.O2    1  UNL1        0.0613
     25 O           5.0728   -1.0891   20.9872 O.2     1  UNL1       -0.1530
     26 O           3.5878   -1.2248   18.3840 O.2     1  UNL1       -0.1530
     27 N           5.3857   -2.0671   19.1309 N.3     1  UNL1       -0.1723
     28 H           5.1740   -2.1949   18.1414 H       1  UNL1        0.1491
     29 C           6.8997   -3.8204   20.3072 C.3     1  UNL1        0.0278
     30 C           5.5771   -3.4361   19.7131 C.3     1  UNL1        0.1701
     31 C           4.4457   -4.4210   19.7012 C.3     1  UNL1        0.4118
     32 F           3.3144   -5.4059   19.6893 F       1  UNL1       -0.1685
     33 F           4.6535   -4.6419   18.2322 F       1  UNL1       -0.1685
     34 F           4.2380   -4.2001   21.1702 F       1  UNL1       -0.1685
     35 C          -3.2276    4.4661   21.8273 C.2     1  UNL1        0.2699
     36 O          -3.5880    4.8203   20.4149 O.2     1  UNL1       -0.2679
     37 N          -4.1846    4.7648   22.9430 N.am    1  UNL1       -0.2969
     38 H          -3.9481    4.5323   23.8699 H       1  UNL1        0.1499
     39 C          -5.5021    5.4178   22.6463 C.3     1  UNL1        0.1166
     40 C          -6.7770    4.6459   22.8172 C.3     1  UNL1        0.1064
     41 C          -6.5623    4.6199   24.3015 C.3     1  UNL1        0.0311
     42 C          -6.9916    4.6720   21.3328 C.3     1  UNL1        0.0311
     43 O          -8.0518    3.8741   22.9880 O.3     1  UNL1       -0.3851
     44 H          -8.1957    3.6919   23.9298 H       1  UNL1        0.2103
@<TRIPOS>BOND
     1    30    29    1
     2    30    27    1
     3    27    24    1
     4    24    25    2
     5    24    26    2
     6    24    16    1
     7    16    17   ar
     8    17    18   ar
     9    18    19   ar
    10    19     1    1
    11     1     2   ar
    12     2     3   ar
    13     3    35    1
    14    35    36    2
    15    35    37   am
    16    37    39    1
    17    39    40    1
    18    40    41    1
    19    40    42    1
    20    40    43    1
    21     3     4   ar
    22     4     5   ar
    23     5     6    1
    24     6     7    2
    25     6     8   am
    26     8     9    1
    27     9    10    1
    28    10    11    1
    29    11    12    1
    30    11    13    1
    31    11    14    1
    32    14    15    1
    33    19    20   ar
    34    20    21    1
    35    20    22   ar
    36    22    23    1
    37    30    31    1
    38    31    32    1
    39    31    33    1
    40    31    34    1
    41    22    16   ar
    42     5     1   ar
    43    15     8    1
    44    27    28    1
    45    37    38    1
    46    43    44    1
@<TRIPOS>MOLECULE
*****
 44 46 0 0 0
SMALL
GASTEIGER

@<TRIPOS>ATOM
      1 C           2.1326    1.1468   22.7340 C.ar    1  UNL1        0.0539
      2 S           0.7539    1.5793   23.1367 S.2     1  UNL1       -0.0619
      3 C           0.1220    2.2661   21.9625 C.ar    1  UNL1        0.1641
      4 N           1.1101    2.2581   20.8339 N.ar    1  UNL1       -0.2291
      5 C           2.3527    1.5664   21.3108 C.ar    1  UNL1        0.1414
      6 C           3.5970    1.3348   20.5057 C.2     1  UNL1        0.2673
      7 O           4.5693    2.4563   20.2884 O.2     1  UNL1       -0.2682
      8 N           3.8691   -0.0180   19.9179 N.am    1  UNL1       -0.2745
      9 C           5.1134   -0.2496   19.1128 C.3     1  UNL1        0.0994
     10 C           5.3854   -1.6025   18.5250 C.3     1  UNL1        0.0881
     11 C           4.4133   -2.7239   18.7422 C.3     1  UNL1        0.2672
     12 F           3.7991   -4.0906   18.6713 F       1  UNL1       -0.2042
     13 F           5.4442   -3.4301   17.9125 F       1  UNL1       -0.2042
     14 C           3.1689   -2.4925   19.5473 C.3     1  UNL1        0.0881
     15 C           2.8969   -1.1395   20.1351 C.3     1  UNL1        0.0994
     16 C           5.0892   -1.0275   25.3380 C.ar    1  UNL1        0.1333
     17 C           4.2084   -1.7973   24.3992 C.ar    1  UNL1        0.0208
     18 C           3.2229   -1.0726   23.5311 C.ar    1  UNL1        0.0028
     19 C           3.1181    0.4221   23.6020 C.ar    1  UNL1        0.0191
     20 C           3.9989    1.1919   24.5409 C.ar    1  UNL1        0.0700
     21 CL          3.8941    2.6866   24.6118 Cl      1  UNL1       -0.0813
     22 C           4.9844    0.4672   25.4089 C.ar    1  UNL1        0.0867
     23 CL          5.8652    1.2371   26.3478 Cl      1  UNL1       -0.0800
     24 S           6.0747   -1.7522   26.2061 S.O2    1  UNL1        0.0613
     25 O           5.0430   -1.8570   27.2899 O.2     1  UNL1       -0.1530
     26 O           7.1064   -1.6474   25.1222 O.2     1  UNL1       -0.1530
     27 N           7.0602   -2.4770   27.0741 N.3     1  UNL1       -0.1723
     28 H           7.9714   -2.3851   26.6250 H       1  UNL1        0.1491
     29 C           6.8768   -4.9349   26.2525 C.3     1  UNL1        0.0278
     30 C           6.8686   -3.9348   27.3705 C.3     1  UNL1        0.1701
     31 C           6.6687   -4.3927   28.7848 C.3     1  UNL1        0.4118
     32 F           6.4688   -4.8506   30.1992 F       1  UNL1       -0.1685
     33 F           7.5691   -3.2944   29.2676 F       1  UNL1       -0.1685
     34 F           5.7683   -5.4910   28.3020 F       1  UNL1       -0.1685
     35 C          -1.2561    2.8571   21.9236 C.2     1  UNL1        0.2699
     36 O          -2.0697    2.7810   20.6656 O.2     1  UNL1       -0.2679
     37 N          -1.8207    3.5243   23.1426 N.am    1  UNL1       -0.2969
     38 H          -1.2867    3.5743   23.9682 H       1  UNL1        0.1499
     39 C          -3.1988    4.1154   23.1037 C.3     1  UNL1        0.1166
     40 C          -4.2796    3.5564   23.9811 C.3     1  UNL1        0.1064
     41 C          -5.0715    3.1783   22.7646 C.3     1  UNL1        0.0311
     42 C          -3.4875    3.9346   25.1976 C.3     1  UNL1        0.0311
     43 O          -5.3603    2.9975   24.8584 O.3     1  UNL1       -0.3851
     44 H          -6.0761    2.6464   24.3059 H       1  UNL1        0.2103
@<TRIPOS>BOND
     1    30    29    1
     2    30    27    1
     3    27    24    1
     4    24    25    2
     5    24    26    2
     6    24    16    1
     7    16    17   ar
     8    17    18   ar
     9    18    19   ar
    10    19     1    1
    11     1     2   ar
    12     2     3   ar
    13     3    35    1
    14    35    36    2
    15    35    37   am
    16    37    39    1
    17    39    40    1
    18    40    41    1
    19    40    42    1
    20    40    43    1
    21     3     4   ar
    22     4     5   ar
    23     5     6    1
    24     6     7    2
    25     6     8   am
    26     8     9    1
    27     9    10    1
    28    10    11    1
    29    11    12    1
    30    11    13    1
    31    11    14    1
    32    14    15    1
    33    19    20   ar
    34    20    21    1
    35    20    22   ar
    36    22    23    1
    37    30    31    1
    38    31    32    1
    39    31    33    1
    40    31    34    1
    41    22    16   ar
    42     5     1   ar
    43    15     8    1
    44    27    28    1
    45    37    38    1
    46    43    44    1
@<TRIPOS>MOLECULE
*****
 44 46 0 0 0
SMALL
GASTEIGER

@<TRIPOS>ATOM
      1 C           4.0534   -0.5370   29.5535 C.ar    1  UNL1        0.0539
      2 S           5.2920   -1.1918   29.0176 S.2     1  UNL1       -0.0619
      3 C           4.9731   -1.7470   27.6611 C.ar    1  UNL1        0.1641
      4 N           3.5374   -1.4352   27.3585 N.ar    1  UNL1       -0.2291
      5 C           2.9690   -0.6874   28.5281 C.ar    1  UNL1        0.1414
      6 C           1.5630   -0.1793   28.6506 C.2     1  UNL1        0.2673
      7 O           0.7384   -0.5366   29.8517 O.2     1  UNL1       -0.2682
      8 N           0.9815    0.6861   27.5723 N.am    1  UNL1       -0.2745
      9 C          -0.4244    1.1942   27.6948 C.3     1  UNL1        0.0994
     10 C          -1.0059    2.0596   26.6164 C.3     1  UNL1        0.0881
     11 C          -0.1814    2.4168   25.4154 C.3     1  UNL1        0.2672
     12 F           0.2010    3.0238   24.0980 F       1  UNL1       -0.2042
     13 F          -1.4545    3.1357   25.0804 F       1  UNL1       -0.2042
     14 C           1.2246    1.9087   25.2927 C.3     1  UNL1        0.0881
     15 C           1.8061    1.0434   26.3711 C.3     1  UNL1        0.0994
     16 C           3.6599    1.5179   33.5375 C.ar    1  UNL1        0.1333
     17 C           3.7306    0.0212   33.4693 C.ar    1  UNL1        0.0208
     18 C           3.8618   -0.6638   32.1413 C.ar    1  UNL1        0.0028
     19 C           3.9222    0.1480   30.8815 C.ar    1  UNL1        0.0191
     20 C           3.8515    1.6447   30.9496 C.ar    1  UNL1        0.0700
     21 CL          3.9120    2.4566   29.6897 Cl      1  UNL1       -0.0813
     22 C           3.7204    2.3297   32.2776 C.ar    1  UNL1        0.0867
     23 CL          3.6497    3.8265   32.3457 Cl      1  UNL1       -0.0800
     24 S           3.5287    2.2029   34.8655 S.O2    1  UNL1        0.0613
     25 O           2.0345    2.1411   34.7498 O.2     1  UNL1       -0.1530
     26 O           5.0230    2.2646   34.9812 O.2     1  UNL1       -0.1530
     27 N           3.3976    2.8879   36.1935 N.3     1  UNL1       -0.1723
     28 H           4.3099    3.2900   36.4088 H       1  UNL1        0.1491
     29 C           3.8133    0.9644   37.8899 C.3     1  UNL1        0.0278
     30 C           2.9727    2.1068   37.4015 C.3     1  UNL1        0.1701
     31 C           1.7072    2.4680   38.1213 C.3     1  UNL1        0.4118
     32 F           0.4417    2.8293   38.8410 F       1  UNL1       -0.1685
     33 F           1.8535    3.8894   37.6650 F       1  UNL1       -0.1685
     34 F           1.5610    1.0466   38.5775 F       1  UNL1       -0.1685
     35 C           5.9231   -2.4843   26.7646 C.2     1  UNL1        0.2699
     36 O           7.2564   -2.9292   27.2885 O.2     1  UNL1       -0.2679
     37 N           5.5398   -2.7768   25.3442 N.am    1  UNL1       -0.2969
     38 H           4.6647   -2.4848   25.0004 H       1  UNL1        0.1499
     39 C           6.4898   -3.5142   24.4477 C.3     1  UNL1        0.1166
     40 C           6.0671   -3.8980   23.0605 C.3     1  UNL1        0.1064
     41 C           4.7885   -3.1342   23.2389 C.3     1  UNL1        0.0311
     42 C           7.3457   -4.6618   22.8823 C.3     1  UNL1        0.0311
     43 O           5.6444   -4.2817   21.6735 O.3     1  UNL1       -0.3851
     44 H           4.7737   -3.8988   21.4832 H       1  UNL1        0.2103
@<TRIPOS>BOND
     1    30    29    1
     2    30    27    1
     3    27    24    1
     4    24    25    2
     5    24    26    2
     6    24    16    1
     7    16    17   ar
     8    17    18   ar
     9    18    19   ar
    10    19     1    1
    11     1     2   ar
    12     2     3   ar
    13     3    35    1
    14    35    36    2
    15    35    37   am
    16    37    39    1
    17    39    40    1
    18    40    41    1
    19    40    42    1
    20    40    43    1
    21     3     4   ar
    22     4     5   ar
    23     5     6    1
    24     6     7    2
    25     6     8   am
    26     8     9    1
    27     9    10    1
    28    10    11    1
    29    11    12    1
    30    11    13    1
    31    11    14    1
    32    14    15    1
    33    19    20   ar
    34    20    21    1
    35    20    22   ar
    36    22    23    1
    37    30    31    1
    38    31    32    1
    39    31    33    1
    40    31    34    1
    41    22    16   ar
    42     5     1   ar
    43    15     8    1
    44    27    28    1
    45    37    38    1
    46    43    44    1
@<TRIPOS>MOLECULE
*****
 44 46 0 0 0
SMALL
GASTEIGER

@<TRIPOS>ATOM
      1 C           0.0452    2.6289   22.5392 C.ar    1  UNL1        0.0539
      2 S          -1.2099    3.3523   22.1503 S.2     1  UNL1       -0.0619
      3 C          -1.7568    4.0233   23.3753 C.ar    1  UNL1        0.1641
      4 N          -0.8396    3.7146   24.5214 N.ar    1  UNL1       -0.2291
      5 C           0.2741    2.8528   24.0046 C.ar    1  UNL1        0.1414
      6 C           1.4162    2.3103   24.8117 C.2     1  UNL1        0.2673
      7 O           2.8283    2.5343   24.3579 O.2     1  UNL1       -0.2682
      8 N           1.1463    1.5437   26.0723 N.am    1  UNL1       -0.2745
      9 C           2.2883    1.0012   26.8794 C.3     1  UNL1        0.0994
     10 C           2.0183    0.2346   28.1401 C.3     1  UNL1        0.0881
     11 C           0.6063    0.0105   28.5939 C.3     1  UNL1        0.2672
     12 F          -0.5484   -0.4584   29.4285 F       1  UNL1       -0.2042
     13 F           1.3473   -0.6949   29.6907 F       1  UNL1       -0.2042
     14 C          -0.5359    0.5531   27.7869 C.3     1  UNL1        0.0881
     15 C          -0.2659    1.3197   26.5262 C.3     1  UNL1        0.0994
     16 C           2.6642    0.2114   19.7921 C.ar    1  UNL1        0.1333
     17 C           1.4609   -0.4190   20.4282 C.ar    1  UNL1        0.0208
     18 C           0.5879    0.3869   21.3439 C.ar    1  UNL1        0.0028
     19 C           0.9182    1.8230   21.6235 C.ar    1  UNL1        0.0191
     20 C           2.1216    2.4534   20.9874 C.ar    1  UNL1        0.0700
     21 CL          2.4519    3.8897   21.2670 Cl      1  UNL1       -0.0813
     22 C           2.9946    1.6476   20.0717 C.ar    1  UNL1        0.0867
     23 CL          4.1979    2.2780   19.4356 Cl      1  UNL1       -0.0800
     24 S           3.5372   -0.5945   18.8764 S.O2    1  UNL1        0.0613
     25 O           2.7783   -0.0718   17.6929 O.2     1  UNL1       -0.1530
     26 O           4.2962   -1.1172   20.0600 O.2     1  UNL1       -0.1530
     27 N           4.4102   -1.4003   17.9607 N.3     1  UNL1       -0.1723
     28 H           4.3260   -2.3735   18.2545 H       1  UNL1        0.1491
     29 C           6.8804   -2.1976   18.0742 C.3     1  UNL1        0.0278
     30 C           5.8772   -1.1016   17.8678 C.3     1  UNL1        0.1701
     31 C           6.3411    0.2932   17.5686 C.3     1  UNL1        0.4118
     32 F           6.8050    1.6879   17.2694 F       1  UNL1       -0.1685
     33 F           5.5883    0.2653   16.2715 F       1  UNL1       -0.1685
     34 F           7.0940    0.3210   18.8657 F       1  UNL1       -0.1685
     35 C          -3.0022    4.8567   23.4424 C.2     1  UNL1        0.2699
     36 O          -3.0165    6.1201   24.2509 O.2     1  UNL1       -0.2679
     37 N          -4.2332    4.4266   22.7011 N.am    1  UNL1       -0.2969
     38 H          -4.2238    3.5974   22.1705 H       1  UNL1        0.1499
     39 C          -5.4786    5.2600   22.7682 C.3     1  UNL1        0.1166
     40 C          -6.8161    4.5986   22.9225 C.3     1  UNL1        0.1064
     41 C          -6.6677    4.6463   24.4144 C.3     1  UNL1        0.0311
     42 C          -6.9645    4.5509   21.4305 C.3     1  UNL1        0.0311
     43 O          -8.1536    3.9373   23.0766 O.3     1  UNL1       -0.3851
     44 H          -8.3514    3.8238   24.0195 H       1  UNL1        0.2103
@<TRIPOS>BOND
     1    30    29    1
     2    30    27    1
     3    27    24    1
     4    24    25    2
     5    24    26    2
     6    24    16    1
     7    16    17   ar
     8    17    18   ar
     9    18    19   ar
    10    19     1    1
    11     1     2   ar
    12     2     3   ar
    13     3    35    1
    14    35    36    2
    15    35    37   am
    16    37    39    1
    17    39    40    1
    18    40    41    1
    19    40    42    1
    20    40    43    1
    21     3     4   ar
    22     4     5   ar
    23     5     6    1
    24     6     7    2
    25     6     8   am
    26     8     9    1
    27     9    10    1
    28    10    11    1
    29    11    12    1
    30    11    13    1
    31    11    14    1
    32    14    15    1
    33    19    20   ar
    34    20    21    1
    35    20    22   ar
    36    22    23    1
    37    30    31    1
    38    31    32    1
    39    31    33    1
    40    31    34    1
    41    22    16   ar
    42     5     1   ar
    43    15     8    1
    44    27    28    1
    45    37    38    1
    46    43    44    1
@<TRIPOS>MOLECULE
*****
 44 46 0 0 0
SMALL
GASTEIGER

@<TRIPOS>ATOM
      1 C           5.0861   -0.4770   26.1658 C.ar    1  UNL1        0.0539
      2 S           5.8888   -1.3503   27.0840 S.2     1  UNL1       -0.0619
      3 C           5.9262   -0.6944   28.4324 C.ar    1  UNL1        0.1641
      4 N           5.1467    0.5843   28.3476 N.ar    1  UNL1       -0.2291
      5 C           4.6275    0.7187   26.9468 C.ar    1  UNL1        0.1414
      6 C           3.7957    1.8501   26.4195 C.2     1  UNL1        0.2673
      7 O           4.4345    2.9325   25.6007 O.2     1  UNL1       -0.2682
      8 N           2.3251    1.8991   26.7109 N.am    1  UNL1       -0.2745
      9 C           1.4933    3.0306   26.1837 C.3     1  UNL1        0.0994
     10 C           0.0227    3.0796   26.4752 C.3     1  UNL1        0.0881
     11 C          -0.6161    1.9972   27.2939 C.3     1  UNL1        0.2672
     12 F          -1.6710    1.2132   28.0167 F       1  UNL1       -0.2042
     13 F          -1.8142    2.8563   27.0177 F       1  UNL1       -0.2042
     14 C           0.2157    0.8657   27.8212 C.3     1  UNL1        0.0881
     15 C           1.6863    0.8167   27.5297 C.3     1  UNL1        0.0994
     16 C           4.2083   -1.2997   21.8296 C.ar    1  UNL1        0.1333
     17 C           3.0823   -1.1827   22.8137 C.ar    1  UNL1        0.0208
     18 C           3.3749   -0.9085   24.2591 C.ar    1  UNL1        0.0028
     19 C           4.7935   -0.7512   24.7204 C.ar    1  UNL1        0.0191
     20 C           5.9195   -0.8682   23.7363 C.ar    1  UNL1        0.0700
     21 CL          7.3381   -0.7110   24.1976 Cl      1  UNL1       -0.0813
     22 C           5.6268   -1.1425   22.2909 C.ar    1  UNL1        0.0867
     23 CL          6.7529   -1.2594   21.3068 Cl      1  UNL1       -0.0800
     24 S           3.9156   -1.5739   20.3842 S.O2    1  UNL1        0.0613
     25 O           3.8213   -0.0997   20.1236 O.2     1  UNL1       -0.1530
     26 O           4.0100   -3.0481   20.6448 O.2     1  UNL1       -0.1530
     27 N           3.6230   -1.8481   18.9388 N.3     1  UNL1       -0.1723
     28 H           3.4920   -2.8559   18.8509 H       1  UNL1        0.1491
     29 C           4.1769   -0.5764   16.7420 C.3     1  UNL1        0.0278
     30 C           4.6111   -1.4464   17.8842 C.3     1  UNL1        0.1701
     31 C           6.0335   -1.9147   17.9717 C.3     1  UNL1        0.4118
     32 F           7.4558   -2.3829   18.0592 F       1  UNL1       -0.1685
     33 F           5.5658   -3.3397   17.9478 F       1  UNL1       -0.1685
     34 F           6.5011   -0.4896   17.9956 F       1  UNL1       -0.1685
     35 C           6.6212   -1.2242   29.6516 C.2     1  UNL1        0.2699
     36 O           7.0511   -0.2835   30.7381 O.2     1  UNL1       -0.2679
     37 N           6.8862   -2.6946   29.7842 N.am    1  UNL1       -0.2969
     38 H           6.6041   -3.3119   29.0712 H       1  UNL1        0.1499
     39 C           7.5812   -3.2243   31.0034 C.3     1  UNL1        0.1166
     40 C           6.9424   -4.3095   31.8187 C.3     1  UNL1        0.1064
     41 C           7.7577   -5.3366   31.0903 C.3     1  UNL1        0.0311
     42 C           6.1271   -3.2824   32.5470 C.3     1  UNL1        0.0311
     43 O           6.3037   -5.3946   32.6339 O.3     1  UNL1       -0.3851
     44 H           6.6630   -6.2547   32.3656 H       1  UNL1        0.2103
@<TRIPOS>BOND
     1    30    29    1
     2    30    27    1
     3    27    24    1
     4    24    25    2
     5    24    26    2
     6    24    16    1
     7    16    17   ar
     8    17    18   ar
     9    18    19   ar
    10    19     1    1
    11     1     2   ar
    12     2     3   ar
    13     3    35    1
    14    35    36    2
    15    35    37   am
    16    37    39    1
    17    39    40    1
    18    40    41    1
    19    40    42    1
    20    40    43    1
    21     3     4   ar
    22     4     5   ar
    23     5     6    1
    24     6     7    2
    25     6     8   am
    26     8     9    1
    27     9    10    1
    28    10    11    1
    29    11    12    1
    30    11    13    1
    31    11    14    1
    32    14    15    1
    33    19    20   ar
    34    20    21    1
    35    20    22   ar
    36    22    23    1
    37    30    31    1
    38    31    32    1
    39    31    33    1
    40    31    34    1
    41    22    16   ar
    42     5     1   ar
    43    15     8    1
    44    27    28    1
    45    37    38    1
    46    43    44    1
@<TRIPOS>MOLECULE
*****
 44 46 0 0 0
SMALL
GASTEIGER

@<TRIPOS>ATOM
      1 C           5.1270   -2.1167   20.9052 C.ar    1  UNL1        0.0539
      2 S           5.5268   -2.9750   22.0687 S.2     1  UNL1       -0.0619
      3 C           6.7990   -3.6827   21.7072 C.ar    1  UNL1        0.1641
      4 N           7.1855   -3.2618   20.3203 N.ar    1  UNL1       -0.2291
      5 C           6.1522   -2.2940   19.8247 C.ar    1  UNL1        0.1414
      6 C           6.1453   -1.6216   18.4839 C.2     1  UNL1        0.2673
      7 O           5.3802   -2.2276   17.3448 O.2     1  UNL1       -0.2682
      8 N           6.9033   -0.3431   18.2821 N.am    1  UNL1       -0.2745
      9 C           6.8964    0.3294   16.9413 C.3     1  UNL1        0.0994
     10 C           7.6545    1.6079   16.7395 C.3     1  UNL1        0.0881
     11 C           8.4195    2.2140   17.8785 C.3     1  UNL1        0.2672
     12 F           9.2867    3.1687   18.6443 F       1  UNL1       -0.2042
     13 F           8.7138    3.2180   16.8037 F       1  UNL1       -0.2042
     14 C           8.4265    1.5416   19.2194 C.3     1  UNL1        0.0881
     15 C           7.6684    0.2631   19.4211 C.3     1  UNL1        0.0994
     16 C           1.4909    0.5259   20.6938 C.ar    1  UNL1        0.1333
     17 C           1.4445   -0.8606   20.1234 C.ar    1  UNL1        0.0208
     18 C           2.6566   -1.7415   20.1939 C.ar    1  UNL1        0.0028
     19 C           3.9150   -1.2358   20.8348 C.ar    1  UNL1        0.0191
     20 C           3.9613    0.1507   21.4051 C.ar    1  UNL1        0.0700
     21 CL          5.2198    0.6564   22.0460 Cl      1  UNL1       -0.0813
     22 C           2.7493    1.0316   21.3346 C.ar    1  UNL1        0.0867
     23 CL          2.7956    2.4182   21.9050 Cl      1  UNL1       -0.0800
     24 S           0.2788    1.4068   20.6233 S.O2    1  UNL1        0.0613
     25 O           0.6609    1.8212   19.2332 O.2     1  UNL1       -0.1530
     26 O          -0.1032    0.9924   22.0133 O.2     1  UNL1       -0.1530
     27 N          -0.9332    2.2877   20.5528 N.3     1  UNL1       -0.1723
     28 H          -0.9841    2.6426   19.5979 H       1  UNL1        0.1491
     29 C          -0.0061    4.5491   21.4339 C.3     1  UNL1        0.0278
     30 C          -1.0520    3.4742   21.4627 C.3     1  UNL1        0.1701
     31 C          -2.2166    3.5860   22.4014 C.3     1  UNL1        0.4118
     32 F          -3.3813    3.6978   23.3400 F       1  UNL1       -0.1685
     33 F          -3.1490    3.6955   21.2315 F       1  UNL1       -0.1685
     34 F          -1.2842    3.4765   23.5712 F       1  UNL1       -0.1685
     35 C           7.5523   -4.6427   22.5794 C.2     1  UNL1        0.2699
     36 O           8.3994   -5.7139   21.9587 O.2     1  UNL1       -0.2679
     37 N           7.4586   -4.5316   24.0723 N.am    1  UNL1       -0.2969
     38 H           6.9027   -3.8286   24.4797 H       1  UNL1        0.1499
     39 C           8.2120   -5.4916   24.9446 C.3     1  UNL1        0.1166
     40 C           7.4691   -6.5254   25.7381 C.3     1  UNL1        0.1064
     41 C           8.1140   -7.6107   24.9280 C.3     1  UNL1        0.0311
     42 C           6.8242   -5.4401   26.5482 C.3     1  UNL1        0.0311
     43 O           6.7262   -7.5591   26.5316 O.3     1  UNL1       -0.3851
     44 H           6.9593   -8.4436   26.2087 H       1  UNL1        0.2103
@<TRIPOS>BOND
     1    30    29    1
     2    30    27    1
     3    27    24    1
     4    24    25    2
     5    24    26    2
     6    24    16    1
     7    16    17   ar
     8    17    18   ar
     9    18    19   ar
    10    19     1    1
    11     1     2   ar
    12     2     3   ar
    13     3    35    1
    14    35    36    2
    15    35    37   am
    16    37    39    1
    17    39    40    1
    18    40    41    1
    19    40    42    1
    20    40    43    1
    21     3     4   ar
    22     4     5   ar
    23     5     6    1
    24     6     7    2
    25     6     8   am
    26     8     9    1
    27     9    10    1
    28    10    11    1
    29    11    12    1
    30    11    13    1
    31    11    14    1
    32    14    15    1
    33    19    20   ar
    34    20    21    1
    35    20    22   ar
    36    22    23    1
    37    30    31    1
    38    31    32    1
    39    31    33    1
    40    31    34    1
    41    22    16   ar
    42     5     1   ar
    43    15     8    1
    44    27    28    1
    45    37    38    1
    46    43    44    1
@<TRIPOS>MOLECULE
*****
 44 46 0 0 0
SMALL
GASTEIGER

@<TRIPOS>ATOM
      1 C           5.3189   -1.2305   26.9773 C.ar    1  UNL1        0.0539
      2 S           4.2222   -0.7468   27.8791 S.2     1  UNL1       -0.0619
      3 C           4.6316   -1.0222   29.2957 C.ar    1  UNL1        0.1641
      4 N           5.9812   -1.6762   29.2693 N.ar    1  UNL1       -0.2291
      5 C           6.4060   -1.8049   27.8365 C.ar    1  UNL1        0.1414
      6 C           7.6922   -2.4030   27.3485 C.2     1  UNL1        0.2673
      7 O           8.9164   -1.5458   27.2189 O.2     1  UNL1       -0.2682
      8 N           7.7542   -3.8582   26.9902 N.am    1  UNL1       -0.2745
      9 C           9.0404   -4.4563   26.5022 C.3     1  UNL1        0.0994
     10 C           9.1024   -5.9115   26.1439 C.3     1  UNL1        0.0881
     11 C           7.8783   -6.7687   26.2735 C.3     1  UNL1        0.2672
     12 F           6.9942   -7.9796   26.2282 F       1  UNL1       -0.2042
     13 F           8.8574   -7.7874   25.7698 F       1  UNL1       -0.2042
     14 C           6.5921   -6.1707   26.7614 C.3     1  UNL1        0.0881
     15 C           6.5301   -4.7154   27.1198 C.3     1  UNL1        0.0994
     16 C           5.3433   -0.9991   22.4833 C.ar    1  UNL1        0.1333
     17 C           4.5195   -2.0438   23.1761 C.ar    1  UNL1        0.0208
     18 C           4.5114   -2.1210   24.6740 C.ar    1  UNL1        0.0028
     19 C           5.3270   -1.1534   25.4793 C.ar    1  UNL1        0.0191
     20 C           6.1507   -0.1086   24.7866 C.ar    1  UNL1        0.0700
     21 CL          6.9664    0.8591   25.5918 Cl      1  UNL1       -0.0813
     22 C           6.1589   -0.0315   23.2886 C.ar    1  UNL1        0.0867
     23 CL          6.9827    1.0134   22.5958 Cl      1  UNL1       -0.0800
     24 S           5.3514   -0.9219   20.9853 S.O2    1  UNL1        0.0613
     25 O           4.2263    0.0692   21.0303 O.2     1  UNL1       -0.1530
     26 O           6.4764   -1.9130   20.9404 O.2     1  UNL1       -0.1530
     27 N           5.3595   -0.8448   19.4873 N.3     1  UNL1       -0.1723
     28 H           5.4266    0.1434   19.2437 H       1  UNL1        0.1491
     29 C           3.5540   -0.5793   17.6381 C.3     1  UNL1        0.0278
     30 C           4.2127   -1.4076   18.7011 C.3     1  UNL1        0.1701
     31 C           3.7247   -2.7987   18.9779 C.3     1  UNL1        0.4118
     32 F           3.2366   -4.1898   19.2547 F       1  UNL1       -0.1685
     33 F           4.8969   -3.3591   18.2284 F       1  UNL1       -0.1685
     34 F           2.5524   -2.2383   19.7274 F       1  UNL1       -0.1685
     35 C           3.8316   -0.7003   30.5231 C.2     1  UNL1        0.2699
     36 O           2.3377   -0.8332   30.5009 O.2     1  UNL1       -0.2679
     37 N           4.5257   -0.2453   31.7726 N.am    1  UNL1       -0.2969
     38 H           5.5062   -0.1580   31.7871 H       1  UNL1        0.1499
     39 C           3.7258    0.0767   32.9999 C.3     1  UNL1        0.1166
     40 C           4.2937   -0.2027   34.3600 C.3     1  UNL1        0.1064
     41 C           4.2257    1.2593   34.6887 C.3     1  UNL1        0.0311
     42 C           4.3617   -1.6647   34.0311 C.3     1  UNL1        0.0311
     43 O           4.8617   -0.4821   35.7199 O.3     1  UNL1       -0.3851
     44 H           4.9426    0.3490   36.2135 H       1  UNL1        0.2103
@<TRIPOS>BOND
     1    30    29    1
     2    30    27    1
     3    27    24    1
     4    24    25    2
     5    24    26    2
     6    24    16    1
     7    16    17   ar
     8    17    18   ar
     9    18    19   ar
    10    19     1    1
    11     1     2   ar
    12     2     3   ar
    13     3    35    1
    14    35    36    2
    15    35    37   am
    16    37    39    1
    17    39    40    1
    18    40    41    1
    19    40    42    1
    20    40    43    1
    21     3     4   ar
    22     4     5   ar
    23     5     6    1
    24     6     7    2
    25     6     8   am
    26     8     9    1
    27     9    10    1
    28    10    11    1
    29    11    12    1
    30    11    13    1
    31    11    14    1
    32    14    15    1
    33    19    20   ar
    34    20    21    1
    35    20    22   ar
    36    22    23    1
    37    30    31    1
    38    31    32    1
    39    31    33    1
    40    31    34    1
    41    22    16   ar
    42     5     1   ar
    43    15     8    1
    44    27    28    1
    45    37    38    1
    46    43    44    1
@<TRIPOS>MOLECULE
*****
 44 46 0 0 0
SMALL
GASTEIGER

@<TRIPOS>ATOM
      1 C           0.3765    2.0432   25.1597 C.ar    1  UNL1        0.0539
      2 S           0.7939    0.9908   24.1758 S.2     1  UNL1       -0.0619
      3 C           0.4369    1.4736   22.8012 C.ar    1  UNL1        0.1641
      4 N          -0.2012    2.8245   22.9356 N.ar    1  UNL1       -0.2291
      5 C          -0.2385    3.1765   24.3933 C.ar    1  UNL1        0.1414
      6 C          -0.7934    4.4400   24.9812 C.2     1  UNL1        0.2673
      7 O           0.1352    5.5277   25.4336 O.2     1  UNL1       -0.2682
      8 N          -2.2768    4.6159   25.1167 N.am    1  UNL1       -0.2745
      9 C          -2.8317    5.8794   25.7047 C.3     1  UNL1        0.0994
     10 C          -4.3152    6.0552   25.8402 C.3     1  UNL1        0.0881
     11 C          -5.2438    4.9676   25.3878 C.3     1  UNL1        0.2672
     12 F          -6.5189    4.2297   25.1055 F       1  UNL1       -0.2042
     13 F          -6.2415    5.9748   25.8777 F       1  UNL1       -0.2042
     14 C          -4.6890    3.7040   24.7999 C.3     1  UNL1        0.0881
     15 C          -3.2055    3.5282   24.6643 C.3     1  UNL1        0.0994
     16 C           0.8808    1.8370   29.6266 C.ar    1  UNL1        0.1333
     17 C          -0.3049    1.1894   28.9750 C.ar    1  UNL1        0.0208
     18 C          -0.4730    1.2582   27.4861 C.ar    1  UNL1        0.0028
     19 C           0.5446    1.9745   26.6487 C.ar    1  UNL1        0.0191
     20 C           1.7304    2.6220   27.3003 C.ar    1  UNL1        0.0700
     21 CL          2.7481    3.3384   26.4629 Cl      1  UNL1       -0.0813
     22 C           1.8985    2.5533   28.7893 C.ar    1  UNL1        0.0867
     23 CL          3.0843    3.2009   29.4408 Cl      1  UNL1       -0.0800
     24 S           1.0489    1.7682   31.1156 S.O2    1  UNL1        0.0613
     25 O           0.3430    3.0842   31.2561 O.2     1  UNL1       -0.1530
     26 O           1.7548    0.4521   30.9751 O.2     1  UNL1       -0.1530
     27 N           1.2170    1.6994   32.6045 N.3     1  UNL1       -0.1723
     28 H           0.3201    1.9601   33.0145 H       1  UNL1        0.1491
     29 C           3.6539    2.5922   32.7248 C.3     1  UNL1        0.0278
     30 C           2.2619    2.5366   33.2808 C.3     1  UNL1        0.1701
     31 C           1.9147    3.3182   34.5131 C.3     1  UNL1        0.4118
     32 F           1.5676    4.0998   35.7454 F       1  UNL1       -0.1685
     33 F           2.3563    2.1671   35.3676 F       1  UNL1       -0.1685
     34 F           1.4732    4.4693   33.6587 F       1  UNL1       -0.1685
     35 C           0.6759    0.7352   21.5176 C.2     1  UNL1        0.2699
     36 O          -0.2958    0.8697   20.3828 O.2     1  UNL1       -0.2679
     37 N           1.8867   -0.1376   21.3688 N.am    1  UNL1       -0.2969
     38 H           2.5245   -0.2258   22.1136 H       1  UNL1        0.1499
     39 C           2.1258   -0.8760   20.0852 C.3     1  UNL1        0.1166
     40 C           3.4716   -0.8166   19.4253 C.3     1  UNL1        0.1064
     41 C           2.9710    0.2535   18.5009 C.3     1  UNL1        0.0311
     42 C           3.9721   -1.8867   20.3497 C.3     1  UNL1        0.0311
     43 O           4.8173   -0.7572   18.7654 O.3     1  UNL1       -0.3851
     44 H           4.8023   -0.0920   18.0596 H       1  UNL1        0.2103
@<TRIPOS>BOND
     1    30    29    1
     2    30    27    1
     3    27    24    1
     4    24    25    2
     5    24    26    2
     6    24    16    1
     7    16    17   ar
     8    17    18   ar
     9    18    19   ar
    10    19     1    1
    11     1     2   ar
    12     2     3   ar
    13     3    35    1
    14    35    36    2
    15    35    37   am
    16    37    39    1
    17    39    40    1
    18    40    41    1
    19    40    42    1
    20    40    43    1
    21     3     4   ar
    22     4     5   ar
    23     5     6    1
    24     6     7    2
    25     6     8   am
    26     8     9    1
    27     9    10    1
    28    10    11    1
    29    11    12    1
    30    11    13    1
    31    11    14    1
    32    14    15    1
    33    19    20   ar
    34    20    21    1
    35    20    22   ar
    36    22    23    1
    37    30    31    1
    38    31    32    1
    39    31    33    1
    40    31    34    1
    41    22    16   ar
    42     5     1   ar
    43    15     8    1
    44    27    28    1
    45    37    38    1
    46    43    44    1
