@<TRIPOS>MOLECULE
*****
 42 45 0 0 0
SMALL
GASTEIGER

@<TRIPOS>ATOM
      1 C         -10.4490  -18.8924   20.2310 C.3     1  UNL1        0.2344
      2 N          -9.1941  -19.6638   19.9476 N.3     1  UNL1       -0.2401
      3 C          -9.1551  -20.6412   18.8105 C.3     1  UNL1        0.0753
      4 C          -7.9002  -21.4126   18.5272 C.3     1  UNL1        0.0175
      5 C          -6.6843  -21.2065   19.3810 C.3     1  UNL1        0.0031
      6 C          -6.7232  -20.2290   20.5181 C.3     1  UNL1        0.0205
      7 C          -7.9781  -19.4577   20.8015 C.3     1  UNL1        0.0756
      8 C          -5.5073  -20.0229   21.3719 C.3     1  UNL1        0.0277
      9 C          -4.2454  -19.4870   20.7631 C.ar    1  UNL1       -0.0220
     10 C          -4.3159  -18.5507   19.5934 C.ar    1  UNL1       -0.0020
     11 C          -3.0541  -18.0148   18.9846 C.ar    1  UNL1        0.0293
     12 C          -1.7218  -18.4151   19.5456 C.ar    1  UNL1        0.1401
     13 F          -0.4600  -17.8792   18.9369 F       1  UNL1       -0.2042
     14 C          -1.6514  -19.3514   20.7154 C.ar    1  UNL1        0.0293
     15 C          -2.9132  -19.8873   21.3241 C.ar    1  UNL1       -0.0020
     16 O         -11.4602  -19.4342   21.1975 O.3     1  UNL1       -0.4221
     17 C          -9.7197  -20.4575   24.6141 C.3     1  UNL1        0.1140
     18 N         -10.0404  -20.3938   23.1501 N.am    1  UNL1       -0.2689
     19 C         -11.1396  -19.4978   22.6614 C.2     1  UNL1        0.4028
     20 O         -11.9181  -18.6654   23.6366 O.2     1  UNL1       -0.2264
     21 H          -9.5294  -20.9402   22.5100 H       1  UNL1        0.1528
     22 C         -10.6926  -17.5795   19.5479 C.3     1  UNL1        0.0810
     23 C         -11.4499  -16.4951   20.2555 C.3     1  UNL1        0.0782
     24 C         -12.3044  -15.5432   19.4722 C.3     1  UNL1        0.0215
     25 N         -11.3526  -16.3625   21.7464 N.am    1  UNL1       -0.2902
     26 C         -10.0153  -16.1623   22.3959 C.2     1  UNL1        0.3044
     27 O          -8.7754  -16.0947   21.5545 O.2     1  UNL1       -0.2525
     28 N          -9.9180  -16.0298   23.8869 N.am    1  UNL1       -0.2683
     29 H         -12.1664  -16.4069   22.2987 H       1  UNL1        0.1509
     30 H         -10.7318  -16.0742   24.4392 H       1  UNL1        0.1564
     31 C          -8.5808  -15.8296   24.5364 C.ar    1  UNL1        0.0517
     32 C          -8.4930  -15.5936   26.0151 C.ar    1  UNL1        0.0147
     33 C          -7.1558  -15.3934   26.6645 C.ar    1  UNL1        0.0014
     34 C          -5.9064  -15.4293   25.8353 C.ar    1  UNL1        0.0032
     35 C          -5.9942  -15.6653   24.3566 C.ar    1  UNL1        0.0386
     36 C          -7.3314  -15.8655   23.7071 C.ar    1  UNL1        0.0178
     37 C          -4.7447  -15.7012   23.5273 C.ar    1  UNL1        0.1839
     38 N          -4.2389  -14.5972   22.6468 N.ar    1  UNL1       -0.1081
     39 N          -2.9633  -15.0611   22.0083 N.ar    1  UNL1       -0.0227
     40 N          -2.6808  -16.4518   22.4942 N.ar    1  UNL1       -0.0429
     41 N          -3.7818  -16.8474   23.4330 N.ar    1  UNL1       -0.2113
     42 C          -3.8991  -18.1590   24.1513 C.3     1  UNL1        0.1573
@<TRIPOS>BOND
     1    17    18    1
     2    18    19   am
     3    19    20    2
     4    19    16    1
     5    16     1    1
     6     1    22    1
     7    22    23    1
     8    23    24    1
     9    23    25    1
    10    25    26   am
    11    26    27    2
    12    26    28   am
    13    28    31    1
    14    31    32   ar
    15    32    33   ar
    16    33    34   ar
    17    34    35   ar
    18    35    37    1
    19    37    38   ar
    20    38    39   ar
    21    39    40   ar
    22    40    41   ar
    23    41    42    1
    24    35    36   ar
    25     1     2    1
    26     2     3    1
    27     3     4    1
    28     4     5    1
    29     5     6    1
    30     6     8    1
    31     8     9    1
    32     9    10   ar
    33    10    11   ar
    34    11    12   ar
    35    12    13    1
    36    12    14   ar
    37    14    15   ar
    38     6     7    1
    39    36    31   ar
    40     7     2    1
    41    41    37   ar
    42    15     9   ar
    43    18    21    1
    44    25    29    1
    45    28    30    1
@<TRIPOS>MOLECULE
*****
 42 45 0 0 0
SMALL
GASTEIGER

@<TRIPOS>ATOM
      1 C         -11.0358  -18.1575   21.0936 C.3     1  UNL1        0.2344
      2 N         -10.7121  -18.7013   22.4535 N.3     1  UNL1       -0.2401
      3 C         -10.7106  -20.1829   22.6880 C.3     1  UNL1        0.0753
      4 C         -10.3869  -20.7267   24.0479 C.3     1  UNL1        0.0175
      5 C         -10.0647  -19.7890   25.1734 C.3     1  UNL1        0.0031
      6 C         -10.0662  -18.3074   24.9391 C.3     1  UNL1        0.0205
      7 C         -10.3899  -17.7635   23.5791 C.3     1  UNL1        0.0756
      8 C          -9.7440  -17.3697   26.0646 C.3     1  UNL1        0.0277
      9 C          -8.4755  -16.5697   26.0346 C.ar    1  UNL1       -0.0220
     10 C          -7.9907  -15.9807   24.7431 C.ar    1  UNL1       -0.0020
     11 C          -6.7221  -15.1807   24.7130 C.ar    1  UNL1        0.0293
     12 C          -5.9384  -14.9698   25.9744 C.ar    1  UNL1        0.1401
     13 F          -4.6699  -14.1699   25.9444 F       1  UNL1       -0.2042
     14 C          -6.4232  -15.5589   27.2659 C.ar    1  UNL1        0.0293
     15 C          -7.6917  -16.3588   27.2960 C.ar    1  UNL1       -0.0020
     16 O         -11.5551  -16.7575   20.9498 O.3     1  UNL1       -0.4221
     17 C          -8.6523  -14.0887   20.5019 C.3     1  UNL1        0.1140
     18 N          -9.5192  -15.1515   21.1093 N.am    1  UNL1       -0.2689
     19 C         -10.6883  -15.6947   20.3424 C.2     1  UNL1        0.4028
     20 O         -10.9905  -15.1751   18.9681 O.2     1  UNL1       -0.2264
     21 H          -9.3208  -15.4926   22.0113 H       1  UNL1        0.1528
     22 C         -10.8402  -19.0135   19.8775 C.3     1  UNL1        0.0810
     23 C          -9.5329  -19.7150   19.6564 C.3     1  UNL1        0.0782
     24 C          -9.1210  -20.1144   18.2705 C.3     1  UNL1        0.0215
     25 N          -8.6375  -20.0170   20.8213 N.am    1  UNL1       -0.2902
     26 C          -7.3669  -19.2426   21.0113 C.2     1  UNL1        0.3044
     27 O          -6.9918  -18.1661   20.0363 O.2     1  UNL1       -0.2525
     28 N          -6.4715  -19.5447   22.1761 N.am    1  UNL1       -0.2683
     29 H          -8.8836  -20.7236   21.4612 H       1  UNL1        0.1509
     30 H          -6.7177  -20.2512   22.8160 H       1  UNL1        0.1564
     31 C          -5.2009  -18.7703   22.3661 C.ar    1  UNL1        0.0517
     32 C          -5.0231  -17.9069   23.5797 C.ar    1  UNL1        0.0147
     33 C          -3.7526  -17.1326   23.7696 C.ar    1  UNL1        0.0014
     34 C          -2.6599  -17.2216   22.7459 C.ar    1  UNL1        0.0032
     35 C          -2.8376  -18.0850   21.5323 C.ar    1  UNL1        0.0386
     36 C          -4.1081  -18.8593   21.3424 C.ar    1  UNL1        0.0178
     37 C          -1.7449  -18.1740   20.5086 C.ar    1  UNL1        0.1839
     38 N          -0.3677  -18.7238   20.7346 N.ar    1  UNL1       -0.1081
     39 N           0.3909  -18.6185   19.4448 N.ar    1  UNL1       -0.0227
     40 N          -0.5175  -18.0036   18.4217 N.ar    1  UNL1       -0.0429
     41 N          -1.8374  -17.7289   19.0792 N.ar    1  UNL1       -0.2113
     42 C          -3.0390  -17.1166   18.4224 C.3     1  UNL1        0.1573
@<TRIPOS>BOND
     1    17    18    1
     2    18    19   am
     3    19    20    2
     4    19    16    1
     5    16     1    1
     6     1    22    1
     7    22    23    1
     8    23    24    1
     9    23    25    1
    10    25    26   am
    11    26    27    2
    12    26    28   am
    13    28    31    1
    14    31    32   ar
    15    32    33   ar
    16    33    34   ar
    17    34    35   ar
    18    35    37    1
    19    37    38   ar
    20    38    39   ar
    21    39    40   ar
    22    40    41   ar
    23    41    42    1
    24    35    36   ar
    25     1     2    1
    26     2     3    1
    27     3     4    1
    28     4     5    1
    29     5     6    1
    30     6     8    1
    31     8     9    1
    32     9    10   ar
    33    10    11   ar
    34    11    12   ar
    35    12    13    1
    36    12    14   ar
    37    14    15   ar
    38     6     7    1
    39    36    31   ar
    40     7     2    1
    41    41    37   ar
    42    15     9   ar
    43    18    21    1
    44    25    29    1
    45    28    30    1
@<TRIPOS>MOLECULE
*****
 42 45 0 0 0
SMALL
GASTEIGER

@<TRIPOS>ATOM
      1 C         -10.4630  -19.5992   20.3447 C.3     1  UNL1        0.2344
      2 N         -10.4988  -18.1419   20.6981 N.3     1  UNL1       -0.2401
      3 C         -11.7534  -17.3485   20.4828 C.3     1  UNL1        0.0753
      4 C         -11.7891  -15.8912   20.8362 C.3     1  UNL1        0.0175
      5 C         -10.5702  -15.2272   21.4048 C.3     1  UNL1        0.0031
      6 C          -9.3155  -16.0206   21.6201 C.3     1  UNL1        0.0205
      7 C          -9.2798  -17.4779   21.2667 C.3     1  UNL1        0.0756
      8 C          -8.0966  -15.3566   22.1887 C.3     1  UNL1        0.0277
      9 C          -7.7736  -15.5033   23.6461 C.ar    1  UNL1       -0.0220
     10 C          -6.3997  -15.1697   24.1472 C.ar    1  UNL1       -0.0020
     11 C          -6.0768  -15.3163   25.6046 C.ar    1  UNL1        0.0293
     12 C          -7.1277  -15.7966   26.5611 C.ar    1  UNL1        0.1401
     13 F          -6.8047  -15.9433   28.0185 F       1  UNL1       -0.2042
     14 C          -8.5016  -16.1302   26.0600 C.ar    1  UNL1        0.0293
     15 C          -8.8246  -15.9835   24.6026 C.ar    1  UNL1       -0.0020
     16 O         -10.5914  -20.6355   21.4217 O.3     1  UNL1       -0.4221
     17 C         -11.3159  -18.9170   24.9248 C.3     1  UNL1        0.1140
     18 N         -11.4535  -19.3115   23.4841 N.am    1  UNL1       -0.2689
     19 C         -10.4538  -20.2410   22.8623 C.2     1  UNL1        0.4028
     20 O          -9.3164  -20.7759   23.6810 O.2     1  UNL1       -0.2264
     21 H         -12.1999  -18.9605   22.9467 H       1  UNL1        0.1528
     22 C         -10.2989  -20.0204   18.9145 C.3     1  UNL1        0.0810
     23 C          -9.1011  -20.8234   18.5018 C.3     1  UNL1        0.0782
     24 C          -8.9331  -21.2380   17.0701 C.3     1  UNL1        0.0215
     25 N          -8.0712  -21.2119   19.5208 N.am    1  UNL1       -0.2902
     26 C          -7.0852  -20.1955   20.0157 C.2     1  UNL1        0.3044
     27 O          -7.1291  -18.7908   19.4916 O.2     1  UNL1       -0.2525
     28 N          -6.0553  -20.5840   21.0348 N.am    1  UNL1       -0.2683
     29 H          -8.0424  -22.1339   19.8648 H       1  UNL1        0.1509
     30 H          -6.0266  -21.5060   21.3788 H       1  UNL1        0.1564
     31 C          -5.0693  -19.5677   21.5297 C.ar    1  UNL1        0.0517
     32 C          -5.3823  -18.7502   22.7477 C.ar    1  UNL1        0.0147
     33 C          -4.3963  -17.7339   23.2426 C.ar    1  UNL1        0.0014
     34 C          -3.0972  -17.5352   22.5195 C.ar    1  UNL1        0.0032
     35 C          -2.7842  -18.3527   21.3014 C.ar    1  UNL1        0.0386
     36 C          -3.7702  -19.3689   20.8066 C.ar    1  UNL1        0.0178
     37 C          -1.4851  -18.1540   20.5783 C.ar    1  UNL1        0.1839
     38 N          -0.1155  -18.3717   21.1499 N.ar    1  UNL1       -0.1081
     39 N           0.8885  -18.0549   20.0814 N.ar    1  UNL1       -0.0227
     40 N           0.1394  -17.6413   18.8494 N.ar    1  UNL1       -0.0429
     41 N          -1.3276  -17.7026   19.1565 N.ar    1  UNL1       -0.2113
     42 C          -2.4414  -17.3706   18.2083 C.3     1  UNL1        0.1573
@<TRIPOS>BOND
     1    17    18    1
     2    18    19   am
     3    19    20    2
     4    19    16    1
     5    16     1    1
     6     1    22    1
     7    22    23    1
     8    23    24    1
     9    23    25    1
    10    25    26   am
    11    26    27    2
    12    26    28   am
    13    28    31    1
    14    31    32   ar
    15    32    33   ar
    16    33    34   ar
    17    34    35   ar
    18    35    37    1
    19    37    38   ar
    20    38    39   ar
    21    39    40   ar
    22    40    41   ar
    23    41    42    1
    24    35    36   ar
    25     1     2    1
    26     2     3    1
    27     3     4    1
    28     4     5    1
    29     5     6    1
    30     6     8    1
    31     8     9    1
    32     9    10   ar
    33    10    11   ar
    34    11    12   ar
    35    12    13    1
    36    12    14   ar
    37    14    15   ar
    38     6     7    1
    39    36    31   ar
    40     7     2    1
    41    41    37   ar
    42    15     9   ar
    43    18    21    1
    44    25    29    1
    45    28    30    1
@<TRIPOS>MOLECULE
*****
 42 45 0 0 0
SMALL
GASTEIGER

@<TRIPOS>ATOM
      1 C           2.9819    0.2947   31.0554 C.3     1  UNL1        0.2344
      2 N           3.5794   -0.0518   32.3870 N.3     1  UNL1       -0.2401
      3 C           4.0086   -1.4603   32.6728 C.3     1  UNL1        0.0753
      4 C           4.6060   -1.8068   34.0043 C.3     1  UNL1        0.0175
      5 C           4.7743   -0.7447   35.0501 C.3     1  UNL1        0.0031
      6 C           4.3451    0.6639   34.7643 C.3     1  UNL1        0.0205
      7 C           3.7476    1.0104   33.4327 C.3     1  UNL1        0.0756
      8 C           4.5134    1.7260   35.8100 C.3     1  UNL1        0.0277
      9 C           3.4530    1.9277   36.8516 C.ar    1  UNL1       -0.0220
     10 C           3.2624    0.9080   37.9350 C.ar    1  UNL1       -0.0020
     11 C           2.2020    1.1096   38.9766 C.ar    1  UNL1        0.0293
     12 C           1.3323    2.3310   38.9349 C.ar    1  UNL1        0.1401
     13 F           0.2719    2.5327   39.9765 F       1  UNL1       -0.2042
     14 C           1.5229    3.3507   37.8514 C.ar    1  UNL1        0.0293
     15 C           2.5833    3.1490   36.8098 C.ar    1  UNL1       -0.0020
     16 O           1.5411    0.7018   30.9630 O.3     1  UNL1       -0.4221
     17 C           0.1884    4.0964   32.5112 C.3     1  UNL1        0.1140
     18 N           0.5695    2.6516   32.3786 N.am    1  UNL1       -0.2689
     19 C           1.1600    2.1465   31.0956 C.2     1  UNL1        0.4028
     20 O           1.3694    3.0860   29.9452 O.2     1  UNL1       -0.2264
     21 H           0.4321    2.0350   33.1336 H       1  UNL1        0.1528
     22 C           3.8251    0.2340   29.8164 C.3     1  UNL1        0.0810
     23 C           3.3502   -0.5411   28.6232 C.3     1  UNL1        0.0782
     24 C           4.3305   -1.3163   27.7938 C.3     1  UNL1        0.0215
     25 N           1.8950   -0.5410   28.2595 N.am    1  UNL1       -0.2902
     26 C           1.3121    0.6132   27.4991 C.2     1  UNL1        0.3044
     27 O           2.1844    1.7672   27.1025 O.2     1  UNL1       -0.2525
     28 N          -0.1431    0.6133   27.1353 N.am    1  UNL1       -0.2683
     29 H           1.3225   -1.2984   28.5198 H       1  UNL1        0.1509
     30 H          -0.7156   -0.1441   27.3956 H       1  UNL1        0.1564
     31 C          -0.7261    1.7675   26.3750 C.ar    1  UNL1        0.0517
     32 C          -0.2884    2.0347   24.9654 C.ar    1  UNL1        0.0147
     33 C          -0.8714    3.1888   24.2051 C.ar    1  UNL1        0.0014
     34 C          -1.8920    4.0758   24.8544 C.ar    1  UNL1        0.0032
     35 C          -2.3297    3.8086   26.2640 C.ar    1  UNL1        0.0386
     36 C          -1.7468    2.6544   27.0243 C.ar    1  UNL1        0.0178
     37 C          -3.3504    4.6955   26.9133 C.ar    1  UNL1        0.1839
     38 N          -4.7925    4.3557   27.1473 N.ar    1  UNL1       -0.1081
     39 N          -5.4416    5.5282   27.8212 N.ar    1  UNL1       -0.0227
     40 N          -4.4005    6.5925   28.0038 N.ar    1  UNL1       -0.0429
     41 N          -3.1081    6.0779   27.4426 N.ar    1  UNL1       -0.2113
     42 C          -1.8027    6.8161   27.4156 C.3     1  UNL1        0.1573
@<TRIPOS>BOND
     1    17    18    1
     2    18    19   am
     3    19    20    2
     4    19    16    1
     5    16     1    1
     6     1    22    1
     7    22    23    1
     8    23    24    1
     9    23    25    1
    10    25    26   am
    11    26    27    2
    12    26    28   am
    13    28    31    1
    14    31    32   ar
    15    32    33   ar
    16    33    34   ar
    17    34    35   ar
    18    35    37    1
    19    37    38   ar
    20    38    39   ar
    21    39    40   ar
    22    40    41   ar
    23    41    42    1
    24    35    36   ar
    25     1     2    1
    26     2     3    1
    27     3     4    1
    28     4     5    1
    29     5     6    1
    30     6     8    1
    31     8     9    1
    32     9    10   ar
    33    10    11   ar
    34    11    12   ar
    35    12    13    1
    36    12    14   ar
    37    14    15   ar
    38     6     7    1
    39    36    31   ar
    40     7     2    1
    41    41    37   ar
    42    15     9   ar
    43    18    21    1
    44    25    29    1
    45    28    30    1
@<TRIPOS>MOLECULE
*****
 42 45 0 0 0
SMALL
GASTEIGER

@<TRIPOS>ATOM
      1 C           3.6929   -0.5910   27.8557 C.3     1  UNL1        0.2344
      2 N           3.4876   -0.0328   26.4786 N.3     1  UNL1       -0.2401
      3 C           3.2852    1.4414   26.2894 C.3     1  UNL1        0.0753
      4 C           3.0799    1.9996   24.9124 C.3     1  UNL1        0.0175
      5 C           3.0768    1.0836   23.7246 C.3     1  UNL1        0.0031
      6 C           3.2791   -0.3906   23.9137 C.3     1  UNL1        0.0205
      7 C           3.4845   -0.9488   25.2908 C.3     1  UNL1        0.0756
      8 C           3.2761   -1.3066   22.7259 C.3     1  UNL1        0.0277
      9 C           3.5956   -0.7682   21.3628 C.ar    1  UNL1       -0.0220
     10 C           4.9571   -0.2066   21.0784 C.ar    1  UNL1       -0.0020
     11 C           5.2766    0.3318   19.7153 C.ar    1  UNL1        0.0293
     12 C           4.2347    0.3086   18.6366 C.ar    1  UNL1        0.1401
     13 F           4.5542    0.8470   17.2735 F       1  UNL1       -0.2042
     14 C           2.8732   -0.2529   18.9210 C.ar    1  UNL1        0.0293
     15 C           2.5537   -0.7913   20.2841 C.ar    1  UNL1       -0.0020
     16 O           2.5198   -1.0940   28.6437 O.3     1  UNL1       -0.4221
     17 C          -0.7806    0.9643   27.8562 C.3     1  UNL1        0.1140
     18 N           0.4251    0.0922   27.6667 N.am    1  UNL1       -0.2689
     19 C           1.3142   -0.2219   28.8332 C.2     1  UNL1        0.4028
     20 O           0.9977    0.3360   30.1891 O.2     1  UNL1       -0.2264
     21 H           0.6328   -0.2739   26.7768 H       1  UNL1        0.1528
     22 C           5.0713   -0.6463   28.4446 C.3     1  UNL1        0.0810
     23 C           5.9902   -1.7801   28.0980 C.3     1  UNL1        0.0782
     24 C           7.3195   -1.9041   28.7816 C.3     1  UNL1        0.0215
     25 N           5.5797   -2.7900   27.0676 N.am    1  UNL1       -0.2902
     26 C           6.4181   -2.9928   25.8404 C.2     1  UNL1        0.3044
     27 O           7.6670   -2.1856   25.6436 O.2     1  UNL1       -0.2525
     28 N           6.0076   -4.0026   24.8101 N.am    1  UNL1       -0.2683
     29 H           4.7599   -3.3197   27.1968 H       1  UNL1        0.1509
     30 H           5.1879   -4.5323   24.9392 H       1  UNL1        0.1564
     31 C           6.8460   -4.2054   23.5829 C.ar    1  UNL1        0.0517
     32 C           8.1276   -4.9799   23.6697 C.ar    1  UNL1        0.0147
     33 C           8.9660   -5.1826   22.4425 C.ar    1  UNL1        0.0014
     34 C           8.5228   -4.6108   21.1285 C.ar    1  UNL1        0.0032
     35 C           7.2412   -3.8363   21.0417 C.ar    1  UNL1        0.0386
     36 C           6.4028   -3.6336   22.2689 C.ar    1  UNL1        0.0178
     37 C           6.7980   -3.2645   19.7277 C.ar    1  UNL1        0.1839
     38 N           7.6224   -2.4025   18.8182 N.ar    1  UNL1       -0.1081
     39 N           6.7864   -2.0596   17.6209 N.ar    1  UNL1       -0.0227
     40 N           5.4453   -2.7097   17.7903 N.ar    1  UNL1       -0.0429
     41 N           5.4525   -3.4544   19.0924 N.ar    1  UNL1       -0.2113
     42 C           4.3139   -4.2494   19.6596 C.3     1  UNL1        0.1573
@<TRIPOS>BOND
     1    17    18    1
     2    18    19   am
     3    19    20    2
     4    19    16    1
     5    16     1    1
     6     1    22    1
     7    22    23    1
     8    23    24    1
     9    23    25    1
    10    25    26   am
    11    26    27    2
    12    26    28   am
    13    28    31    1
    14    31    32   ar
    15    32    33   ar
    16    33    34   ar
    17    34    35   ar
    18    35    37    1
    19    37    38   ar
    20    38    39   ar
    21    39    40   ar
    22    40    41   ar
    23    41    42    1
    24    35    36   ar
    25     1     2    1
    26     2     3    1
    27     3     4    1
    28     4     5    1
    29     5     6    1
    30     6     8    1
    31     8     9    1
    32     9    10   ar
    33    10    11   ar
    34    11    12   ar
    35    12    13    1
    36    12    14   ar
    37    14    15   ar
    38     6     7    1
    39    36    31   ar
    40     7     2    1
    41    41    37   ar
    42    15     9   ar
    43    18    21    1
    44    25    29    1
    45    28    30    1
@<TRIPOS>MOLECULE
*****
 42 45 0 0 0
SMALL
GASTEIGER

@<TRIPOS>ATOM
      1 C          -3.6716  -19.1490   20.2967 C.3     1  UNL1        0.2344
      2 N          -3.6999  -18.5082   21.6526 N.3     1  UNL1       -0.2401
      3 C          -2.7725  -18.9891   22.7290 C.3     1  UNL1        0.0753
      4 C          -2.8009  -18.3483   24.0849 C.3     1  UNL1        0.0175
      5 C          -3.7567  -17.2267   24.3646 C.3     1  UNL1        0.0031
      6 C          -4.6843  -16.7458   23.2882 C.3     1  UNL1        0.0205
      7 C          -4.6559  -17.3865   21.9323 C.3     1  UNL1        0.0756
      8 C          -5.6401  -15.6241   23.5678 C.3     1  UNL1        0.0277
      9 C          -6.5090  -15.6662   24.7899 C.ar    1  UNL1       -0.0220
     10 C          -5.9441  -15.2824   26.1253 C.ar    1  UNL1       -0.0020
     11 C          -6.8130  -15.3245   27.3473 C.ar    1  UNL1        0.0293
     12 C          -8.2467  -15.7504   27.2339 C.ar    1  UNL1        0.1401
     13 F          -9.1156  -15.7925   28.4559 F       1  UNL1       -0.2042
     14 C          -8.8116  -16.1343   25.8984 C.ar    1  UNL1        0.0293
     15 C          -7.9427  -16.0922   24.6764 C.ar    1  UNL1       -0.0020
     16 O          -3.2857  -18.3409   19.0932 O.3     1  UNL1       -0.4221
     17 C           0.4688  -17.3110   19.8633 C.3     1  UNL1        0.1140
     18 N          -0.9617  -17.7127   20.0698 N.am    1  UNL1       -0.2689
     19 C          -1.8554  -17.9392   18.8867 C.2     1  UNL1        0.4028
     20 O          -1.3187  -17.7642   17.4969 O.2     1  UNL1       -0.2264
     21 H          -1.3139  -17.8276   20.9819 H       1  UNL1        0.1528
     22 C          -4.0290  -20.5977   20.1441 C.3     1  UNL1        0.0810
     23 C          -5.4321  -21.0562   20.4107 C.3     1  UNL1        0.0782
     24 C          -6.2067  -21.7629   19.3382 C.3     1  UNL1        0.0215
     25 N          -6.0606  -20.8079   21.7498 N.am    1  UNL1       -0.2902
     26 C          -7.3813  -20.1023   21.8393 C.2     1  UNL1        0.3044
     27 O          -8.0735  -19.6452   20.5895 O.2     1  UNL1       -0.2525
     28 N          -8.0098  -19.8540   23.1784 N.am    1  UNL1       -0.2683
     29 H          -5.6062  -21.1079   22.5701 H       1  UNL1        0.1509
     30 H          -7.5555  -20.1541   23.9986 H       1  UNL1        0.1564
     31 C          -9.3306  -19.1485   23.2678 C.ar    1  UNL1        0.0517
     32 C         -10.1983  -19.3316   24.4776 C.ar    1  UNL1        0.0147
     33 C         -11.5189  -18.6261   24.5670 C.ar    1  UNL1        0.0014
     34 C         -11.9719  -17.7375   23.4466 C.ar    1  UNL1        0.0032
     35 C         -11.1042  -17.5544   22.2369 C.ar    1  UNL1        0.0386
     36 C          -9.7835  -18.2599   22.1475 C.ar    1  UNL1        0.0178
     37 C         -11.5572  -16.6658   21.1165 C.ar    1  UNL1        0.1839
     38 N         -12.9056  -16.6926   20.4600 N.ar    1  UNL1       -0.1081
     39 N         -12.9231  -15.6377   19.3937 N.ar    1  UNL1       -0.0227
     40 N         -11.5854  -14.9590   19.3912 N.ar    1  UNL1       -0.0429
     41 N         -10.7413  -15.5944   20.4560 N.ar    1  UNL1       -0.2113
     42 C          -9.3291  -15.2234   20.7998 C.3     1  UNL1        0.1573
@<TRIPOS>BOND
     1    17    18    1
     2    18    19   am
     3    19    20    2
     4    19    16    1
     5    16     1    1
     6     1    22    1
     7    22    23    1
     8    23    24    1
     9    23    25    1
    10    25    26   am
    11    26    27    2
    12    26    28   am
    13    28    31    1
    14    31    32   ar
    15    32    33   ar
    16    33    34   ar
    17    34    35   ar
    18    35    37    1
    19    37    38   ar
    20    38    39   ar
    21    39    40   ar
    22    40    41   ar
    23    41    42    1
    24    35    36   ar
    25     1     2    1
    26     2     3    1
    27     3     4    1
    28     4     5    1
    29     5     6    1
    30     6     8    1
    31     8     9    1
    32     9    10   ar
    33    10    11   ar
    34    11    12   ar
    35    12    13    1
    36    12    14   ar
    37    14    15   ar
    38     6     7    1
    39    36    31   ar
    40     7     2    1
    41    41    37   ar
    42    15     9   ar
    43    18    21    1
    44    25    29    1
    45    28    30    1
@<TRIPOS>MOLECULE
*****
 42 45 0 0 0
SMALL
GASTEIGER

@<TRIPOS>ATOM
      1 C           4.1534   -0.0204   26.8774 C.3     1  UNL1        0.2344
      2 N           4.5127    0.0336   25.4221 N.3     1  UNL1       -0.2401
      3 C           5.7182    0.8064   24.9754 C.3     1  UNL1        0.0753
      4 C           6.0776    0.8603   23.5201 C.3     1  UNL1        0.0175
      5 C           5.2315    0.1415   22.5115 C.3     1  UNL1        0.0031
      6 C           4.0259   -0.6313   22.9582 C.3     1  UNL1        0.0205
      7 C           3.6665   -0.6853   24.4135 C.3     1  UNL1        0.0756
      8 C           3.1798   -1.3501   21.9496 C.3     1  UNL1        0.0277
      9 C           2.4505   -0.5743   20.8930 C.ar    1  UNL1       -0.0220
     10 C           1.1199    0.0455   21.2018 C.ar    1  UNL1       -0.0020
     11 C           0.3906    0.8213   20.1453 C.ar    1  UNL1        0.0293
     12 C           0.9919    0.9774   18.7800 C.ar    1  UNL1        0.1401
     13 F           0.2626    1.7532   17.7235 F       1  UNL1       -0.2042
     14 C           2.3225    0.3576   18.4712 C.ar    1  UNL1        0.0293
     15 C           3.0518   -0.4183   19.5278 C.ar    1  UNL1       -0.0020
     16 O           2.7506    0.2806   27.3152 O.3     1  UNL1       -0.4221
     17 C           1.8097    3.8148   25.7744 C.3     1  UNL1        0.1140
     18 N           2.3515    2.4215   25.8986 N.am    1  UNL1       -0.2689
     19 C           2.2087    1.6738   27.1910 C.2     1  UNL1        0.4028
     20 O           1.5241    2.3191   28.3593 O.2     1  UNL1       -0.2264
     21 H           2.8009    1.9980   25.1319 H       1  UNL1        0.1528
     22 C           5.1968   -0.3752   27.8949 C.3     1  UNL1        0.0810
     23 C           5.8401   -1.7300   27.8683 C.3     1  UNL1        0.0782
     24 C           6.8973   -2.0781   28.8739 C.3     1  UNL1        0.0215
     25 N           5.4264   -2.7366   26.8361 N.am    1  UNL1       -0.2902
     26 C           6.2626   -2.9377   25.6071 C.2     1  UNL1        0.3044
     27 O           7.5126   -2.1321   25.4104 O.2     1  UNL1       -0.2525
     28 N           5.8489   -3.9443   24.5749 N.am    1  UNL1       -0.2683
     29 H           4.6060   -3.2653   26.9652 H       1  UNL1        0.1509
     30 H           5.0285   -4.4730   24.7040 H       1  UNL1        0.1564
     31 C           6.6851   -4.1454   23.3459 C.ar    1  UNL1        0.0517
     32 C           7.9094   -5.0100   23.4049 C.ar    1  UNL1        0.0147
     33 C           8.7455   -5.2110   22.1760 C.ar    1  UNL1        0.0014
     34 C           8.3574   -4.5474   20.8879 C.ar    1  UNL1        0.0032
     35 C           7.1332   -3.6828   20.8289 C.ar    1  UNL1        0.0386
     36 C           6.2970   -3.4817   22.0579 C.ar    1  UNL1        0.0178
     37 C           6.7451   -3.0191   19.5409 C.ar    1  UNL1        0.1839
     38 N           7.5814   -2.0468   18.7630 N.ar    1  UNL1       -0.1081
     39 N           6.8057   -1.6380   17.5460 N.ar    1  UNL1       -0.0227
     40 N           5.4899   -2.3578   17.5716 N.ar    1  UNL1       -0.0429
     41 N           5.4525   -3.2113   18.8045 N.ar    1  UNL1       -0.2113
     42 C           4.3210   -4.1009   19.2269 C.3     1  UNL1        0.1573
@<TRIPOS>BOND
     1    17    18    1
     2    18    19   am
     3    19    20    2
     4    19    16    1
     5    16     1    1
     6     1    22    1
     7    22    23    1
     8    23    24    1
     9    23    25    1
    10    25    26   am
    11    26    27    2
    12    26    28   am
    13    28    31    1
    14    31    32   ar
    15    32    33   ar
    16    33    34   ar
    17    34    35   ar
    18    35    37    1
    19    37    38   ar
    20    38    39   ar
    21    39    40   ar
    22    40    41   ar
    23    41    42    1
    24    35    36   ar
    25     1     2    1
    26     2     3    1
    27     3     4    1
    28     4     5    1
    29     5     6    1
    30     6     8    1
    31     8     9    1
    32     9    10   ar
    33    10    11   ar
    34    11    12   ar
    35    12    13    1
    36    12    14   ar
    37    14    15   ar
    38     6     7    1
    39    36    31   ar
    40     7     2    1
    41    41    37   ar
    42    15     9   ar
    43    18    21    1
    44    25    29    1
    45    28    30    1
@<TRIPOS>MOLECULE
*****
 42 45 0 0 0
SMALL
GASTEIGER

@<TRIPOS>ATOM
      1 C          -1.9431    3.7351   23.8525 C.3     1  UNL1        0.2344
      2 N          -0.8851    2.9289   24.5458 N.3     1  UNL1       -0.2401
      3 C           0.4957    2.8466   23.9656 C.3     1  UNL1        0.0753
      4 C           1.5537    2.0403   24.6589 C.3     1  UNL1        0.0175
      5 C           1.2309    1.3164   25.9324 C.3     1  UNL1        0.0031
      6 C          -0.1499    1.3987   26.5126 C.3     1  UNL1        0.0205
      7 C          -1.2079    2.2050   25.8193 C.3     1  UNL1        0.0756
      8 C          -0.4727    0.6748   27.7861 C.3     1  UNL1        0.0277
      9 C           0.4733    0.7431   28.9481 C.ar    1  UNL1       -0.0220
     10 C           0.4640    1.9388   29.8536 C.ar    1  UNL1       -0.0020
     11 C           1.4101    2.0071   31.0156 C.ar    1  UNL1        0.0293
     12 C           2.3655    0.8796   31.2721 C.ar    1  UNL1        0.1401
     13 F           3.3115    0.9478   32.4342 F       1  UNL1       -0.2042
     14 C           2.3748   -0.3162   30.3666 C.ar    1  UNL1        0.0293
     15 C           1.4287   -0.3845   29.2046 C.ar    1  UNL1       -0.0020
     16 O          -3.3619    3.6850   24.3368 O.3     1  UNL1       -0.4221
     17 C          -6.6812    4.7080   22.4170 C.3     1  UNL1        0.1140
     18 N          -5.5519    4.7261   23.4042 N.am    1  UNL1       -0.2689
     19 C          -4.4911    3.6670   23.3497 C.2     1  UNL1        0.4028
     20 O          -4.5596    2.5898   22.3080 O.2     1  UNL1       -0.2264
     21 H          -5.5070    5.4330   24.0879 H       1  UNL1        0.1528
     22 C          -1.5823    4.5914   22.6750 C.3     1  UNL1        0.0810
     23 C          -1.9071    4.1306   21.2850 C.3     1  UNL1        0.0782
     24 C          -2.3734    5.1185   20.2571 C.3     1  UNL1        0.0215
     25 N          -1.7654    2.6819   20.9228 N.am    1  UNL1       -0.2902
     26 C          -0.4352    2.1450   20.4844 C.2     1  UNL1        0.3044
     27 O           0.7534    3.0568   20.4081 O.2     1  UNL1       -0.2525
     28 N          -0.2935    0.6963   20.1222 N.am    1  UNL1       -0.2683
     29 H          -2.5455    2.0835   20.9729 H       1  UNL1        0.1509
     30 H          -1.0736    0.0979   20.1723 H       1  UNL1        0.1564
     31 C           1.0367    0.1594   19.6837 C.ar    1  UNL1        0.0517
     32 C           1.6487    0.6303   18.3978 C.ar    1  UNL1        0.0147
     33 C           2.9788    0.0934   17.9593 C.ar    1  UNL1        0.0014
     34 C           3.6971   -0.9144   18.8069 C.ar    1  UNL1        0.0032
     35 C           3.0852   -1.3854   20.0929 C.ar    1  UNL1        0.0386
     36 C           1.7550   -0.8484   20.5313 C.ar    1  UNL1        0.0178
     37 C           3.8035   -2.3932   20.9404 C.ar    1  UNL1        0.1839
     38 N           4.0662   -2.2800   22.4129 N.ar    1  UNL1       -0.1081
     39 N           4.8102   -3.5080   22.8468 N.ar    1  UNL1       -0.0227
     40 N           5.0074   -4.3802   21.6425 N.ar    1  UNL1       -0.0429
     41 N           4.3852   -3.6912   20.4643 N.ar    1  UNL1       -0.2113
     42 C           4.3508   -4.2094   19.0571 C.3     1  UNL1        0.1573
@<TRIPOS>BOND
     1    17    18    1
     2    18    19   am
     3    19    20    2
     4    19    16    1
     5    16     1    1
     6     1    22    1
     7    22    23    1
     8    23    24    1
     9    23    25    1
    10    25    26   am
    11    26    27    2
    12    26    28   am
    13    28    31    1
    14    31    32   ar
    15    32    33   ar
    16    33    34   ar
    17    34    35   ar
    18    35    37    1
    19    37    38   ar
    20    38    39   ar
    21    39    40   ar
    22    40    41   ar
    23    41    42    1
    24    35    36   ar
    25     1     2    1
    26     2     3    1
    27     3     4    1
    28     4     5    1
    29     5     6    1
    30     6     8    1
    31     8     9    1
    32     9    10   ar
    33    10    11   ar
    34    11    12   ar
    35    12    13    1
    36    12    14   ar
    37    14    15   ar
    38     6     7    1
    39    36    31   ar
    40     7     2    1
    41    41    37   ar
    42    15     9   ar
    43    18    21    1
    44    25    29    1
    45    28    30    1
@<TRIPOS>MOLECULE
*****
 42 45 0 0 0
SMALL
GASTEIGER

@<TRIPOS>ATOM
      1 C           0.3741    2.7953   21.3762 C.3     1  UNL1        0.2344
      2 N           1.5454    2.4718   20.4967 N.3     1  UNL1       -0.2401
      3 C           1.7034    3.1616   19.1742 C.3     1  UNL1        0.0753
      4 C           2.8747    2.8380   18.2947 C.3     1  UNL1        0.0175
      5 C           3.8879    1.8246   18.7378 C.3     1  UNL1        0.0031
      6 C           3.7299    1.1347   20.0604 C.3     1  UNL1        0.0205
      7 C           2.5586    1.4583   20.9398 C.3     1  UNL1        0.0756
      8 C           4.7431    0.1213   20.5034 C.3     1  UNL1        0.0277
      9 C           4.7290   -1.2592   19.9170 C.ar    1  UNL1       -0.0220
     10 C           5.6901   -1.6193   18.8232 C.ar    1  UNL1       -0.0020
     11 C           5.6761   -2.9999   18.2368 C.ar    1  UNL1        0.0293
     12 C           4.7009   -4.0203   18.7443 C.ar    1  UNL1        0.1401
     13 F           4.6868   -5.4009   18.1579 F       1  UNL1       -0.2042
     14 C           3.7398   -3.6603   19.8381 C.ar    1  UNL1        0.0293
     15 C           3.7539   -2.2797   20.4245 C.ar    1  UNL1       -0.0020
     16 O          -0.9752    2.2148   21.0720 O.3     1  UNL1       -0.4221
     17 C          -4.5956    3.5754   20.1826 C.3     1  UNL1        0.1140
     18 N          -3.5031    2.6957   20.7143 N.am    1  UNL1       -0.2689
     19 C          -2.0676    3.0945   20.5403 C.2     1  UNL1        0.4028
     20 O          -1.7246    4.3729   19.8347 O.2     1  UNL1       -0.2264
     21 H          -3.7282    1.8566   21.1774 H       1  UNL1        0.1528
     22 C           0.5521    3.6994   22.5597 C.3     1  UNL1        0.0810
     23 C           0.2897    3.1837   23.9436 C.3     1  UNL1        0.0782
     24 C          -0.1930    4.1180   25.0132 C.3     1  UNL1        0.0215
     25 N           0.5100    1.7336   24.2579 N.am    1  UNL1       -0.2902
     26 C           1.9010    1.2165   24.4767 C.2     1  UNL1        0.3044
     27 O           3.0716    2.1496   24.3812 O.2     1  UNL1       -0.2525
     28 N           2.1213   -0.2335   24.7910 N.am    1  UNL1       -0.2683
     29 H          -0.2583    1.1213   24.3207 H       1  UNL1        0.1509
     30 H           1.3530   -0.8458   24.8537 H       1  UNL1        0.1564
     31 C           3.5123   -0.7506   25.0098 C.ar    1  UNL1        0.0517
     32 C           4.1975   -0.5266   26.3252 C.ar    1  UNL1        0.0147
     33 C           5.5884   -1.0437   26.5439 C.ar    1  UNL1        0.0014
     34 C           6.2942   -1.7847   25.4472 C.ar    1  UNL1        0.0032
     35 C           5.6090   -2.0087   24.1318 C.ar    1  UNL1        0.0386
     36 C           4.2181   -1.4916   23.9131 C.ar    1  UNL1        0.0178
     37 C           6.3148   -2.7498   23.0351 C.ar    1  UNL1        0.1839
     38 N           6.0577   -4.1688   22.6226 N.ar    1  UNL1       -0.1081
     39 N           6.9856   -4.4980   21.4909 N.ar    1  UNL1       -0.0227
     40 N           7.8162   -3.2824   21.2040 N.ar    1  UNL1       -0.0429
     41 N           7.4016   -2.2019   22.1584 N.ar    1  UNL1       -0.2113
     42 C           7.9735   -0.8168   22.2244 C.3     1  UNL1        0.1573
@<TRIPOS>BOND
     1    17    18    1
     2    18    19   am
     3    19    20    2
     4    19    16    1
     5    16     1    1
     6     1    22    1
     7    22    23    1
     8    23    24    1
     9    23    25    1
    10    25    26   am
    11    26    27    2
    12    26    28   am
    13    28    31    1
    14    31    32   ar
    15    32    33   ar
    16    33    34   ar
    17    34    35   ar
    18    35    37    1
    19    37    38   ar
    20    38    39   ar
    21    39    40   ar
    22    40    41   ar
    23    41    42    1
    24    35    36   ar
    25     1     2    1
    26     2     3    1
    27     3     4    1
    28     4     5    1
    29     5     6    1
    30     6     8    1
    31     8     9    1
    32     9    10   ar
    33    10    11   ar
    34    11    12   ar
    35    12    13    1
    36    12    14   ar
    37    14    15   ar
    38     6     7    1
    39    36    31   ar
    40     7     2    1
    41    41    37   ar
    42    15     9   ar
    43    18    21    1
    44    25    29    1
    45    28    30    1
