@<TRIPOS>MOLECULE
*****
 31 33 0 0 0
SMALL
GASTEIGER

@<TRIPOS>ATOM
      1 C          -5.0779  -19.2420   22.1099 C.3     1  UNL1        0.1020
      2 C          -3.8487  -18.4912   22.5289 C.3     1  UNL1        0.1697
      3 O          -2.4958  -18.9557   22.0773 O.3     1  UNL1       -0.3793
      4 H          -2.5933  -19.7478   21.5259 H       1  UNL1        0.2106
      5 C          -3.9725  -17.2761   23.3995 C.3     1  UNL1        0.2358
      6 O          -5.1058  -16.3159   23.1906 O.3     1  UNL1       -0.4721
      7 C          -5.9797  -15.9244   24.3451 C.ar    1  UNL1        0.1484
      8 C          -5.4105  -15.8697   25.7318 C.ar    1  UNL1        0.0407
      9 C          -6.2844  -15.4782   26.8863 C.ar    1  UNL1        0.0398
     10 C          -7.7276  -15.1414   26.6542 C.ar    1  UNL1        0.1345
     11 O          -8.6015  -14.7499   27.8087 O.3     1  UNL1       -0.5055
     12 C          -8.2968  -15.1961   25.2675 C.ar    1  UNL1        0.0499
     13 C          -7.4229  -15.5876   24.1129 C.ar    1  UNL1        0.1053
     14 H          -8.2459  -14.7157   28.6749 H       1  UNL1        0.2922
     15 C          -7.9920  -15.6424   22.7262 C.1     1  UNL1        0.1036
     16 N          -8.5612  -15.6971   21.3395 N.1     1  UNL1       -0.1907
     17 N          -6.1664  -18.5373   21.3559 N.3     1  UNL1       -0.2972
     18 H          -6.3306  -17.6518   21.8346 H       1  UNL1        0.1233
     19 C          -7.2893  -19.2463   19.7016 C.3     1  UNL1        0.0161
     20 C          -7.5052  -19.1918   21.1850 C.3     1  UNL1        0.0462
     21 C          -7.7213  -19.1373   22.6683 C.3     1  UNL1        0.0161
     22 C          -8.8441  -19.8463   21.0140 C.3     1  UNL1        0.0424
     23 C         -10.0860  -19.0076   20.9487 C.2     1  UNL1       -0.0006
     24 C         -10.5925  -18.2746   19.7419 C.2     1  UNL1        0.0942
     25 N         -11.8590  -17.5687   20.1261 N.2     1  UNL1       -0.2482
     26 C         -12.1353  -17.8654   21.5703 C.2     1  UNL1        0.0631
     27 C         -13.2431  -17.4407   22.4881 C.3     1  UNL1        0.0717
     28 C         -13.2551  -17.9053   23.9142 C.2     1  UNL1       -0.0198
     29 C         -12.1594  -18.7946   24.4226 C.2     1  UNL1       -0.0042
     30 C         -11.0516  -19.2193   23.5048 C.2     1  UNL1        0.0006
     31 C         -11.0396  -18.7547   22.0787 C.2     1  UNL1        0.0114
@<TRIPOS>BOND
     1    19    20    1
     2    20    21    1
     3    20    22    1
     4    22    23    1
     5    23    24    2
     6    24    25    1
     7    25    26    2
     8    26    27    1
     9    27    28    1
    10    28    29    2
    11    29    30    1
    12    30    31    2
    13    20    17    1
    14    17     1    1
    15     1     2    1
    16     2     3    1
    17     2     5    1
    18     5     6    1
    19     6     7    1
    20     7     8   ar
    21     8     9   ar
    22     9    10   ar
    23    10    11    1
    24    10    12   ar
    25    12    13   ar
    26    13    15    1
    27    15    16    3
    28    31    23    1
    29    13     7   ar
    30    31    26    1
    31    17    18    1
    32     3     4    1
    33    11    14    1
@<TRIPOS>MOLECULE
*****
 31 33 0 0 0
SMALL
GASTEIGER

@<TRIPOS>ATOM
      1 C          -5.5024  -15.8137   25.1924 C.3     1  UNL1        0.1020
      2 C          -4.6138  -16.1370   24.0279 C.3     1  UNL1        0.1697
      3 O          -4.4460  -15.1458   22.9146 O.3     1  UNL1       -0.3793
      4 H          -4.9763  -14.3557   23.1026 H       1  UNL1        0.2106
      5 C          -3.8931  -17.4515   23.9768 C.3     1  UNL1        0.2358
      6 O          -4.1080  -18.3802   22.8187 O.3     1  UNL1       -0.4721
      7 C          -3.2805  -18.2338   21.5762 C.ar    1  UNL1        0.1484
      8 C          -2.1183  -17.2857   21.5566 C.ar    1  UNL1        0.0407
      9 C          -1.2907  -17.1393   20.3141 C.ar    1  UNL1        0.0398
     10 C          -1.6254  -17.9409   19.0912 C.ar    1  UNL1        0.1345
     11 O          -0.7979  -17.7944   17.8488 O.3     1  UNL1       -0.5055
     12 C          -2.7877  -18.8889   19.1108 C.ar    1  UNL1        0.0499
     13 C          -3.6152  -19.0353   20.3533 C.ar    1  UNL1        0.1053
     14 H          -0.0719  -17.2022   17.8365 H       1  UNL1        0.2922
     15 C          -4.7775  -19.9833   20.3730 C.1     1  UNL1        0.1036
     16 N          -5.9397  -20.9314   20.3926 N.1     1  UNL1       -0.1907
     17 N          -6.6176  -14.8234   25.0325 N.3     1  UNL1       -0.2972
     18 H          -6.6233  -14.2479   25.8746 H       1  UNL1        0.1233
     19 C          -8.2211  -15.3618   26.3127 C.3     1  UNL1        0.0161
     20 C          -8.0236  -15.3039   24.8269 C.3     1  UNL1        0.0462
     21 C          -7.8262  -15.2460   23.3411 C.3     1  UNL1        0.0161
     22 C          -9.4297  -15.7844   24.6214 C.3     1  UNL1        0.0424
     23 C          -9.7027  -17.2476   24.4358 C.2     1  UNL1       -0.0006
     24 C          -9.5492  -18.3126   25.4808 C.2     1  UNL1        0.0942
     25 N          -9.9287  -19.6259   24.8634 N.2     1  UNL1       -0.2482
     26 C         -10.3168  -19.3725   23.4368 C.2     1  UNL1        0.0631
     27 C         -10.7793  -20.2903   22.3442 C.3     1  UNL1        0.0717
     28 C         -11.1021  -19.7383   20.9874 C.2     1  UNL1       -0.0198
     29 C         -10.9624  -18.2683   20.7232 C.2     1  UNL1       -0.0042
     30 C         -10.4999  -17.3505   21.8157 C.2     1  UNL1        0.0006
     31 C         -10.1771  -17.9026   23.1725 C.2     1  UNL1        0.0114
@<TRIPOS>BOND
     1    19    20    1
     2    20    21    1
     3    20    22    1
     4    22    23    1
     5    23    24    2
     6    24    25    1
     7    25    26    2
     8    26    27    1
     9    27    28    1
    10    28    29    2
    11    29    30    1
    12    30    31    2
    13    20    17    1
    14    17     1    1
    15     1     2    1
    16     2     3    1
    17     2     5    1
    18     5     6    1
    19     6     7    1
    20     7     8   ar
    21     8     9   ar
    22     9    10   ar
    23    10    11    1
    24    10    12   ar
    25    12    13   ar
    26    13    15    1
    27    15    16    3
    28    31    23    1
    29    13     7   ar
    30    31    26    1
    31    17    18    1
    32     3     4    1
    33    11    14    1
@<TRIPOS>MOLECULE
*****
 31 33 0 0 0
SMALL
GASTEIGER

@<TRIPOS>ATOM
      1 C          -5.9382  -15.3483   25.1909 C.3     1  UNL1        0.1020
      2 C          -5.0401  -15.5719   24.0105 C.3     1  UNL1        0.1697
      3 O          -4.9744  -14.5504   22.9140 O.3     1  UNL1       -0.3793
      4 H          -5.5693  -13.8133   23.1226 H       1  UNL1        0.2106
      5 C          -4.2078  -16.8169   23.9266 C.3     1  UNL1        0.2358
      6 O          -4.3917  -17.7662   22.7798 O.3     1  UNL1       -0.4721
      7 C          -3.3993  -17.7850   21.6552 C.ar    1  UNL1        0.1484
      8 C          -2.2352  -16.8392   21.6663 C.ar    1  UNL1        0.0407
      9 C          -1.2428  -16.8580   20.5416 C.ar    1  UNL1        0.0398
     10 C          -1.4146  -17.8227   19.4059 C.ar    1  UNL1        0.1345
     11 O          -0.4222  -17.8415   18.2812 O.3     1  UNL1       -0.5055
     12 C          -2.5787  -18.7685   19.3948 C.ar    1  UNL1        0.0499
     13 C          -3.5711  -18.7497   20.5195 C.ar    1  UNL1        0.1053
     14 H           0.3050  -17.2507   18.2882 H       1  UNL1        0.2922
     15 C          -4.7352  -19.6955   20.5085 C.1     1  UNL1        0.1036
     16 N          -5.8994  -20.6414   20.4976 N.1     1  UNL1       -0.1907
     17 N          -7.3722  -14.9621   24.9797 N.3     1  UNL1       -0.2972
     18 H          -7.6678  -14.4586   25.8161 H       1  UNL1        0.1233
     19 C          -8.5612  -16.2241   26.2017 C.3     1  UNL1        0.0161
     20 C          -8.4041  -16.0202   24.7240 C.3     1  UNL1        0.0462
     21 C          -8.2470  -15.8163   23.2462 C.3     1  UNL1        0.0161
     22 C          -9.4361  -17.0784   24.4683 C.3     1  UNL1        0.0424
     23 C         -10.2955  -17.0070   23.2409 C.2     1  UNL1       -0.0006
     24 C         -11.4523  -16.0762   23.0275 C.2     1  UNL1        0.0942
     25 N         -12.0206  -16.3477   21.6662 N.2     1  UNL1       -0.2482
     26 C         -11.2151  -17.4463   21.0382 C.2     1  UNL1        0.0631
     27 C         -11.3147  -18.1282   19.7059 C.3     1  UNL1        0.0717
     28 C         -10.3481  -19.2176   19.3469 C.2     1  UNL1       -0.0198
     29 C          -9.2819  -19.6250   20.3202 C.2     1  UNL1       -0.0042
     30 C          -9.1823  -18.9431   21.6524 C.2     1  UNL1        0.0006
     31 C         -10.1489  -17.8537   22.0114 C.2     1  UNL1        0.0114
@<TRIPOS>BOND
     1    19    20    1
     2    20    21    1
     3    20    22    1
     4    22    23    1
     5    23    24    2
     6    24    25    1
     7    25    26    2
     8    26    27    1
     9    27    28    1
    10    28    29    2
    11    29    30    1
    12    30    31    2
    13    20    17    1
    14    17     1    1
    15     1     2    1
    16     2     3    1
    17     2     5    1
    18     5     6    1
    19     6     7    1
    20     7     8   ar
    21     8     9   ar
    22     9    10   ar
    23    10    11    1
    24    10    12   ar
    25    12    13   ar
    26    13    15    1
    27    15    16    3
    28    31    23    1
    29    13     7   ar
    30    31    26    1
    31    17    18    1
    32     3     4    1
    33    11    14    1
@<TRIPOS>MOLECULE
*****
 31 33 0 0 0
SMALL
GASTEIGER

@<TRIPOS>ATOM
      1 C          -5.8329  -14.9586   24.8555 C.3     1  UNL1        0.1020
      2 C          -4.8832  -15.3453   23.7608 C.3     1  UNL1        0.1697
      3 O          -4.5979  -14.3874   22.6422 O.3     1  UNL1       -0.3793
      4 H          -5.1047  -13.5715   22.7781 H       1  UNL1        0.2106
      5 C          -4.2187  -16.6899   23.7846 C.3     1  UNL1        0.2358
      6 O          -3.5881  -17.2370   22.5384 O.3     1  UNL1       -0.4721
      7 C          -4.2007  -18.4169   21.8437 C.ar    1  UNL1        0.1484
      8 C          -5.4628  -19.0284   22.3757 C.ar    1  UNL1        0.0407
      9 C          -6.0754  -20.2082   21.6809 C.ar    1  UNL1        0.0398
     10 C          -5.4258  -20.7765   20.4541 C.ar    1  UNL1        0.1345
     11 O          -6.0384  -21.9564   19.7593 O.3     1  UNL1       -0.5055
     12 C          -4.1637  -20.1650   19.9220 C.ar    1  UNL1        0.0499
     13 C          -3.5511  -18.9852   20.6168 C.ar    1  UNL1        0.1053
     14 H          -6.8268  -22.3384   20.0917 H       1  UNL1        0.2922
     15 C          -2.2890  -18.3736   20.0849 C.1     1  UNL1        0.1036
     16 N          -1.0270  -17.7621   19.5528 N.1     1  UNL1       -0.1907
     17 N          -7.2433  -14.5713   24.5228 N.3     1  UNL1       -0.2972
     18 H          -7.5501  -13.9241   25.2490 H       1  UNL1        0.1233
     19 C          -8.0743  -15.6940   22.9262 C.3     1  UNL1        0.0161
     20 C          -8.3033  -15.6263   24.4070 C.3     1  UNL1        0.0462
     21 C          -8.5324  -15.5586   25.8879 C.3     1  UNL1        0.0161
     22 C          -9.3634  -16.6813   24.2913 C.3     1  UNL1        0.0424
     23 C         -10.2617  -16.7133   23.0904 C.2     1  UNL1       -0.0006
     24 C         -11.4337  -15.8107   22.8417 C.2     1  UNL1        0.0942
     25 N         -12.0420  -16.1931   21.5250 N.2     1  UNL1       -0.2482
     26 C         -11.2460  -17.3320   20.9599 C.2     1  UNL1        0.0631
     27 C         -11.3809  -18.1178   19.6894 C.3     1  UNL1        0.0717
     28 C         -10.4155  -19.2251   19.3864 C.2     1  UNL1       -0.0198
     29 C          -9.3152  -19.5466   20.3539 C.2     1  UNL1       -0.0042
     30 C          -9.1803  -18.7608   21.6244 C.2     1  UNL1        0.0006
     31 C         -10.1457  -17.6535   21.9274 C.2     1  UNL1        0.0114
@<TRIPOS>BOND
     1    19    20    1
     2    20    21    1
     3    20    22    1
     4    22    23    1
     5    23    24    2
     6    24    25    1
     7    25    26    2
     8    26    27    1
     9    27    28    1
    10    28    29    2
    11    29    30    1
    12    30    31    2
    13    20    17    1
    14    17     1    1
    15     1     2    1
    16     2     3    1
    17     2     5    1
    18     5     6    1
    19     6     7    1
    20     7     8   ar
    21     8     9   ar
    22     9    10   ar
    23    10    11    1
    24    10    12   ar
    25    12    13   ar
    26    13    15    1
    27    15    16    3
    28    31    23    1
    29    13     7   ar
    30    31    26    1
    31    17    18    1
    32     3     4    1
    33    11    14    1
@<TRIPOS>MOLECULE
*****
 31 33 0 0 0
SMALL
GASTEIGER

@<TRIPOS>ATOM
      1 C          -6.7612  -16.5667   23.0833 C.3     1  UNL1        0.1020
      2 C          -5.4240  -16.1686   23.6342 C.3     1  UNL1        0.1697
      3 O          -5.1559  -14.7364   23.9906 O.3     1  UNL1       -0.3793
      4 H          -5.9452  -14.2038   23.8051 H       1  UNL1        0.2106
      5 C          -4.3549  -17.2026   23.8287 C.3     1  UNL1        0.2358
      6 O          -4.2234  -18.3375   22.8567 O.3     1  UNL1       -0.4721
      7 C          -3.3233  -18.2033   21.6643 C.ar    1  UNL1        0.1484
      8 C          -2.2336  -17.1726   21.6595 C.ar    1  UNL1        0.0407
      9 C          -1.3334  -17.0384   20.4671 C.ar    1  UNL1        0.0398
     10 C          -1.5230  -17.9351   19.2796 C.ar    1  UNL1        0.1345
     11 O          -0.6228  -17.8010   18.0873 O.3     1  UNL1       -0.5055
     12 C          -2.6127  -18.9658   19.2845 C.ar    1  UNL1        0.0499
     13 C          -3.5128  -19.1000   20.4769 C.ar    1  UNL1        0.1053
     14 H           0.0579  -17.1571   18.0842 H       1  UNL1        0.2922
     15 C          -4.6026  -20.1307   20.4818 C.1     1  UNL1        0.1036
     16 N          -5.6923  -21.1615   20.4868 N.1     1  UNL1       -0.1907
     17 N          -6.8462  -17.5771   21.9779 N.3     1  UNL1       -0.2972
     18 H          -6.7497  -17.0638   21.1018 H       1  UNL1        0.1233
     19 C          -8.3731  -18.2336   23.2959 C.3     1  UNL1        0.0161
     20 C          -8.0659  -18.4396   21.8423 C.3     1  UNL1        0.0462
     21 C          -7.7587  -18.6456   20.3886 C.3     1  UNL1        0.0161
     22 C          -9.2857  -19.3021   21.7068 C.3     1  UNL1        0.0424
     23 C         -10.6472  -18.6741   21.6622 C.2     1  UNL1       -0.0006
     24 C         -11.2723  -18.0080   20.4724 C.2     1  UNL1        0.0942
     25 N         -12.6340  -17.5241   20.8745 N.2     1  UNL1       -0.2482
     26 C         -12.8504  -17.8912   22.3127 C.2     1  UNL1        0.0631
     27 C         -14.0070  -17.6701   23.2418 C.3     1  UNL1        0.0717
     28 C         -13.9356  -18.1597   24.6578 C.2     1  UNL1       -0.0198
     29 C         -12.7077  -18.8705   25.1447 C.2     1  UNL1       -0.0042
     30 C         -11.5511  -19.0915   24.2155 C.2     1  UNL1        0.0006
     31 C         -11.6225  -18.6019   22.7995 C.2     1  UNL1        0.0114
@<TRIPOS>BOND
     1    19    20    1
     2    20    21    1
     3    20    22    1
     4    22    23    1
     5    23    24    2
     6    24    25    1
     7    25    26    2
     8    26    27    1
     9    27    28    1
    10    28    29    2
    11    29    30    1
    12    30    31    2
    13    20    17    1
    14    17     1    1
    15     1     2    1
    16     2     3    1
    17     2     5    1
    18     5     6    1
    19     6     7    1
    20     7     8   ar
    21     8     9   ar
    22     9    10   ar
    23    10    11    1
    24    10    12   ar
    25    12    13   ar
    26    13    15    1
    27    15    16    3
    28    31    23    1
    29    13     7   ar
    30    31    26    1
    31    17    18    1
    32     3     4    1
    33    11    14    1
@<TRIPOS>MOLECULE
*****
 31 33 0 0 0
SMALL
GASTEIGER

@<TRIPOS>ATOM
      1 C          -6.7447  -16.5558   23.3772 C.3     1  UNL1        0.1020
      2 C          -5.3015  -16.1639   23.4941 C.3     1  UNL1        0.1697
      3 O          -4.8961  -14.7314   23.3108 O.3     1  UNL1       -0.3793
      4 H          -5.6821  -14.1943   23.1245 H       1  UNL1        0.2106
      5 C          -4.2638  -17.2046   23.7942 C.3     1  UNL1        0.2358
      6 O          -4.0824  -18.3716   22.8694 O.3     1  UNL1       -0.4721
      7 C          -3.2492  -18.2247   21.6308 C.ar    1  UNL1        0.1484
      8 C          -2.1171  -17.2411   21.6008 C.ar    1  UNL1        0.0407
      9 C          -1.2839  -17.0943   20.3622 C.ar    1  UNL1        0.0398
     10 C          -1.5828  -17.9309   19.1536 C.ar    1  UNL1        0.1345
     11 O          -0.7496  -17.7840   17.9150 O.3     1  UNL1       -0.5055
     12 C          -2.7150  -18.9144   19.1836 C.ar    1  UNL1        0.0499
     13 C          -3.5482  -19.0613   20.4222 C.ar    1  UNL1        0.1053
     14 H          -0.0424  -17.1696   17.8962 H       1  UNL1        0.2922
     15 C          -4.6803  -20.0448   20.4523 C.1     1  UNL1        0.1036
     16 N          -5.8125  -21.0282   20.4824 N.1     1  UNL1       -0.1907
     17 N          -7.1125  -17.9304   22.9027 N.3     1  UNL1       -0.2972
     18 H          -7.1245  -17.8967   21.8834 H       1  UNL1        0.1233
     19 C          -8.7318  -17.3219   24.1305 C.3     1  UNL1        0.0161
     20 C          -8.4101  -18.5494   23.3308 C.3     1  UNL1        0.0462
     21 C          -8.0884  -19.7770   22.5310 C.3     1  UNL1        0.0161
     22 C          -9.7077  -19.1684   23.7588 C.3     1  UNL1        0.0424
     23 C         -11.0073  -18.5156   23.3914 C.2     1  UNL1       -0.0006
     24 C         -12.2615  -18.5235   24.2140 C.2     1  UNL1        0.0942
     25 N         -13.3101  -17.7532   23.4678 N.2     1  UNL1       -0.2482
     26 C         -12.7040  -17.2692   22.1839 C.2     1  UNL1        0.0631
     27 C         -13.2642  -16.4602   21.0517 C.3     1  UNL1        0.0717
     28 C         -12.4011  -16.1225   19.8724 C.2     1  UNL1       -0.0198
     29 C         -10.9778  -16.5938   19.8251 C.2     1  UNL1       -0.0042
     30 C         -10.4176  -17.4027   20.9573 C.2     1  UNL1        0.0006
     31 C         -11.2807  -17.7404   22.1367 C.2     1  UNL1        0.0114
@<TRIPOS>BOND
     1    19    20    1
     2    20    21    1
     3    20    22    1
     4    22    23    1
     5    23    24    2
     6    24    25    1
     7    25    26    2
     8    26    27    1
     9    27    28    1
    10    28    29    2
    11    29    30    1
    12    30    31    2
    13    20    17    1
    14    17     1    1
    15     1     2    1
    16     2     3    1
    17     2     5    1
    18     5     6    1
    19     6     7    1
    20     7     8   ar
    21     8     9   ar
    22     9    10   ar
    23    10    11    1
    24    10    12   ar
    25    12    13   ar
    26    13    15    1
    27    15    16    3
    28    31    23    1
    29    13     7   ar
    30    31    26    1
    31    17    18    1
    32     3     4    1
    33    11    14    1
@<TRIPOS>MOLECULE
*****
 31 33 0 0 0
SMALL
GASTEIGER

@<TRIPOS>ATOM
      1 C           7.6578  -10.7829   28.0129 C.3     1  UNL1        0.1020
      2 C           6.7866  -12.0027   28.0675 C.3     1  UNL1        0.1697
      3 O           6.9549  -13.0909   27.0489 O.3     1  UNL1       -0.3793
      4 H           7.6638  -12.8497   26.4322 H       1  UNL1        0.2106
      5 C           5.7471  -12.1344   29.1409 C.3     1  UNL1        0.2358
      6 O           4.3696  -11.5824   28.9226 O.3     1  UNL1       -0.4721
      7 C           3.1931  -12.5099   28.8477 C.ar    1  UNL1        0.1484
      8 C           2.3897  -12.8034   30.0799 C.ar    1  UNL1        0.0407
      9 C           1.2133  -13.7309   30.0050 C.ar    1  UNL1        0.0398
     10 C           0.8401  -14.3649   28.6977 C.ar    1  UNL1        0.1345
     11 O          -0.3364  -15.2924   28.6228 O.3     1  UNL1       -0.5055
     12 C           1.6434  -14.0714   27.4655 C.ar    1  UNL1        0.0499
     13 C           2.8199  -13.1439   27.5404 C.ar    1  UNL1        0.1053
     14 H          -0.8382  -15.4757   29.3925 H       1  UNL1        0.2922
     15 C           3.6233  -12.8503   26.3082 C.1     1  UNL1        0.1036
     16 N           4.4266  -12.5568   25.0760 N.1     1  UNL1       -0.1907
     17 N           7.1773   -9.5491   27.3080 N.3     1  UNL1       -0.2972
     18 H           6.9101   -9.8335   26.3656 H       1  UNL1        0.1233
     19 C           9.0843   -9.0206   28.0720 C.3     1  UNL1        0.0161
     20 C           8.0880   -8.3663   27.1614 C.3     1  UNL1        0.0462
     21 C           7.0918   -7.7120   26.2508 C.3     1  UNL1        0.0161
     22 C           8.9989   -7.1835   27.0148 C.3     1  UNL1        0.0424
     23 C           8.5274   -5.8188   27.4217 C.2     1  UNL1       -0.0006
     24 C           8.5345   -4.5905   26.5608 C.2     1  UNL1        0.0942
     25 N           7.9775   -3.4556   27.3680 N.2     1  UNL1       -0.2482
     26 C           7.6262   -3.9824   28.7277 C.2     1  UNL1        0.0631
     27 C           7.0407   -3.3208   29.9400 C.3     1  UNL1        0.0717
     28 C           6.7951   -4.1199   31.1854 C.2     1  UNL1       -0.0198
     29 C           7.1349   -5.5805   31.2186 C.2     1  UNL1       -0.0042
     30 C           7.7204   -6.2420   30.0064 C.2     1  UNL1        0.0006
     31 C           7.9660   -5.4430   28.7610 C.2     1  UNL1        0.0114
@<TRIPOS>BOND
     1    19    20    1
     2    20    21    1
     3    20    22    1
     4    22    23    1
     5    23    24    2
     6    24    25    1
     7    25    26    2
     8    26    27    1
     9    27    28    1
    10    28    29    2
    11    29    30    1
    12    30    31    2
    13    20    17    1
    14    17     1    1
    15     1     2    1
    16     2     3    1
    17     2     5    1
    18     5     6    1
    19     6     7    1
    20     7     8   ar
    21     8     9   ar
    22     9    10   ar
    23    10    11    1
    24    10    12   ar
    25    12    13   ar
    26    13    15    1
    27    15    16    3
    28    31    23    1
    29    13     7   ar
    30    31    26    1
    31    17    18    1
    32     3     4    1
    33    11    14    1
@<TRIPOS>MOLECULE
*****
 31 33 0 0 0
SMALL
GASTEIGER

@<TRIPOS>ATOM
      1 C           7.0373   -3.6405   21.0974 C.3     1  UNL1        0.1020
      2 C           8.4565   -4.1109   21.2186 C.3     1  UNL1        0.1697
      3 O           9.4983   -3.6051   20.2653 O.3     1  UNL1       -0.3793
      4 H           9.0905   -2.9868   19.6389 H       1  UNL1        0.2106
      5 C           8.8339   -5.0872   22.2931 C.3     1  UNL1        0.2358
      6 O           7.7995   -6.0118   22.8633 O.3     1  UNL1       -0.4721
      7 C           7.8351   -6.3703   24.3194 C.ar    1  UNL1        0.1484
      8 C           8.4619   -7.6601   24.7591 C.ar    1  UNL1        0.0407
      9 C           8.4974   -8.0186   26.2152 C.ar    1  UNL1        0.0398
     10 C           7.9062   -7.0873   27.2316 C.ar    1  UNL1        0.1345
     11 O           7.9417   -7.4458   28.6877 O.3     1  UNL1       -0.5055
     12 C           7.2794   -5.7974   26.7919 C.ar    1  UNL1        0.0499
     13 C           7.2439   -5.4389   25.3358 C.ar    1  UNL1        0.1053
     14 H           8.3333   -8.2515   28.9623 H       1  UNL1        0.2922
     15 C           6.6171   -4.1491   24.8960 C.1     1  UNL1        0.1036
     16 N           5.9905   -2.8592   24.4562 N.1     1  UNL1       -0.1907
     17 N           6.0108   -4.5151   20.4407 N.3     1  UNL1       -0.2972
     18 H           6.4611   -4.9398   19.6300 H       1  UNL1        0.1233
     19 C           4.6586   -4.9485   18.8648 C.3     1  UNL1        0.0161
     20 C           4.7195   -3.9237   19.9584 C.3     1  UNL1        0.0462
     21 C           4.7803   -2.8988   21.0519 C.3     1  UNL1        0.0161
     22 C           3.4281   -3.3322   19.4760 C.3     1  UNL1        0.0424
     23 C           3.4080   -1.9514   18.8904 C.2     1  UNL1       -0.0006
     24 C           4.3611   -1.4152   17.8637 C.2     1  UNL1        0.0942
     25 N           3.9734    0.0033   17.5675 N.2     1  UNL1       -0.2482
     26 C           2.7808    0.3437   18.4112 C.2     1  UNL1        0.0631
     27 C           1.9679    1.5976   18.5406 C.3     1  UNL1        0.0717
     28 C           0.8056    1.6435   19.4876 C.2     1  UNL1       -0.0198
     29 C           0.4561    0.4354   20.3052 C.2     1  UNL1       -0.0042
     30 C           1.2690   -0.8185   20.1758 C.2     1  UNL1        0.0006
     31 C           2.4314   -0.8644   19.2288 C.2     1  UNL1        0.0114
@<TRIPOS>BOND
     1    19    20    1
     2    20    21    1
     3    20    22    1
     4    22    23    1
     5    23    24    2
     6    24    25    1
     7    25    26    2
     8    26    27    1
     9    27    28    1
    10    28    29    2
    11    29    30    1
    12    30    31    2
    13    20    17    1
    14    17     1    1
    15     1     2    1
    16     2     3    1
    17     2     5    1
    18     5     6    1
    19     6     7    1
    20     7     8   ar
    21     8     9   ar
    22     9    10   ar
    23    10    11    1
    24    10    12   ar
    25    12    13   ar
    26    13    15    1
    27    15    16    3
    28    31    23    1
    29    13     7   ar
    30    31    26    1
    31    17    18    1
    32     3     4    1
    33    11    14    1
@<TRIPOS>MOLECULE
*****
 31 33 0 0 0
SMALL
GASTEIGER

@<TRIPOS>ATOM
      1 C          -7.3121  -15.8554   24.8955 C.3     1  UNL1        0.1020
      2 C          -6.8458  -16.0246   23.4799 C.3     1  UNL1        0.1697
      3 O          -6.8806  -14.8605   22.5345 O.3     1  UNL1       -0.3793
      4 H          -7.2286  -14.0807   22.9946 H       1  UNL1        0.2106
      5 C          -6.3448  -17.3580   23.0096 C.3     1  UNL1        0.2358
      6 O          -5.0559  -17.9066   23.5459 O.3     1  UNL1       -0.4721
      7 C          -3.9032  -18.1555   22.6189 C.ar    1  UNL1        0.1484
      8 C          -3.5327  -19.5596   22.2432 C.ar    1  UNL1        0.0407
      9 C          -2.3800  -19.8086   21.3161 C.ar    1  UNL1        0.0398
     10 C          -1.5979  -18.6534   20.7649 C.ar    1  UNL1        0.1345
     11 O          -0.4453  -18.9023   19.8378 O.3     1  UNL1       -0.5055
     12 C          -1.9684  -17.2493   21.1406 C.ar    1  UNL1        0.0499
     13 C          -3.1211  -17.0004   22.0676 C.ar    1  UNL1        0.1053
     14 H          -0.2138  -19.7794   19.6031 H       1  UNL1        0.2922
     15 C          -3.4917  -15.5963   22.4434 C.1     1  UNL1        0.1036
     16 N          -3.8622  -14.1923   22.8193 N.1     1  UNL1       -0.1907
     17 N          -8.7784  -15.8838   25.2106 N.3     1  UNL1       -0.2972
     18 H          -8.8630  -15.8148   26.2247 H       1  UNL1        0.1233
     19 C         -10.0761  -16.2870   23.5817 C.3     1  UNL1        0.0161
     20 C          -9.6144  -17.0542   24.7850 C.3     1  UNL1        0.0462
     21 C          -9.1528  -17.8216   25.9884 C.3     1  UNL1        0.0161
     22 C         -10.4506  -18.2247   24.3594 C.3     1  UNL1        0.0424
     23 C         -10.9471  -18.3176   22.9470 C.2     1  UNL1       -0.0006
     24 C         -12.3144  -17.9315   22.4659 C.2     1  UNL1        0.0942
     25 N         -12.3758  -18.1882   20.9894 N.2     1  UNL1       -0.2482
     26 C         -11.0464  -18.7330   20.5579 C.2     1  UNL1        0.0631
     27 C         -10.5260  -19.1665   19.2196 C.3     1  UNL1        0.0717
     28 C          -9.1225  -19.6801   19.0912 C.2     1  UNL1       -0.0198
     29 C          -8.2395  -19.7600   20.3012 C.2     1  UNL1       -0.0042
     30 C          -8.7600  -19.3265   21.6395 C.2     1  UNL1        0.0006
     31 C         -10.1635  -18.8130   21.7678 C.2     1  UNL1        0.0114
@<TRIPOS>BOND
     1    19    20    1
     2    20    21    1
     3    20    22    1
     4    22    23    1
     5    23    24    2
     6    24    25    1
     7    25    26    2
     8    26    27    1
     9    27    28    1
    10    28    29    2
    11    29    30    1
    12    30    31    2
    13    20    17    1
    14    17     1    1
    15     1     2    1
    16     2     3    1
    17     2     5    1
    18     5     6    1
    19     6     7    1
    20     7     8   ar
    21     8     9   ar
    22     9    10   ar
    23    10    11    1
    24    10    12   ar
    25    12    13   ar
    26    13    15    1
    27    15    16    3
    28    31    23    1
    29    13     7   ar
    30    31    26    1
    31    17    18    1
    32     3     4    1
    33    11    14    1
