@<TRIPOS>MOLECULE
*****
 30 34 0 0 0
SMALL
GASTEIGER

@<TRIPOS>ATOM
      1 C           0.1948    1.8684   19.2469 C.2     1  UNL1        0.3845
      2 N           0.1775    2.7242   18.0151 N.2     1  UNL1        0.1566
      3 O          -0.8267    3.8308   17.8849 O.2     1  UNL1       -0.2749
      4 C          -1.8134    4.0817   18.9864 C.3     1  UNL1        0.3227
      5 C          -1.7961    3.2259   20.2182 C.3     1  UNL1        0.2636
      6 N          -0.7920    2.1192   20.3484 N.pl3   1  UNL1       -0.2082
      7 H          -0.7806    1.5575   21.1568 H       1  UNL1        0.2928
      8 C          -2.7829    3.4767   21.3197 C.ar    1  UNL1        0.1692
      9 C          -4.2613    3.6669   21.1526 C.ar    1  UNL1        0.0402
     10 C          -4.8566    3.8892   22.5114 C.ar    1  UNL1        0.0374
     11 C          -6.2665    4.1328   22.9618 C.ar    1  UNL1        0.0031
     12 C          -6.5657    4.3236   24.4192 C.ar    1  UNL1        0.0002
     13 C          -5.4552    4.2709   25.4261 C.ar    1  UNL1        0.0031
     14 C          -4.0453    4.0272   24.9756 C.ar    1  UNL1        0.0375
     15 C          -3.7461    3.8364   23.5183 C.ar    1  UNL1        0.1450
     16 O          -2.4644    3.5815   22.7818 O.2     1  UNL1       -0.4537
     17 C           3.1590   -0.6263   18.3862 C.ar    1  UNL1        0.2418
     18 N           2.1549    0.4805   18.2560 N.ar    1  UNL1       -0.2028
     19 C           1.1989    0.7616   19.3771 C.ar    1  UNL1        0.1702
     20 C           1.2471   -0.0639   20.6286 C.ar    1  UNL1        0.0285
     21 C           2.2511   -1.1706   20.7589 C.ar    1  UNL1        0.0241
     22 C           3.2072   -1.4518   19.6377 C.ar    1  UNL1        0.1189
     23 N           4.2112   -2.5585   19.7680 N.ar    1  UNL1       -0.2826
     24 C           4.0255   -3.9757   19.3129 C.ar    1  UNL1        0.1826
     25 N           5.2768   -4.7354   19.6399 N.ar    1  UNL1       -0.2280
     26 C           6.2360   -3.7877   20.2972 C.ar    1  UNL1        0.0786
     27 C           7.6121   -4.1260   20.7889 C.3     1  UNL1        0.0538
     28 C           5.5774   -2.4423   20.3763 C.ar    1  UNL1        0.0963
     29 C           5.3855   -0.1188   17.1472 C.3     1  UNL1        0.2543
     30 O           4.1150   -0.9074   17.2651 O.3     1  UNL1       -0.4551
@<TRIPOS>BOND
     1    29    30    1
     2    30    17    1
     3    17    18   ar
     4    18    19   ar
     5    19     1    1
     6     1     2    2
     7     2     3    1
     8     3     4    1
     9     4     5    1
    10     5     8    1
    11     8     9   ar
    12     9    10   ar
    13    10    11   ar
    14    11    12   ar
    15    12    13   ar
    16    13    14   ar
    17    14    15   ar
    18    15    16   ar
    19     5     6    1
    20    19    20   ar
    21    20    21   ar
    22    21    22   ar
    23    22    23    1
    24    23    24   ar
    25    24    25   ar
    26    25    26   ar
    27    26    27    1
    28    26    28   ar
    29    22    17   ar
    30    28    23   ar
    31     6     1    1
    32    16     8   ar
    33    15    10   ar
    34     6     7    1
@<TRIPOS>MOLECULE
*****
 30 34 0 0 0
SMALL
GASTEIGER

@<TRIPOS>ATOM
      1 C           5.8760   -3.7197   23.3504 C.2     1  UNL1        0.3845
      2 N           6.7349   -4.7267   22.6445 N.2     1  UNL1        0.1566
      3 O           7.5985   -5.6627   23.4370 O.2     1  UNL1       -0.2749
      4 C           7.6032   -5.5918   24.9353 C.3     1  UNL1        0.3227
      5 C           6.7444   -4.5848   25.6411 C.3     1  UNL1        0.2636
      6 N           5.8808   -3.6488   24.8487 N.pl3   1  UNL1       -0.2082
      7 H           5.3171   -2.9878   25.3120 H       1  UNL1        0.2928
      8 C           6.7491   -4.5138   27.1394 C.ar    1  UNL1        0.1692
      9 C           6.9867   -5.6613   28.0757 C.ar    1  UNL1        0.0402
     10 C           6.9015   -5.1396   29.4795 C.ar    1  UNL1        0.0374
     11 C           7.0508   -5.8131   30.8114 C.ar    1  UNL1        0.0031
     12 C           6.9098   -5.0166   32.0746 C.ar    1  UNL1        0.0002
     13 C           6.6195   -3.5466   32.0059 C.ar    1  UNL1        0.0031
     14 C           6.4703   -2.8730   30.6740 C.ar    1  UNL1        0.0375
     15 C           6.6113   -3.6695   29.4108 C.ar    1  UNL1        0.1450
     16 O           6.5171   -3.2828   27.9646 O.2     1  UNL1       -0.4537
     17 C           4.1956   -1.8714   20.2664 C.ar    1  UNL1        0.2418
     18 N           5.0593   -2.8075   21.0589 N.ar    1  UNL1       -0.2028
     19 C           5.0124   -2.7836   22.5579 C.ar    1  UNL1        0.1702
     20 C           4.1018   -1.8237   23.2646 C.ar    1  UNL1        0.0285
     21 C           3.2381   -0.8877   22.4722 C.ar    1  UNL1        0.0241
     22 C           3.2851   -0.9115   20.9731 C.ar    1  UNL1        0.1189
     23 N           2.4214    0.0245   20.1807 N.ar    1  UNL1       -0.2826
     24 C           1.0241   -0.2505   19.7098 C.ar    1  UNL1        0.1826
     25 N           0.5425    0.9550   18.9582 N.ar    1  UNL1       -0.2280
     26 C           1.6423    1.9751   18.9646 C.ar    1  UNL1        0.0786
     27 C           1.5900    3.3320   18.3273 C.3     1  UNL1        0.0538
     28 C           2.8035    1.4000   19.7202 C.ar    1  UNL1        0.0963
     29 C           5.3885   -2.5596   18.0634 C.3     1  UNL1        0.2543
     30 O           4.2426   -1.8953   18.7674 O.3     1  UNL1       -0.4551
@<TRIPOS>BOND
     1    29    30    1
     2    30    17    1
     3    17    18   ar
     4    18    19   ar
     5    19     1    1
     6     1     2    2
     7     2     3    1
     8     3     4    1
     9     4     5    1
    10     5     8    1
    11     8     9   ar
    12     9    10   ar
    13    10    11   ar
    14    11    12   ar
    15    12    13   ar
    16    13    14   ar
    17    14    15   ar
    18    15    16   ar
    19     5     6    1
    20    19    20   ar
    21    20    21   ar
    22    21    22   ar
    23    22    23    1
    24    23    24   ar
    25    24    25   ar
    26    25    26   ar
    27    26    27    1
    28    26    28   ar
    29    22    17   ar
    30    28    23   ar
    31     6     1    1
    32    16     8   ar
    33    15    10   ar
    34     6     7    1
@<TRIPOS>MOLECULE
*****
 30 34 0 0 0
SMALL
GASTEIGER

@<TRIPOS>ATOM
      1 C           6.9576   -3.9577   27.4284 C.2     1  UNL1        0.3845
      2 N           8.0732   -4.9493   27.2797 N.2     1  UNL1        0.1566
      3 O           8.4045   -5.5083   25.9278 O.2     1  UNL1       -0.2749
      4 C           7.6202   -5.0757   24.7246 C.3     1  UNL1        0.3227
      5 C           6.5047   -4.0841   24.8733 C.3     1  UNL1        0.2636
      6 N           6.1734   -3.5250   26.2252 N.pl3   1  UNL1       -0.2082
      7 H           5.4412   -2.8742   26.3228 H       1  UNL1        0.2928
      8 C           5.7204   -3.6514   23.6700 C.ar    1  UNL1        0.1692
      9 C           4.7837   -2.4819   23.6019 C.ar    1  UNL1        0.0402
     10 C           4.2195   -2.4200   22.2134 C.ar    1  UNL1        0.0374
     11 C           3.2463   -1.4797   21.5665 C.ar    1  UNL1        0.0031
     12 C           2.8612   -1.6707   20.1294 C.ar    1  UNL1        0.0002
     13 C           3.4492   -2.8021   19.3394 C.ar    1  UNL1        0.0031
     14 C           4.4224   -3.7424   19.9863 C.ar    1  UNL1        0.0375
     15 C           4.8076   -3.5514   21.4234 C.ar    1  UNL1        0.1450
     16 O           5.7351   -4.3124   22.3236 O.2     1  UNL1       -0.4537
     17 C           5.4578   -1.6002   30.2468 C.ar    1  UNL1        0.2418
     18 N           5.7891   -2.1593   28.8948 N.ar    1  UNL1       -0.2028
     19 C           6.6263   -3.3986   28.7804 C.ar    1  UNL1        0.1702
     20 C           7.1323   -4.0788   30.0178 C.ar    1  UNL1        0.0285
     21 C           6.8010   -3.5198   31.3697 C.ar    1  UNL1        0.0241
     22 C           5.9637   -2.2804   31.4842 C.ar    1  UNL1        0.1189
     23 N           5.6324   -1.7214   32.8361 N.ar    1  UNL1       -0.2826
     24 C           4.3747   -1.9780   33.6123 C.ar    1  UNL1        0.1826
     25 N           4.4656   -1.2228   34.9051 N.ar    1  UNL1       -0.2280
     26 C           5.7796   -0.4995   34.9279 C.ar    1  UNL1        0.0786
     27 C           6.2839    0.3780   36.0351 C.3     1  UNL1        0.0538
     28 C           6.5006   -0.8077   33.6492 C.ar    1  UNL1        0.0963
     29 C           3.1246   -0.4665   30.3917 C.3     1  UNL1        0.2543
     30 O           4.6205   -0.3609   30.3612 O.3     1  UNL1       -0.4551
@<TRIPOS>BOND
     1    29    30    1
     2    30    17    1
     3    17    18   ar
     4    18    19   ar
     5    19     1    1
     6     1     2    2
     7     2     3    1
     8     3     4    1
     9     4     5    1
    10     5     8    1
    11     8     9   ar
    12     9    10   ar
    13    10    11   ar
    14    11    12   ar
    15    12    13   ar
    16    13    14   ar
    17    14    15   ar
    18    15    16   ar
    19     5     6    1
    20    19    20   ar
    21    20    21   ar
    22    21    22   ar
    23    22    23    1
    24    23    24   ar
    25    24    25   ar
    26    25    26   ar
    27    26    27    1
    28    26    28   ar
    29    22    17   ar
    30    28    23   ar
    31     6     1    1
    32    16     8   ar
    33    15    10   ar
    34     6     7    1
@<TRIPOS>MOLECULE
*****
 30 34 0 0 0
SMALL
GASTEIGER

@<TRIPOS>ATOM
      1 C           5.8000   -3.7530   23.1836 C.2     1  UNL1        0.3845
      2 N           6.6914   -4.6443   22.3706 N.2     1  UNL1        0.1566
      3 O           7.6484   -5.5742   23.0557 O.2     1  UNL1       -0.2749
      4 C           7.7141   -5.6128   24.5538 C.3     1  UNL1        0.3227
      5 C           6.8227   -4.7215   25.3668 C.3     1  UNL1        0.2636
      6 N           5.8657   -3.7916   24.6817 N.pl3   1  UNL1       -0.2082
      7 H           5.2806   -3.2066   25.2153 H       1  UNL1        0.2928
      8 C           6.8883   -4.7600   26.8648 C.ar    1  UNL1        0.1692
      9 C           6.4683   -3.6603   27.7944 C.ar    1  UNL1        0.0402
     10 C           6.7059   -4.1257   29.2004 C.ar    1  UNL1        0.0374
     11 C           6.4792   -3.4654   30.5281 C.ar    1  UNL1        0.0031
     12 C           6.8195   -4.1925   31.7951 C.ar    1  UNL1        0.0002
     13 C           7.3865   -5.5799   31.7345 C.ar    1  UNL1        0.0031
     14 C           7.6131   -6.2402   30.4069 C.ar    1  UNL1        0.0375
     15 C           7.2728   -5.5131   29.1399 C.ar    1  UNL1        0.1450
     16 O           7.3855   -5.9051   27.6964 O.2     1  UNL1       -0.4537
     17 C           3.1148   -0.8866   22.6148 C.ar    1  UNL1        0.2418
     18 N           4.0719   -1.8165   23.2999 N.ar    1  UNL1       -0.2028
     19 C           4.8429   -2.8231   22.4985 C.ar    1  UNL1        0.1702
     20 C           4.6570   -2.8997   21.0121 C.ar    1  UNL1        0.0285
     21 C           3.7000   -1.9699   20.3270 C.ar    1  UNL1        0.0241
     22 C           2.9288   -0.9632   21.1283 C.ar    1  UNL1        0.1189
     23 N           1.9718   -0.0334   20.4433 N.ar    1  UNL1       -0.2826
     24 C           0.4778   -0.1657   20.4202 C.ar    1  UNL1        0.1826
     25 N          -0.0766    0.9780   19.6236 N.ar    1  UNL1       -0.2280
     26 C           1.0748    1.8172   19.1544 C.ar    1  UNL1        0.0786
     27 C           0.9773    3.0628   18.3243 C.3     1  UNL1        0.0538
     28 C           2.3407    1.1921   19.6610 C.ar    1  UNL1        0.0963
     29 C           3.0710    1.1054   24.2822 C.3     1  UNL1        0.2543
     30 O           2.3437    0.1200   23.4162 O.3     1  UNL1       -0.4551
@<TRIPOS>BOND
     1    29    30    1
     2    30    17    1
     3    17    18   ar
     4    18    19   ar
     5    19     1    1
     6     1     2    2
     7     2     3    1
     8     3     4    1
     9     4     5    1
    10     5     8    1
    11     8     9   ar
    12     9    10   ar
    13    10    11   ar
    14    11    12   ar
    15    12    13   ar
    16    13    14   ar
    17    14    15   ar
    18    15    16   ar
    19     5     6    1
    20    19    20   ar
    21    20    21   ar
    22    21    22   ar
    23    22    23    1
    24    23    24   ar
    25    24    25   ar
    26    25    26   ar
    27    26    27    1
    28    26    28   ar
    29    22    17   ar
    30    28    23   ar
    31     6     1    1
    32    16     8   ar
    33    15    10   ar
    34     6     7    1
@<TRIPOS>MOLECULE
*****
 30 34 0 0 0
SMALL
GASTEIGER

@<TRIPOS>ATOM
      1 C          -1.7730    3.2048   19.9775 C.2     1  UNL1        0.3845
      2 N          -1.5319    3.8395   18.6400 N.2     1  UNL1        0.1566
      3 O          -0.3602    3.4114   17.8070 O.2     1  UNL1       -0.2749
      4 C           0.5704    2.3487   18.3116 C.3     1  UNL1        0.3227
      5 C           0.3293    1.7140   19.6491 C.3     1  UNL1        0.2636
      6 N          -0.8424    2.1421   20.4821 N.pl3   1  UNL1       -0.2082
      7 H          -1.0006    1.7255   21.3600 H       1  UNL1        0.2928
      8 C           1.2599    0.6512   20.1537 C.ar    1  UNL1        0.1692
      9 C           1.7760    0.5246   21.5564 C.ar    1  UNL1        0.0402
     10 C           2.6728   -0.6764   21.6137 C.ar    1  UNL1        0.0374
     11 C           3.4596   -1.2889   22.7343 C.ar    1  UNL1        0.0031
     12 C           4.2846   -2.5170   22.4876 C.ar    1  UNL1        0.0002
     13 C           4.3228   -3.1327   21.1203 C.ar    1  UNL1        0.0031
     14 C           3.5360   -2.5202   19.9997 C.ar    1  UNL1        0.0375
     15 C           2.7110   -1.2920   20.2464 C.ar    1  UNL1        0.1450
     16 O           1.8378   -0.4715   19.3441 O.2     1  UNL1       -0.4537
     17 C          -4.2095    3.6390   23.0800 C.ar    1  UNL1        0.2418
     18 N          -3.0378    3.2110   22.2470 N.ar    1  UNL1       -0.2028
     19 C          -2.9447    3.6329   20.8106 C.ar    1  UNL1        0.1702
     20 C          -4.0233    4.4830   20.2072 C.ar    1  UNL1        0.0285
     21 C          -5.1949    4.9110   21.0402 C.ar    1  UNL1        0.0241
     22 C          -5.2881    4.4891   22.4766 C.ar    1  UNL1        0.1189
     23 N          -6.4597    4.9172   23.3096 N.ar    1  UNL1       -0.2826
     24 C          -7.8413    4.3356   23.2529 C.ar    1  UNL1        0.1826
     25 N          -8.6910    5.0610   24.2538 N.ar    1  UNL1       -0.2280
     26 C          -7.8346    6.0908   24.9291 C.ar    1  UNL1        0.0786
     27 C          -8.2791    7.0425   26.0000 C.3     1  UNL1        0.0538
     28 C          -6.4556    6.0019   24.3455 C.ar    1  UNL1        0.0963
     29 C          -3.5323    3.9597   25.5677 C.3     1  UNL1        0.2543
     30 O          -4.3026    3.2171   24.5164 O.3     1  UNL1       -0.4551
@<TRIPOS>BOND
     1    29    30    1
     2    30    17    1
     3    17    18   ar
     4    18    19   ar
     5    19     1    1
     6     1     2    2
     7     2     3    1
     8     3     4    1
     9     4     5    1
    10     5     8    1
    11     8     9   ar
    12     9    10   ar
    13    10    11   ar
    14    11    12   ar
    15    12    13   ar
    16    13    14   ar
    17    14    15   ar
    18    15    16   ar
    19     5     6    1
    20    19    20   ar
    21    20    21   ar
    22    21    22   ar
    23    22    23    1
    24    23    24   ar
    25    24    25   ar
    26    25    26   ar
    27    26    27    1
    28    26    28   ar
    29    22    17   ar
    30    28    23   ar
    31     6     1    1
    32    16     8   ar
    33    15    10   ar
    34     6     7    1
@<TRIPOS>MOLECULE
*****
 30 34 0 0 0
SMALL
GASTEIGER

@<TRIPOS>ATOM
      1 C          -1.2469    2.8248   20.1359 C.2     1  UNL1        0.3845
      2 N          -0.9317    3.4411   18.8052 N.2     1  UNL1        0.1566
      3 O           0.2793    2.9957   18.0404 O.2     1  UNL1       -0.2749
      4 C           1.1752    1.9341   18.6063 C.3     1  UNL1        0.3227
      5 C           0.8601    1.3178   19.9370 C.3     1  UNL1        0.2636
      6 N          -0.3510    1.7631   20.7018 N.pl3   1  UNL1       -0.2082
      7 H          -0.5578    1.3586   21.5752 H       1  UNL1        0.2928
      8 C           1.7559    0.2561   20.5029 C.ar    1  UNL1        0.1692
      9 C           2.3238   -0.9112   19.7512 C.ar    1  UNL1        0.0402
     10 C           3.1601   -1.7134   20.7035 C.ar    1  UNL1        0.0374
     11 C           3.9614   -2.9686   20.5234 C.ar    1  UNL1        0.0031
     12 C           4.7117   -3.5523   21.6837 C.ar    1  UNL1        0.0002
     13 C           4.6608   -2.8808   23.0240 C.ar    1  UNL1        0.0031
     14 C           3.8595   -1.6257   23.2041 C.ar    1  UNL1        0.0375
     15 C           3.1091   -1.0420   22.0439 C.ar    1  UNL1        0.1450
     16 O           2.2413    0.1752   21.9199 O.2     1  UNL1       -0.4537
     17 C          -4.9917    3.8410   20.9693 C.ar    1  UNL1        0.2418
     18 N          -3.7806    3.3956   20.2045 N.ar    1  UNL1       -0.2028
     19 C          -2.4580    3.2702   20.9008 C.ar    1  UNL1        0.1702
     20 C          -2.3463    3.5901   22.3620 C.ar    1  UNL1        0.0285
     21 C          -3.5573    4.0355   23.1269 C.ar    1  UNL1        0.0241
     22 C          -4.8800    4.1609   22.4306 C.ar    1  UNL1        0.1189
     23 N          -6.0910    4.6063   23.1955 N.ar    1  UNL1       -0.2826
     24 C          -7.5182    4.3285   22.8267 C.ar    1  UNL1        0.1826
     25 N          -8.3968    4.9581   23.8667 N.ar    1  UNL1       -0.2280
     26 C          -7.5125    5.6251   24.8783 C.ar    1  UNL1        0.0786
     27 C          -7.9725    6.3774   26.0918 C.3     1  UNL1        0.0538
     28 C          -6.0875    5.4076   24.4634 C.ar    1  UNL1        0.0963
     29 C          -6.5308    3.2970   18.9482 C.3     1  UNL1        0.2543
     30 O          -6.3143    3.9664   20.2730 O.3     1  UNL1       -0.4551
@<TRIPOS>BOND
     1    29    30    1
     2    30    17    1
     3    17    18   ar
     4    18    19   ar
     5    19     1    1
     6     1     2    2
     7     2     3    1
     8     3     4    1
     9     4     5    1
    10     5     8    1
    11     8     9   ar
    12     9    10   ar
    13    10    11   ar
    14    11    12   ar
    15    12    13   ar
    16    13    14   ar
    17    14    15   ar
    18    15    16   ar
    19     5     6    1
    20    19    20   ar
    21    20    21   ar
    22    21    22   ar
    23    22    23    1
    24    23    24   ar
    25    24    25   ar
    26    25    26   ar
    27    26    27    1
    28    26    28   ar
    29    22    17   ar
    30    28    23   ar
    31     6     1    1
    32    16     8   ar
    33    15    10   ar
    34     6     7    1
@<TRIPOS>MOLECULE
*****
 30 34 0 0 0
SMALL
GASTEIGER

@<TRIPOS>ATOM
      1 C           7.2987   -4.9396   28.0465 C.2     1  UNL1        0.3845
      2 N           7.8686   -6.2654   28.4555 N.2     1  UNL1        0.1566
      3 O           8.0521   -6.5865   29.9091 O.2     1  UNL1       -0.2749
      4 C           7.6657   -5.5818   30.9538 C.3     1  UNL1        0.3227
      5 C           7.0957   -4.2560   30.5448 C.3     1  UNL1        0.2636
      6 N           6.9122   -3.9349   29.0911 N.pl3   1  UNL1       -0.2082
      7 H           6.5382   -3.0647   28.8227 H       1  UNL1        0.2928
      8 C           6.7093   -3.2513   31.5894 C.ar    1  UNL1        0.1692
      9 C           7.6114   -2.2167   32.1941 C.ar    1  UNL1        0.0402
     10 C           6.8126   -1.4308   33.1912 C.ar    1  UNL1        0.0374
     11 C           7.1759   -0.2862   34.0900 C.ar    1  UNL1        0.0031
     12 C           6.1433    0.3093   35.0005 C.ar    1  UNL1        0.0002
     13 C           4.7474   -0.2396   35.0121 C.ar    1  UNL1        0.0031
     14 C           4.3841   -1.3842   34.1133 C.ar    1  UNL1        0.0375
     15 C           5.4167   -1.9797   33.2028 C.ar    1  UNL1        0.1450
     16 O           5.3529   -3.1049   32.2129 O.2     1  UNL1       -0.4537
     17 C           7.4242   -5.2517   24.0921 C.ar    1  UNL1        0.2418
     18 N           7.6077   -5.5729   25.5458 N.ar    1  UNL1       -0.2028
     19 C           7.1151   -4.6184   26.5928 C.ar    1  UNL1        0.1702
     20 C           6.4390   -3.3427   26.1861 C.ar    1  UNL1        0.0285
     21 C           6.2554   -3.0215   24.7325 C.ar    1  UNL1        0.0241
     22 C           6.7481   -3.9760   23.6854 C.ar    1  UNL1        0.1189
     23 N           6.5645   -3.6548   22.2318 N.ar    1  UNL1       -0.2826
     24 C           7.6322   -3.1769   21.2927 C.ar    1  UNL1        0.1826
     25 N           7.0086   -2.9818   19.9425 N.ar    1  UNL1       -0.2280
     26 C           5.5555   -3.3391   20.0471 C.ar    1  UNL1        0.0786
     27 C           4.5529   -3.2892   18.9325 C.3     1  UNL1        0.0538
     28 C           5.2811   -3.7550   21.4619 C.ar    1  UNL1        0.0963
     29 C           8.8805   -7.2942   23.4159 C.3     1  UNL1        0.2543
     30 O           7.9168   -6.2062   23.0451 O.3     1  UNL1       -0.4551
@<TRIPOS>BOND
     1    29    30    1
     2    30    17    1
     3    17    18   ar
     4    18    19   ar
     5    19     1    1
     6     1     2    2
     7     2     3    1
     8     3     4    1
     9     4     5    1
    10     5     8    1
    11     8     9   ar
    12     9    10   ar
    13    10    11   ar
    14    11    12   ar
    15    12    13   ar
    16    13    14   ar
    17    14    15   ar
    18    15    16   ar
    19     5     6    1
    20    19    20   ar
    21    20    21   ar
    22    21    22   ar
    23    22    23    1
    24    23    24   ar
    25    24    25   ar
    26    25    26   ar
    27    26    27    1
    28    26    28   ar
    29    22    17   ar
    30    28    23   ar
    31     6     1    1
    32    16     8   ar
    33    15    10   ar
    34     6     7    1
@<TRIPOS>MOLECULE
*****
 30 34 0 0 0
SMALL
GASTEIGER

@<TRIPOS>ATOM
      1 C           0.5707    1.9129   23.6936 C.2     1  UNL1        0.3845
      2 N          -0.4217    2.7553   22.9484 N.2     1  UNL1        0.1566
      3 O          -0.5168    2.6571   21.4546 O.2     1  UNL1       -0.2749
      4 C           0.3805    1.7166   20.7061 C.3     1  UNL1        0.3227
      5 C           1.3729    0.8742   21.4514 C.3     1  UNL1        0.2636
      6 N           1.4680    0.9723   22.9451 N.pl3   1  UNL1       -0.2082
      7 H           2.1194    0.4194   23.4342 H       1  UNL1        0.2928
      8 C           2.2702   -0.0664   20.7029 C.ar    1  UNL1        0.1692
      9 C           3.3021    0.3215   19.6857 C.ar    1  UNL1        0.0402
     10 C           3.9628   -0.9324   19.1943 C.ar    1  UNL1        0.0374
     11 C           5.0517   -1.1655   18.1894 C.ar    1  UNL1        0.0031
     12 C           5.5169   -2.5614   17.8979 C.ar    1  UNL1        0.0002
     13 C           4.8932   -3.7242   18.6113 C.ar    1  UNL1        0.0031
     14 C           3.8043   -3.4910   19.6163 C.ar    1  UNL1        0.0375
     15 C           3.3391   -2.0951   19.9077 C.ar    1  UNL1        0.1450
     16 O           2.2930   -1.5599   20.8401 O.2     1  UNL1       -0.4537
     17 C          -0.3188    1.5232   27.5416 C.ar    1  UNL1        0.2418
     18 N          -0.4140    1.4251   26.0478 N.ar    1  UNL1       -0.2028
     19 C           0.6659    2.0110   25.1874 C.ar    1  UNL1        0.1702
     20 C           1.8411    2.6950   25.8207 C.ar    1  UNL1        0.0285
     21 C           1.9363    2.7932   27.3144 C.ar    1  UNL1        0.0241
     22 C           0.8563    2.2073   28.1749 C.ar    1  UNL1        0.1189
     23 N           0.9516    2.3054   29.6687 N.ar    1  UNL1       -0.2826
     24 C           1.3331    1.1954   30.6027 C.ar    1  UNL1        0.1826
     25 N           1.2993    1.7347   32.0019 N.ar    1  UNL1       -0.2280
     26 C           0.8969    3.1781   31.9327 C.ar    1  UNL1        0.0786
     27 C           0.7373    4.1059   33.1005 C.3     1  UNL1        0.0538
     28 C           0.6819    3.5308   30.4907 C.ar    1  UNL1        0.0963
     29 C          -1.3508   -0.5128   28.7823 C.3     1  UNL1        0.2543
     30 O          -1.3988    0.9374   28.4021 O.3     1  UNL1       -0.4551
@<TRIPOS>BOND
     1    29    30    1
     2    30    17    1
     3    17    18   ar
     4    18    19   ar
     5    19     1    1
     6     1     2    2
     7     2     3    1
     8     3     4    1
     9     4     5    1
    10     5     8    1
    11     8     9   ar
    12     9    10   ar
    13    10    11   ar
    14    11    12   ar
    15    12    13   ar
    16    13    14   ar
    17    14    15   ar
    18    15    16   ar
    19     5     6    1
    20    19    20   ar
    21    20    21   ar
    22    21    22   ar
    23    22    23    1
    24    23    24   ar
    25    24    25   ar
    26    25    26   ar
    27    26    27    1
    28    26    28   ar
    29    22    17   ar
    30    28    23   ar
    31     6     1    1
    32    16     8   ar
    33    15    10   ar
    34     6     7    1
@<TRIPOS>MOLECULE
*****
 30 34 0 0 0
SMALL
GASTEIGER

@<TRIPOS>ATOM
      1 C           2.4991    0.4015   26.3658 C.2     1  UNL1        0.3845
      2 N           1.6301    1.5839   26.0548 N.2     1  UNL1        0.1566
      3 O           1.2657    1.8934   24.6331 O.2     1  UNL1       -0.2749
      4 C           1.7702    1.0206   23.5224 C.3     1  UNL1        0.3227
      5 C           2.6392   -0.1617   23.8334 C.3     1  UNL1        0.2636
      6 N           3.0037   -0.4713   25.2551 N.pl3   1  UNL1       -0.2082
      7 H           3.5740   -1.2473   25.4593 H       1  UNL1        0.2928
      8 C           3.1437   -1.0346   22.7227 C.ar    1  UNL1        0.1692
      9 C           4.0998   -2.1813   22.8674 C.ar    1  UNL1        0.0402
     10 C           4.3277   -2.7694   21.5064 C.ar    1  UNL1        0.0374
     11 C           5.1723   -3.9169   21.0375 C.ar    1  UNL1        0.0031
     12 C           5.2016   -4.2811   19.5827 C.ar    1  UNL1        0.0002
     13 C           4.3863   -3.4978   18.5969 C.ar    1  UNL1        0.0031
     14 C           3.5418   -2.3503   19.0658 C.ar    1  UNL1        0.0375
     15 C           3.5125   -1.9861   20.5206 C.ar    1  UNL1        0.1450
     16 O           2.7808   -0.9139   21.2723 O.2     1  UNL1       -0.4537
     17 C           4.6705   -0.2954   29.6139 C.ar    1  UNL1        0.2418
     18 N           4.3060    0.0142   28.1922 N.ar    1  UNL1       -0.2028
     19 C           2.8637    0.0919   27.7876 C.ar    1  UNL1        0.1702
     20 C           1.7859   -0.1400   28.8047 C.ar    1  UNL1        0.0285
     21 C           2.1503   -0.4496   30.2264 C.ar    1  UNL1        0.0241
     22 C           3.5927   -0.5273   30.6310 C.ar    1  UNL1        0.1189
     23 N           3.9571   -0.8369   32.0527 N.ar    1  UNL1       -0.2826
     24 C           4.2865   -2.1928   32.6033 C.ar    1  UNL1        0.1826
     25 N           4.5892   -2.0388   34.0643 N.ar    1  UNL1       -0.2280
     26 C           4.4468   -0.5877   34.4168 C.ar    1  UNL1        0.0786
     27 C           4.6580    0.0147   35.7741 C.3     1  UNL1        0.0538
     28 C           4.0562    0.1551   33.1735 C.ar    1  UNL1        0.0963
     29 C           6.8543   -1.6721   29.9062 C.3     1  UNL1        0.2543
     30 O           6.1128   -0.3731   30.0185 O.3     1  UNL1       -0.4551
@<TRIPOS>BOND
     1    29    30    1
     2    30    17    1
     3    17    18   ar
     4    18    19   ar
     5    19     1    1
     6     1     2    2
     7     2     3    1
     8     3     4    1
     9     4     5    1
    10     5     8    1
    11     8     9   ar
    12     9    10   ar
    13    10    11   ar
    14    11    12   ar
    15    12    13   ar
    16    13    14   ar
    17    14    15   ar
    18    15    16   ar
    19     5     6    1
    20    19    20   ar
    21    20    21   ar
    22    21    22   ar
    23    22    23    1
    24    23    24   ar
    25    24    25   ar
    26    25    26   ar
    27    26    27    1
    28    26    28   ar
    29    22    17   ar
    30    28    23   ar
    31     6     1    1
    32    16     8   ar
    33    15    10   ar
    34     6     7    1
