@<TRIPOS>MOLECULE
*****
 21 23 0 0 0
SMALL
GASTEIGER

@<TRIPOS>ATOM
      1 O          -6.9727  -18.6373   22.3296 O.2     1  UNL1       -0.2520
      2 C          -6.9221  -17.2933   22.9937 C.2     1  UNL1        0.3111
      3 N          -5.7081  -16.6549   23.6009 N.am    1  UNL1       -0.2606
      4 C          -6.1125  -15.3187   24.1496 C.3     1  UNL1        0.1169
      5 C          -7.5764  -15.1312   23.8816 C.3     1  UNL1        0.1212
      6 N          -8.0768  -16.3516   23.1672 N.am    1  UNL1       -0.2413
      7 C          -9.4846  -16.5887   22.7070 C.ar    1  UNL1        0.0562
      8 C         -10.4443  -17.3372   23.5838 C.ar    1  UNL1        0.0150
      9 C         -11.8522  -17.5743   23.1238 C.ar    1  UNL1        0.0021
     10 C         -12.3004  -17.0628   21.7867 C.ar    1  UNL1        0.0115
     11 C         -11.3407  -16.3143   20.9099 C.ar    1  UNL1        0.0589
     12 CL        -11.7890  -15.8029   19.5729 Cl      1  UNL1       -0.0822
     13 C          -9.9329  -16.0773   21.3701 C.ar    1  UNL1        0.0263
     14 C          -4.3315  -17.2485   23.6506 C.3     1  UNL1        0.1106
     15 C          -3.5445  -17.4246   22.3858 C.3     1  UNL1        0.0741
     16 C          -2.3631  -16.5429   22.1087 C.3     1  UNL1        0.0175
     17 C          -1.5761  -16.7190   20.8440 C.3     1  UNL1        0.0029
     18 C          -1.9706  -17.7767   19.8563 C.3     1  UNL1        0.0171
     19 C          -3.1521  -18.6584   20.1333 C.3     1  UNL1        0.0686
     20 N          -3.9390  -18.4823   21.3981 N.3     1  UNL1       -0.2972
     21 H          -3.9054  -19.3739   21.8923 H       1  UNL1        0.1233
@<TRIPOS>BOND
     1     1     2    2
     2     2     3   am
     3     3    14    1
     4    14    15    1
     5    15    16    1
     6    16    17    1
     7    17    18    1
     8    18    19    1
     9    19    20    1
    10     3     4    1
    11     4     5    1
    12     5     6    1
    13     6     7    1
    14     7     8   ar
    15     8     9   ar
    16     9    10   ar
    17    10    11   ar
    18    11    12    1
    19    11    13   ar
    20     6     2   am
    21    13     7   ar
    22    20    15    1
    23    20    21    1
@<TRIPOS>MOLECULE
*****
 21 23 0 0 0
SMALL
GASTEIGER

@<TRIPOS>ATOM
      1 O          -8.5956  -19.2995   19.2444 O.2     1  UNL1       -0.2520
      2 C          -8.0010  -18.8464   20.5448 C.2     1  UNL1        0.3111
      3 N          -6.5897  -19.0777   20.9971 N.am    1  UNL1       -0.2606
      4 C          -6.4298  -18.4566   22.3531 C.3     1  UNL1        0.1169
      5 C          -7.7423  -17.8413   22.7388 C.3     1  UNL1        0.1212
      6 N          -8.7134  -18.0822   21.6212 N.am    1  UNL1       -0.2413
      7 C         -10.1454  -17.6372   21.5862 C.ar    1  UNL1        0.0562
      8 C         -10.6364  -16.7779   20.4590 C.ar    1  UNL1        0.0150
      9 C         -12.0684  -16.3328   20.4239 C.ar    1  UNL1        0.0021
     10 C         -13.0095  -16.7470   21.5162 C.ar    1  UNL1        0.0115
     11 C         -12.5185  -17.6062   22.6434 C.ar    1  UNL1        0.0589
     12 CL        -13.4595  -18.0204   23.7356 Cl      1  UNL1       -0.0822
     13 C         -11.0864  -18.0513   22.6784 C.ar    1  UNL1        0.0263
     14 C          -5.5252  -19.8029   20.2284 C.3     1  UNL1        0.1106
     15 C          -4.1740  -19.1775   20.0460 C.3     1  UNL1        0.0741
     16 C          -3.0014  -19.6822   20.8336 C.3     1  UNL1        0.0175
     17 C          -1.6503  -19.0568   20.6512 C.3     1  UNL1        0.0029
     18 C          -1.4718  -17.9266   19.6812 C.3     1  UNL1        0.0171
     19 C          -2.6443  -17.4219   18.8937 C.3     1  UNL1        0.0686
     20 N          -3.9954  -18.0473   19.0761 N.3     1  UNL1       -0.2972
     21 H          -4.2846  -18.3953   18.1620 H       1  UNL1        0.1233
@<TRIPOS>BOND
     1     1     2    2
     2     2     3   am
     3     3    14    1
     4    14    15    1
     5    15    16    1
     6    16    17    1
     7    17    18    1
     8    18    19    1
     9    19    20    1
    10     3     4    1
    11     4     5    1
    12     5     6    1
    13     6     7    1
    14     7     8   ar
    15     8     9   ar
    16     9    10   ar
    17    10    11   ar
    18    11    12    1
    19    11    13   ar
    20     6     2   am
    21    13     7   ar
    22    20    15    1
    23    20    21    1
@<TRIPOS>MOLECULE
*****
 21 23 0 0 0
SMALL
GASTEIGER

@<TRIPOS>ATOM
      1 O          -7.2260  -16.6534   21.7180 O.2     1  UNL1       -0.2520
      2 C          -7.5068  -16.3116   23.1512 C.2     1  UNL1        0.3111
      3 N          -6.5033  -15.8263   24.1549 N.am    1  UNL1       -0.2606
      4 C          -7.2168  -15.6099   25.4565 C.3     1  UNL1        0.1169
      5 C          -8.6613  -15.9615   25.2573 C.3     1  UNL1        0.1212
      6 N          -8.8406  -16.3952   23.8325 N.am    1  UNL1       -0.2413
      7 C         -10.1276  -16.8352   23.2002 C.ar    1  UNL1        0.0562
      8 C         -10.9774  -17.8725   23.8724 C.ar    1  UNL1        0.0150
      9 C         -12.2645  -18.3126   23.2401 C.ar    1  UNL1        0.0021
     10 C         -12.7018  -17.7152   21.9354 C.ar    1  UNL1        0.0115
     11 C         -11.8520  -16.6779   21.2632 C.ar    1  UNL1        0.0589
     12 CL        -12.2893  -16.0806   19.9586 Cl      1  UNL1       -0.0822
     13 C         -10.5650  -16.2379   21.8956 C.ar    1  UNL1        0.0263
     14 C          -5.0427  -15.5975   23.9014 C.3     1  UNL1        0.1106
     15 C          -4.2367  -16.6321   23.1732 C.3     1  UNL1        0.0741
     16 C          -4.5580  -18.0877   23.3408 C.3     1  UNL1        0.0175
     17 C          -3.7520  -19.1222   22.6127 C.3     1  UNL1        0.0029
     18 C          -2.6249  -18.7011   21.7170 C.3     1  UNL1        0.0171
     19 C          -2.3037  -17.2456   21.5494 C.3     1  UNL1        0.0686
     20 N          -3.1096  -16.2111   22.2775 N.3     1  UNL1       -0.2972
     21 H          -3.5106  -15.5973   21.5683 H       1  UNL1        0.1233
@<TRIPOS>BOND
     1     1     2    2
     2     2     3   am
     3     3    14    1
     4    14    15    1
     5    15    16    1
     6    16    17    1
     7    17    18    1
     8    18    19    1
     9    19    20    1
    10     3     4    1
    11     4     5    1
    12     5     6    1
    13     6     7    1
    14     7     8   ar
    15     8     9   ar
    16     9    10   ar
    17    10    11   ar
    18    11    12    1
    19    11    13   ar
    20     6     2   am
    21    13     7   ar
    22    20    15    1
    23    20    21    1
@<TRIPOS>MOLECULE
*****
 21 23 0 0 0
SMALL
GASTEIGER

@<TRIPOS>ATOM
      1 O          -7.6826  -18.9993   22.6973 O.2     1  UNL1       -0.2520
      2 C          -8.1497  -19.2986   21.3036 C.2     1  UNL1        0.3111
      3 N          -7.3664  -20.0197   20.2470 N.am    1  UNL1       -0.2606
      4 C          -8.2146  -20.0960   19.0123 C.3     1  UNL1        0.1169
      5 C          -9.5222  -19.4221   19.3057 C.3     1  UNL1        0.1212
      6 N          -9.4820  -18.9293   20.7219 N.am    1  UNL1       -0.2413
      7 C         -10.5813  -18.1959   21.4317 C.ar    1  UNL1        0.0562
      8 C         -11.0875  -16.8933   20.8869 C.ar    1  UNL1        0.0150
      9 C         -12.1867  -16.1598   21.5966 C.ar    1  UNL1        0.0021
     10 C         -12.7798  -16.7291   22.8514 C.ar    1  UNL1        0.0115
     11 C         -12.2735  -18.0317   23.3963 C.ar    1  UNL1        0.0589
     12 CL        -12.8666  -18.6009   24.6510 Cl      1  UNL1       -0.0822
     13 C         -11.1743  -18.7651   22.6864 C.ar    1  UNL1        0.0263
     14 C          -5.9785  -20.5681   20.3986 C.3     1  UNL1        0.1106
     15 C          -4.8493  -19.6568   20.7789 C.3     1  UNL1        0.0741
     16 C          -3.9111  -19.1454   19.7262 C.3     1  UNL1        0.0175
     17 C          -2.7820  -18.2342   20.1066 C.3     1  UNL1        0.0029
     18 C          -2.5911  -17.8343   21.5396 C.3     1  UNL1        0.0171
     19 C          -3.5293  -18.3457   22.5923 C.3     1  UNL1        0.0686
     20 N          -4.6584  -19.2569   22.2120 N.3     1  UNL1       -0.2972
     21 H          -5.5199  -18.7971   22.5066 H       1  UNL1        0.1233
@<TRIPOS>BOND
     1     1     2    2
     2     2     3   am
     3     3    14    1
     4    14    15    1
     5    15    16    1
     6    16    17    1
     7    17    18    1
     8    18    19    1
     9    19    20    1
    10     3     4    1
    11     4     5    1
    12     5     6    1
    13     6     7    1
    14     7     8   ar
    15     8     9   ar
    16     9    10   ar
    17    10    11   ar
    18    11    12    1
    19    11    13   ar
    20     6     2   am
    21    13     7   ar
    22    20    15    1
    23    20    21    1
@<TRIPOS>MOLECULE
*****
 21 23 0 0 0
SMALL
GASTEIGER

@<TRIPOS>ATOM
      1 O          -7.8514  -18.7448   22.6108 O.2     1  UNL1       -0.2520
      2 C          -7.2528  -17.5143   23.2253 C.2     1  UNL1        0.3111
      3 N          -8.0037  -16.4342   23.9460 N.am    1  UNL1       -0.2606
      4 C          -7.0132  -15.4002   24.3931 C.3     1  UNL1        0.1169
      5 C          -5.6502  -15.8413   23.9486 C.3     1  UNL1        0.1212
      6 N          -5.7983  -17.1479   23.2269 N.am    1  UNL1       -0.2413
      7 C          -4.6869  -17.9477   22.6143 C.ar    1  UNL1        0.0562
      8 C          -3.2677  -17.7038   23.0342 C.ar    1  UNL1        0.0150
      9 C          -2.1562  -18.5036   22.4216 C.ar    1  UNL1        0.0021
     10 C          -2.4642  -19.5472   21.3891 C.ar    1  UNL1        0.0115
     11 C          -3.8834  -19.7910   20.9692 C.ar    1  UNL1        0.0589
     12 CL         -4.1912  -20.8346   19.9367 Cl      1  UNL1       -0.0822
     13 C          -4.9948  -18.9913   21.5818 C.ar    1  UNL1        0.0263
     14 C          -9.4850  -16.3949   24.1788 C.3     1  UNL1        0.1106
     15 C         -10.4301  -16.5547   23.0250 C.3     1  UNL1        0.0741
     16 C         -11.6179  -17.4623   23.1486 C.3     1  UNL1        0.0175
     17 C         -12.5629  -17.6220   21.9947 C.3     1  UNL1        0.0029
     18 C         -12.3201  -16.8743   20.7173 C.3     1  UNL1        0.0171
     19 C         -11.1322  -15.9667   20.5937 C.3     1  UNL1        0.0686
     20 N         -10.1872  -15.8070   21.7475 N.3     1  UNL1       -0.2972
     21 H         -10.1769  -14.8149   21.9845 H       1  UNL1        0.1233
@<TRIPOS>BOND
     1     1     2    2
     2     2     3   am
     3     3    14    1
     4    14    15    1
     5    15    16    1
     6    16    17    1
     7    17    18    1
     8    18    19    1
     9    19    20    1
    10     3     4    1
    11     4     5    1
    12     5     6    1
    13     6     7    1
    14     7     8   ar
    15     8     9   ar
    16     9    10   ar
    17    10    11   ar
    18    11    12    1
    19    11    13   ar
    20     6     2   am
    21    13     7   ar
    22    20    15    1
    23    20    21    1
@<TRIPOS>MOLECULE
*****
 21 23 0 0 0
SMALL
GASTEIGER

@<TRIPOS>ATOM
      1 O          -6.9895  -17.4365   23.1315 O.2     1  UNL1       -0.2520
      2 C          -6.7868  -18.5686   22.1686 C.2     1  UNL1        0.3111
      3 N          -5.4958  -19.2886   21.9134 N.am    1  UNL1       -0.2606
      4 C          -5.7507  -20.3446   20.8790 C.3     1  UNL1        0.1169
      5 C          -7.1991  -20.2773   20.4949 C.3     1  UNL1        0.1212
      6 N          -7.8394  -19.1797   21.2920 N.am    1  UNL1       -0.2413
      7 C          -9.2796  -18.7658   21.2242 C.ar    1  UNL1        0.0562
      8 C          -9.8912  -18.3912   19.9068 C.ar    1  UNL1        0.0150
      9 C         -11.3314  -17.9773   19.8389 C.ar    1  UNL1        0.0021
     10 C         -12.1600  -17.9380   21.0887 C.ar    1  UNL1        0.0115
     11 C         -11.5485  -18.3126   22.4062 C.ar    1  UNL1        0.0589
     12 CL        -12.3771  -18.2733   23.6559 Cl      1  UNL1       -0.0822
     13 C         -10.1083  -18.7265   22.4739 C.ar    1  UNL1        0.0263
     14 C          -4.1810  -19.0027   22.5763 C.3     1  UNL1        0.1106
     15 C          -3.0749  -18.3526   21.7990 C.3     1  UNL1        0.0741
     16 C          -2.6512  -16.9515   22.1266 C.3     1  UNL1        0.0175
     17 C          -1.5452  -16.3014   21.3494 C.3     1  UNL1        0.0029
     18 C          -0.8629  -17.0524   20.2446 C.3     1  UNL1        0.0171
     19 C          -1.2866  -18.4535   19.9171 C.3     1  UNL1        0.0686
     20 N          -2.3926  -19.1036   20.6943 N.3     1  UNL1       -0.2972
     21 H          -2.0025  -19.9493   21.1104 H       1  UNL1        0.1233
@<TRIPOS>BOND
     1     1     2    2
     2     2     3   am
     3     3    14    1
     4    14    15    1
     5    15    16    1
     6    16    17    1
     7    17    18    1
     8    18    19    1
     9    19    20    1
    10     3     4    1
    11     4     5    1
    12     5     6    1
    13     6     7    1
    14     7     8   ar
    15     8     9   ar
    16     9    10   ar
    17    10    11   ar
    18    11    12    1
    19    11    13   ar
    20     6     2   am
    21    13     7   ar
    22    20    15    1
    23    20    21    1
@<TRIPOS>MOLECULE
*****
 21 23 0 0 0
SMALL
GASTEIGER

@<TRIPOS>ATOM
      1 O          -7.2606  -17.2560   22.2484 O.2     1  UNL1       -0.2520
      2 C          -6.5660  -16.6578   23.4356 C.2     1  UNL1        0.3111
      3 N          -7.2184  -15.8779   24.5383 N.am    1  UNL1       -0.2606
      4 C          -6.1526  -15.4725   25.5128 C.3     1  UNL1        0.1169
      5 C          -4.8414  -16.0019   25.0124 C.3     1  UNL1        0.1212
      6 N          -5.0969  -16.7345   23.7286 N.am    1  UNL1       -0.2413
      7 C          -4.0645  -17.4229   22.8858 C.ar    1  UNL1        0.0562
      8 C          -4.1034  -18.9133   22.7206 C.ar    1  UNL1        0.0150
      9 C          -3.0711  -19.6018   21.8778 C.ar    1  UNL1        0.0021
     10 C          -1.9998  -18.7997   21.2001 C.ar    1  UNL1        0.0115
     11 C          -1.9609  -17.3093   21.3653 C.ar    1  UNL1        0.0589
     12 CL         -0.8897  -16.5074   20.6876 Cl      1  UNL1       -0.0822
     13 C          -2.9933  -16.6209   22.2081 C.ar    1  UNL1        0.0263
     14 C          -8.6801  -15.5592   24.6474 C.3     1  UNL1        0.1106
     15 C          -9.6936  -16.4559   24.0001 C.3     1  UNL1        0.0741
     16 C         -10.0473  -17.7684   24.6342 C.3     1  UNL1        0.0175
     17 C         -11.0607  -18.6651   23.9870 C.3     1  UNL1        0.0029
     18 C         -11.7204  -18.2492   22.7056 C.3     1  UNL1        0.0171
     19 C         -11.3667  -16.9366   22.0716 C.3     1  UNL1        0.0686
     20 N         -10.3533  -16.0400   22.7188 N.3     1  UNL1       -0.2972
     21 H         -10.8206  -15.1522   22.9029 H       1  UNL1        0.1233
@<TRIPOS>BOND
     1     1     2    2
     2     2     3   am
     3     3    14    1
     4    14    15    1
     5    15    16    1
     6    16    17    1
     7    17    18    1
     8    18    19    1
     9    19    20    1
    10     3     4    1
    11     4     5    1
    12     5     6    1
    13     6     7    1
    14     7     8   ar
    15     8     9   ar
    16     9    10   ar
    17    10    11   ar
    18    11    12    1
    19    11    13   ar
    20     6     2   am
    21    13     7   ar
    22    20    15    1
    23    20    21    1
@<TRIPOS>MOLECULE
*****
 21 23 0 0 0
SMALL
GASTEIGER

@<TRIPOS>ATOM
      1 O          -7.2835  -18.7827   22.8447 O.2     1  UNL1       -0.2520
      2 C          -7.5210  -19.2633   21.4438 C.2     1  UNL1        0.3111
      3 N          -6.5077  -19.9181   20.5525 N.am    1  UNL1       -0.2606
      4 C          -7.1740  -20.2330   19.2461 C.3     1  UNL1        0.1169
      5 C          -8.5992  -19.7727   19.3298 C.3     1  UNL1        0.1212
      6 N          -8.8136  -19.1734   20.6881 N.am    1  UNL1       -0.2413
      7 C         -10.0956  -18.5871   21.2007 C.ar    1  UNL1        0.0562
      8 C         -10.6770  -19.0716   22.4958 C.ar    1  UNL1        0.0150
      9 C         -11.9590  -18.4854   23.0085 C.ar    1  UNL1        0.0021
     10 C         -12.6597  -17.4145   22.2259 C.ar    1  UNL1        0.0115
     11 C         -12.0783  -16.9299   20.9308 C.ar    1  UNL1        0.0589
     12 CL        -12.7790  -15.8591   20.1483 Cl      1  UNL1       -0.0822
     13 C         -10.7963  -17.5162   20.4182 C.ar    1  UNL1        0.0263
     14 C          -5.0789  -20.2074   20.9058 C.3     1  UNL1        0.1106
     15 C          -4.1257  -19.0774   21.1603 C.3     1  UNL1        0.0741
     16 C          -3.8242  -18.6529   22.5670 C.3     1  UNL1        0.0175
     17 C          -2.8711  -17.5230   22.8214 C.3     1  UNL1        0.0029
     18 C          -2.2193  -16.8177   21.6691 C.3     1  UNL1        0.0171
     19 C          -2.5207  -17.2423   20.2624 C.3     1  UNL1        0.0686
     20 N          -3.4739  -18.3721   20.0080 N.3     1  UNL1       -0.2972
     21 H          -2.9591  -19.0791   19.4831 H       1  UNL1        0.1233
@<TRIPOS>BOND
     1     1     2    2
     2     2     3   am
     3     3    14    1
     4    14    15    1
     5    15    16    1
     6    16    17    1
     7    17    18    1
     8    18    19    1
     9    19    20    1
    10     3     4    1
    11     4     5    1
    12     5     6    1
    13     6     7    1
    14     7     8   ar
    15     8     9   ar
    16     9    10   ar
    17    10    11   ar
    18    11    12    1
    19    11    13   ar
    20     6     2   am
    21    13     7   ar
    22    20    15    1
    23    20    21    1
@<TRIPOS>MOLECULE
*****
 21 23 0 0 0
SMALL
GASTEIGER

@<TRIPOS>ATOM
      1 O         -13.2386   -5.6477   20.1519 O.2     1  UNL1       -0.2520
      2 C         -12.8344   -6.4226   18.9327 C.2     1  UNL1        0.3111
      3 N         -11.5552   -6.2575   18.1671 N.am    1  UNL1       -0.2606
      4 C         -11.5688   -7.2315   17.0264 C.3     1  UNL1        0.1169
      5 C         -12.8564   -7.9985   17.0870 C.3     1  UNL1        0.1212
      6 N         -13.6386   -7.4985   18.2652 N.am    1  UNL1       -0.2413
      7 C         -14.9882   -7.9885   18.6997 C.ar    1  UNL1        0.0562
      8 C         -15.9692   -7.0359   19.3162 C.ar    1  UNL1        0.0150
      9 C         -17.3188   -7.5259   19.7506 C.ar    1  UNL1        0.0021
     10 C         -17.6872   -8.9685   19.5685 C.ar    1  UNL1        0.0115
     11 C         -16.7061   -9.9211   18.9520 C.ar    1  UNL1        0.0589
     12 CL        -17.0746  -11.3637   18.7699 Cl      1  UNL1       -0.0822
     13 C         -15.3566   -9.4311   18.5176 C.ar    1  UNL1        0.0263
     14 C         -10.4555   -5.2886   18.4862 C.3     1  UNL1        0.1106
     15 C         -10.6506   -3.8229   18.2339 C.3     1  UNL1        0.0741
     16 C         -10.0784   -3.1916   16.9994 C.3     1  UNL1        0.0175
     17 C         -10.2736   -1.7259   16.7472 C.3     1  UNL1        0.0029
     18 C         -11.0410   -0.8915   17.7296 C.3     1  UNL1        0.0171
     19 C         -11.6132   -1.5228   18.9640 C.3     1  UNL1        0.0686
     20 N         -11.4180   -2.9885   19.2162 N.3     1  UNL1       -0.2972
     21 H         -12.3480   -3.4010   19.2898 H       1  UNL1        0.1233
@<TRIPOS>BOND
     1     1     2    2
     2     2     3   am
     3     3    14    1
     4    14    15    1
     5    15    16    1
     6    16    17    1
     7    17    18    1
     8    18    19    1
     9    19    20    1
    10     3     4    1
    11     4     5    1
    12     5     6    1
    13     6     7    1
    14     7     8   ar
    15     8     9   ar
    16     9    10   ar
    17    10    11   ar
    18    11    12    1
    19    11    13   ar
    20     6     2   am
    21    13     7   ar
    22    20    15    1
    23    20    21    1
