@<TRIPOS>MOLECULE
*****
 39 42 0 0 0
SMALL
GASTEIGER

@<TRIPOS>ATOM
      1 C           2.1768   -0.2229   19.1347 C.3     1  UNL1        0.1532
      2 N           4.4959    0.8334   18.6288 N.am    1  UNL1       -0.2945
      3 C           3.3245    0.0027   18.1956 C.2     1  UNL1        0.2413
      4 O           3.3007   -0.6024   16.8232 O.2     1  UNL1       -0.2733
      5 H           4.5115    1.2305   19.5295 H       1  UNL1        0.1503
      6 C           5.6435    1.0590   17.6896 C.3     1  UNL1        0.1365
      7 C           6.5957    1.7670   16.7720 C.3     1  UNL1        0.0353
      8 C           5.4793    2.5264   17.4255 C.3     1  UNL1        0.0353
      9 N           6.7690   -1.7191   17.5655 N.1     1  UNL1       -0.1943
     10 C           6.2062   -0.3300   17.6276 C.1     1  UNL1        0.0896
     11 N           0.9622    0.6541   19.0591 N.am    1  UNL1       -0.2932
     12 C           0.7002    1.6667   20.1344 C.2     1  UNL1        0.2673
     13 O           1.6526    1.8022   21.2852 O.2     1  UNL1       -0.2684
     14 H           0.3371    0.5652   18.3038 H       1  UNL1        0.1502
     15 C          -0.5144    2.5437   20.0587 C.ar    1  UNL1        0.1767
     16 C          -0.7311    3.6680   19.0897 C.ar    1  UNL1        0.1476
     17 N          -2.0761    4.2696   19.3709 N.ar    1  UNL1       -0.1445
     18 N          -2.6906    3.5171   20.5138 N.ar    1  UNL1       -0.1462
     19 N          -1.7255    2.4504   20.9389 N.ar    1  UNL1       -0.1417
     20 C          -4.0344    3.7843   21.1243 C.ar    1  UNL1        0.1221
     21 C          -4.2056    3.7308   22.6136 C.ar    1  UNL1        0.0264
     22 C          -5.5494    3.9980   23.2241 C.ar    1  UNL1        0.0513
     23 C          -6.7220    4.3187   22.3455 C.ar    1  UNL1        0.2224
     24 F          -8.0659    4.5860   22.9560 F       1  UNL1       -0.1832
     25 N          -6.5508    4.3723   20.8562 N.ar    1  UNL1       -0.2148
     26 C          -5.2070    4.1050   20.2456 C.ar    1  UNL1        0.1221
     27 C           2.2436   -1.3255   20.1495 C.3     1  UNL1        0.0553
     28 C           3.4612   -2.1981   20.2298 C.ar    1  UNL1       -0.0190
     29 C           4.5860   -1.8330   21.1525 C.ar    1  UNL1       -0.0010
     30 C           5.8034   -2.7056   21.2328 C.ar    1  UNL1        0.0377
     31 C           5.8960   -3.9432   20.3903 C.ar    1  UNL1        0.1572
     32 C           4.7712   -4.3083   19.4676 C.ar    1  UNL1        0.0915
     33 CL          4.8638   -5.5459   18.6252 Cl      1  UNL1       -0.0791
     34 C           3.5538   -3.4357   19.3873 C.ar    1  UNL1        0.0103
     35 O           7.1135   -4.8158   20.4706 O.3     1  UNL1       -0.4036
     36 C           8.3245   -4.3464   21.2210 C.3     1  UNL1        0.5753
     37 F           9.5355   -3.8769   21.9715 F       1  UNL1       -0.1328
     38 F           7.8573   -5.0875   22.4386 F       1  UNL1       -0.1328
     39 F           8.7916   -3.6053   20.0034 F       1  UNL1       -0.1328
@<TRIPOS>BOND
     1     9    10    3
     2    10     6    1
     3     6     2    1
     4     2     3   am
     5     3     4    2
     6     3     1    1
     7     1    27    1
     8    27    28    1
     9    28    29   ar
    10    29    30   ar
    11    30    31   ar
    12    31    35    1
    13    35    36    1
    14    36    37    1
    15    36    38    1
    16    36    39    1
    17    31    32   ar
    18    32    33    1
    19    32    34   ar
    20     1    11    1
    21    11    12   am
    22    12    13    2
    23    12    15    1
    24    15    16   ar
    25    16    17   ar
    26    17    18   ar
    27    18    20    1
    28    20    21   ar
    29    21    22   ar
    30    22    23   ar
    31    23    24    1
    32    23    25   ar
    33    25    26   ar
    34    18    19   ar
    35     6     7    1
    36     7     8    1
    37     8     6    1
    38    34    28   ar
    39    19    15   ar
    40    26    20   ar
    41     2     5    1
    42    11    14    1
@<TRIPOS>MOLECULE
*****
 39 42 0 0 0
SMALL
GASTEIGER

@<TRIPOS>ATOM
      1 C           3.4024    0.1478   25.5181 C.3     1  UNL1        0.1532
      2 N           0.8735    0.5933   25.9135 N.am    1  UNL1       -0.2945
      3 C           2.3098    0.9263   26.1892 C.2     1  UNL1        0.2413
      4 O           2.6536    2.0378   27.1360 O.2     1  UNL1       -0.2733
      5 H           0.6478   -0.1362   25.2921 H       1  UNL1        0.1503
      6 C          -0.2190    1.3718   26.5846 C.3     1  UNL1        0.1365
      7 C          -1.2682    2.4194   26.8118 C.3     1  UNL1        0.0353
      8 C          -0.4738    2.4171   25.5394 C.3     1  UNL1        0.0353
      9 N          -0.4684   -0.1782   29.1411 N.1     1  UNL1       -0.1943
     10 C          -0.3437    0.5968   27.8628 C.1     1  UNL1        0.0896
     11 N           3.9941   -1.0519   26.1968 N.am    1  UNL1       -0.2932
     12 C           5.1646   -0.8895   27.1208 C.2     1  UNL1        0.2673
     13 O           5.7432    0.4724   27.3661 O.2     1  UNL1       -0.2684
     14 H           3.6143   -1.9458   26.0358 H       1  UNL1        0.1502
     15 C           5.7563   -2.0892   27.7995 C.ar    1  UNL1        0.1767
     16 C           6.0308   -2.2256   29.2678 C.ar    1  UNL1        0.1476
     17 N           6.6216   -3.5838   29.5048 N.ar    1  UNL1       -0.1445
     18 N           6.7123   -4.2869   28.1829 N.ar    1  UNL1       -0.1462
     19 N           6.1775   -3.3633   27.1289 N.ar    1  UNL1       -0.1417
     20 C           7.2443   -5.6708   27.9550 C.ar    1  UNL1        0.1221
     21 C           6.8844   -6.4160   26.7040 C.ar    1  UNL1        0.0264
     22 C           7.4164   -7.7999   26.4760 C.ar    1  UNL1        0.0513
     23 C           8.3083   -8.4384   27.4991 C.ar    1  UNL1        0.2224
     24 F           8.8403   -9.8223   27.2712 F       1  UNL1       -0.1832
     25 N           8.6682   -7.6931   28.7501 N.ar    1  UNL1       -0.2148
     26 C           8.1362   -6.3093   28.9781 C.ar    1  UNL1        0.1221
     27 C           3.9031    0.5690   24.1684 C.3     1  UNL1        0.0553
     28 C           3.6708   -0.3091   22.9746 C.ar    1  UNL1       -0.0190
     29 C           4.5848   -1.4679   22.7067 C.ar    1  UNL1       -0.0010
     30 C           4.3525   -2.3459   21.5130 C.ar    1  UNL1        0.0377
     31 C           3.2061   -2.0652   20.5872 C.ar    1  UNL1        0.1572
     32 C           2.2921   -0.9065   20.8551 C.ar    1  UNL1        0.0915
     33 CL          1.1457   -0.6258   19.9294 Cl      1  UNL1       -0.0791
     34 C           2.5244   -0.0284   22.0489 C.ar    1  UNL1        0.0103
     35 O           2.9738   -2.9433   19.3934 O.3     1  UNL1       -0.4036
     36 C           3.9512   -4.0316   19.0613 C.3     1  UNL1        0.5753
     37 F           4.9287   -5.1198   18.7291 F       1  UNL1       -0.1328
     38 F           4.7989   -3.0430   18.3170 F       1  UNL1       -0.1328
     39 F           3.1034   -5.0201   19.8056 F       1  UNL1       -0.1328
@<TRIPOS>BOND
     1     9    10    3
     2    10     6    1
     3     6     2    1
     4     2     3   am
     5     3     4    2
     6     3     1    1
     7     1    27    1
     8    27    28    1
     9    28    29   ar
    10    29    30   ar
    11    30    31   ar
    12    31    35    1
    13    35    36    1
    14    36    37    1
    15    36    38    1
    16    36    39    1
    17    31    32   ar
    18    32    33    1
    19    32    34   ar
    20     1    11    1
    21    11    12   am
    22    12    13    2
    23    12    15    1
    24    15    16   ar
    25    16    17   ar
    26    17    18   ar
    27    18    20    1
    28    20    21   ar
    29    21    22   ar
    30    22    23   ar
    31    23    24    1
    32    23    25   ar
    33    25    26   ar
    34    18    19   ar
    35     6     7    1
    36     7     8    1
    37     8     6    1
    38    34    28   ar
    39    19    15   ar
    40    26    20   ar
    41     2     5    1
    42    11    14    1
@<TRIPOS>MOLECULE
*****
 39 42 0 0 0
SMALL
GASTEIGER

@<TRIPOS>ATOM
      1 C           3.0387   -0.4368   22.1732 C.3     1  UNL1        0.1532
      2 N           4.1672   -0.6690   19.8446 N.am    1  UNL1       -0.2945
      3 C           2.9530   -0.7875   20.7173 C.2     1  UNL1        0.2413
      4 O           1.6531   -1.2567   20.1341 O.2     1  UNL1       -0.2733
      5 H           5.0203   -0.3610   20.2273 H       1  UNL1        0.1503
      6 C           4.0815   -1.0197   18.3887 C.3     1  UNL1        0.1365
      7 C           3.8436   -0.8725   16.9150 C.3     1  UNL1        0.0353
      8 C           3.6135    0.2922   17.8319 C.3     1  UNL1        0.0353
      9 N           4.9579   -3.8870   18.4910 N.1     1  UNL1       -0.1943
     10 C           4.5197   -2.4533   18.4399 C.1     1  UNL1        0.0896
     11 N           3.6165   -1.4191   23.1485 N.am    1  UNL1       -0.2932
     12 C           5.1042   -1.5564   23.2824 C.2     1  UNL1        0.2673
     13 O           6.0141   -0.7113   22.4410 O.2     1  UNL1       -0.2684
     14 H           3.0193   -1.9738   23.7008 H       1  UNL1        0.1502
     15 C           5.6820   -2.5387   24.2577 C.ar    1  UNL1        0.1767
     16 C           6.4339   -3.7889   23.9091 C.ar    1  UNL1        0.1476
     17 N           6.8260   -4.4662   25.1888 N.ar    1  UNL1       -0.1445
     18 N           6.3164   -3.6345   26.3283 N.ar    1  UNL1       -0.1462
     19 N           5.6094   -2.4432   25.7530 N.ar    1  UNL1       -0.1417
     20 C           6.4843   -3.9403   27.7872 C.ar    1  UNL1        0.1221
     21 C           6.5075   -2.8246   28.7896 C.ar    1  UNL1        0.0264
     22 C           6.6755   -3.1304   30.2484 C.ar    1  UNL1        0.0513
     23 C           6.8202   -4.5519   30.7049 C.ar    1  UNL1        0.2224
     24 F           6.9881   -4.8578   32.1638 F       1  UNL1       -0.1832
     25 N           6.7970   -5.6676   29.7025 N.ar    1  UNL1       -0.2148
     26 C           6.6291   -5.3618   28.2437 C.ar    1  UNL1        0.1221
     27 C           2.5465    0.8961   22.6538 C.3     1  UNL1        0.0553
     28 C           1.9423    1.0242   24.0208 C.ar    1  UNL1       -0.0190
     29 C           0.4568    1.1647   24.1741 C.ar    1  UNL1       -0.0010
     30 C          -0.1473    1.2927   25.5410 C.ar    1  UNL1        0.0377
     31 C           0.7341    1.2803   26.7547 C.ar    1  UNL1        0.1572
     32 C           2.2196    1.1399   26.6015 C.ar    1  UNL1        0.0915
     33 CL          3.1009    1.1275   27.8152 Cl      1  UNL1       -0.0791
     34 C           2.8237    1.0118   25.2345 C.ar    1  UNL1        0.0103
     35 O           0.1299    1.4084   28.1217 O.3     1  UNL1       -0.4036
     36 C          -0.7641    0.3265   28.6509 C.3     1  UNL1        0.5753
     37 F          -1.6582   -0.7555   29.1802 F       1  UNL1       -0.1328
     38 F           0.4391   -0.5049   28.9840 F       1  UNL1       -0.1328
     39 F          -1.9674    1.1579   28.3179 F       1  UNL1       -0.1328
@<TRIPOS>BOND
     1     9    10    3
     2    10     6    1
     3     6     2    1
     4     2     3   am
     5     3     4    2
     6     3     1    1
     7     1    27    1
     8    27    28    1
     9    28    29   ar
    10    29    30   ar
    11    30    31   ar
    12    31    35    1
    13    35    36    1
    14    36    37    1
    15    36    38    1
    16    36    39    1
    17    31    32   ar
    18    32    33    1
    19    32    34   ar
    20     1    11    1
    21    11    12   am
    22    12    13    2
    23    12    15    1
    24    15    16   ar
    25    16    17   ar
    26    17    18   ar
    27    18    20    1
    28    20    21   ar
    29    21    22   ar
    30    22    23   ar
    31    23    24    1
    32    23    25   ar
    33    25    26   ar
    34    18    19   ar
    35     6     7    1
    36     7     8    1
    37     8     6    1
    38    34    28   ar
    39    19    15   ar
    40    26    20   ar
    41     2     5    1
    42    11    14    1
@<TRIPOS>MOLECULE
*****
 39 42 0 0 0
SMALL
GASTEIGER

@<TRIPOS>ATOM
      1 C           7.7327   -2.9857   23.6625 C.3     1  UNL1        0.1532
      2 N           7.1481   -5.3174   24.6482 N.am    1  UNL1       -0.2945
      3 C           8.1110   -4.1782   24.4901 C.2     1  UNL1        0.2413
      4 O           9.4523   -4.2314   25.1597 O.2     1  UNL1       -0.2733
      5 H           6.2678   -5.2824   24.2088 H       1  UNL1        0.1503
      6 C           7.5265   -6.5098   25.4759 C.3     1  UNL1        0.1365
      7 C           8.0876   -7.8525   25.8394 C.3     1  UNL1        0.0353
      8 C           8.1841   -7.3568   24.4269 C.3     1  UNL1        0.0353
      9 N           6.4742   -5.6440   28.1485 N.1     1  UNL1       -0.1943
     10 C           7.0004   -6.0769   26.8122 C.1     1  UNL1        0.0896
     11 N           6.7653   -1.9744   24.2024 N.am    1  UNL1       -0.2932
     12 C           5.2906   -2.2436   24.1480 C.2     1  UNL1        0.2673
     13 O           4.7834   -3.5240   23.5537 O.2     1  UNL1       -0.2684
     14 H           7.0983   -1.1341   24.5925 H       1  UNL1        0.1502
     15 C           4.3232   -1.2324   24.6879 C.ar    1  UNL1        0.1767
     16 C           3.6702   -0.1316   23.9057 C.ar    1  UNL1        0.1476
     17 N           2.7824    0.6368   24.8392 N.ar    1  UNL1       -0.1445
     18 N           2.8867    0.0109   26.1984 N.ar    1  UNL1       -0.1462
     19 N           3.8390   -1.1443   26.1050 N.ar    1  UNL1       -0.1417
     20 C           2.1655    0.4611   27.4341 C.ar    1  UNL1        0.1221
     21 C           1.5769    1.8393   27.4990 C.ar    1  UNL1        0.0264
     22 C           0.8557    2.2895   28.7347 C.ar    1  UNL1        0.0513
     23 C           0.7229    1.3615   29.9056 C.ar    1  UNL1        0.2224
     24 F           0.0015    1.8116   31.1414 F       1  UNL1       -0.1832
     25 N           1.3114   -0.0167   29.8408 N.ar    1  UNL1       -0.2148
     26 C           2.0327   -0.4669   28.6051 C.ar    1  UNL1        0.1221
     27 C           8.3217   -2.8045   22.2950 C.3     1  UNL1        0.0553
     28 C           7.4217   -2.6253   21.1083 C.ar    1  UNL1       -0.0190
     29 C           7.3754   -1.3070   20.3944 C.ar    1  UNL1       -0.0010
     30 C           6.4755   -1.1278   19.2079 C.ar    1  UNL1        0.0377
     31 C           5.6218   -2.2671   18.7353 C.ar    1  UNL1        0.1572
     32 C           5.6681   -3.5855   19.4492 C.ar    1  UNL1        0.0915
     33 CL          4.8145   -4.7247   18.9765 Cl      1  UNL1       -0.0791
     34 C           6.5681   -3.7646   20.6357 C.ar    1  UNL1        0.0103
     35 O           4.7218   -2.0879   17.5487 O.3     1  UNL1       -0.4036
     36 C           3.7073   -0.9831   17.5368 C.3     1  UNL1        0.5753
     37 F           2.6928    0.1218   17.5250 F       1  UNL1       -0.1328
     38 F           4.2656   -0.4844   16.2370 F       1  UNL1       -0.1328
     39 F           3.1490   -1.4818   18.8366 F       1  UNL1       -0.1328
@<TRIPOS>BOND
     1     9    10    3
     2    10     6    1
     3     6     2    1
     4     2     3   am
     5     3     4    2
     6     3     1    1
     7     1    27    1
     8    27    28    1
     9    28    29   ar
    10    29    30   ar
    11    30    31   ar
    12    31    35    1
    13    35    36    1
    14    36    37    1
    15    36    38    1
    16    36    39    1
    17    31    32   ar
    18    32    33    1
    19    32    34   ar
    20     1    11    1
    21    11    12   am
    22    12    13    2
    23    12    15    1
    24    15    16   ar
    25    16    17   ar
    26    17    18   ar
    27    18    20    1
    28    20    21   ar
    29    21    22   ar
    30    22    23   ar
    31    23    24    1
    32    23    25   ar
    33    25    26   ar
    34    18    19   ar
    35     6     7    1
    36     7     8    1
    37     8     6    1
    38    34    28   ar
    39    19    15   ar
    40    26    20   ar
    41     2     5    1
    42    11    14    1
@<TRIPOS>MOLECULE
*****
 39 42 0 0 0
SMALL
GASTEIGER

@<TRIPOS>ATOM
      1 C           4.0148   -1.4906   24.5936 C.3     1  UNL1        0.1532
      2 N           5.4118   -3.5601   23.8755 N.am    1  UNL1       -0.2945
      3 C           5.3342   -2.1047   24.2301 C.2     1  UNL1        0.2413
      4 O           6.5760   -1.2633   24.2212 O.2     1  UNL1       -0.2733
      5 H           4.5968   -4.1123   23.8813 H       1  UNL1        0.1503
      6 C           6.7312   -4.1741   23.5121 C.3     1  UNL1        0.1365
      7 C           7.8981   -4.6178   22.6805 C.3     1  UNL1        0.0353
      8 C           6.7502   -3.8969   22.0380 C.3     1  UNL1        0.0353
      9 N           7.6096   -5.1550   26.2077 N.1     1  UNL1       -0.1943
     10 C           7.1704   -4.6645   24.8598 C.1     1  UNL1        0.0896
     11 N           3.5349   -1.5305   26.0142 N.am    1  UNL1       -0.2932
     12 C           3.6783   -0.3201   26.8885 C.2     1  UNL1        0.2673
     13 O           4.3015    0.9301   26.3423 O.2     1  UNL1       -0.2684
     14 H           3.1259   -2.3511   26.3727 H       1  UNL1        0.1502
     15 C           3.1984   -0.3600   28.3091 C.ar    1  UNL1        0.1767
     16 C           1.7668   -0.3910   28.7557 C.ar    1  UNL1        0.1476
     17 N           1.7495   -0.4261   30.2551 N.ar    1  UNL1       -0.1445
     18 N           3.1705   -0.4167   30.7354 N.ar    1  UNL1       -0.1462
     19 N           4.0661   -0.3759   29.5327 N.ar    1  UNL1       -0.1417
     20 C           3.6176   -0.4435   32.1670 C.ar    1  UNL1        0.1221
     21 C           4.2449   -1.6825   32.7338 C.ar    1  UNL1        0.0264
     22 C           4.6920   -1.7093   34.1653 C.ar    1  UNL1        0.0513
     23 C           4.5117   -0.4970   35.0301 C.ar    1  UNL1        0.2224
     24 F           4.9588   -0.5238   36.4618 F       1  UNL1       -0.1832
     25 N           3.8844    0.7420   34.4633 N.ar    1  UNL1       -0.2148
     26 C           3.4373    0.7688   33.0318 C.ar    1  UNL1        0.1221
     27 C           3.1753   -0.8366   23.5365 C.3     1  UNL1        0.0553
     28 C           3.6015   -0.8922   22.0993 C.ar    1  UNL1       -0.0190
     29 C           4.2310    0.3082   21.4568 C.ar    1  UNL1       -0.0010
     30 C           4.6572    0.2526   20.0197 C.ar    1  UNL1        0.0377
     31 C           4.4540   -1.0034   19.2252 C.ar    1  UNL1        0.1572
     32 C           3.8245   -2.2037   19.8677 C.ar    1  UNL1        0.0915
     33 CL          3.6213   -3.4597   19.0732 Cl      1  UNL1       -0.0791
     34 C           3.3983   -2.1481   21.3048 C.ar    1  UNL1        0.0103
     35 O           4.8802   -1.0590   17.7881 O.3     1  UNL1       -0.4036
     36 C           6.1270   -0.3508   17.3477 C.3     1  UNL1        0.5753
     37 F           7.3740    0.3573   16.9073 F       1  UNL1       -0.1328
     38 F           6.9575   -1.4771   17.8879 F       1  UNL1       -0.1328
     39 F           5.2966    0.7754   16.8074 F       1  UNL1       -0.1328
@<TRIPOS>BOND
     1     9    10    3
     2    10     6    1
     3     6     2    1
     4     2     3   am
     5     3     4    2
     6     3     1    1
     7     1    27    1
     8    27    28    1
     9    28    29   ar
    10    29    30   ar
    11    30    31   ar
    12    31    35    1
    13    35    36    1
    14    36    37    1
    15    36    38    1
    16    36    39    1
    17    31    32   ar
    18    32    33    1
    19    32    34   ar
    20     1    11    1
    21    11    12   am
    22    12    13    2
    23    12    15    1
    24    15    16   ar
    25    16    17   ar
    26    17    18   ar
    27    18    20    1
    28    20    21   ar
    29    21    22   ar
    30    22    23   ar
    31    23    24    1
    32    23    25   ar
    33    25    26   ar
    34    18    19   ar
    35     6     7    1
    36     7     8    1
    37     8     6    1
    38    34    28   ar
    39    19    15   ar
    40    26    20   ar
    41     2     5    1
    42    11    14    1
@<TRIPOS>MOLECULE
*****
 39 42 0 0 0
SMALL
GASTEIGER

@<TRIPOS>ATOM
      1 C           1.8267    2.6695   20.4321 C.3     1  UNL1        0.1532
      2 N           1.7765    0.9125   22.3454 N.am    1  UNL1       -0.2945
      3 C           2.4143    2.1014   21.6899 C.2     1  UNL1        0.2413
      4 O           3.6398    2.7223   22.2923 O.2     1  UNL1       -0.2733
      5 H           0.9722    0.5050   21.9501 H       1  UNL1        0.1503
      6 C           2.3642    0.3445   23.6031 C.3     1  UNL1        0.1365
      7 C           3.1954   -0.5175   24.5065 C.3     1  UNL1        0.0353
      8 C           3.2696   -0.6994   23.0193 C.3     1  UNL1        0.0353
      9 N           0.9616    2.0375   25.6443 N.1     1  UNL1       -0.1943
     10 C           1.6629    1.1910   24.6237 C.1     1  UNL1        0.0896
     11 N           0.4854    3.3399   20.4672 N.am    1  UNL1       -0.2932
     12 C          -0.7659    2.5131   20.4969 C.2     1  UNL1        0.2673
     13 O          -0.6757    1.0158   20.4915 O.2     1  UNL1       -0.2684
     14 H           0.4262    4.3227   20.4707 H       1  UNL1        0.1502
     15 C          -2.1072    3.1835   20.5319 C.ar    1  UNL1        0.1767
     16 C          -2.7795    3.8714   19.3809 C.ar    1  UNL1        0.1476
     17 N          -4.0996    4.3968   19.8617 N.ar    1  UNL1       -0.1445
     18 N          -4.2432    4.0338   21.3100 N.ar    1  UNL1       -0.1462
     19 N          -3.0119    3.2839   21.7243 N.ar    1  UNL1       -0.1417
     20 C          -5.4128    4.3628   22.1897 C.ar    1  UNL1        0.1221
     21 C          -5.3198    4.1503   23.6717 C.ar    1  UNL1        0.0264
     22 C          -6.4894    4.4793   24.5514 C.ar    1  UNL1        0.0513
     23 C          -7.7519    5.0208   23.9491 C.ar    1  UNL1        0.2224
     24 F          -8.9216    5.3498   24.8287 F       1  UNL1       -0.1832
     25 N          -7.8449    5.2333   22.4671 N.ar    1  UNL1       -0.2148
     26 C          -6.6753    4.9043   21.5874 C.ar    1  UNL1        0.1221
     27 C           2.5804    2.5671   19.1393 C.3     1  UNL1        0.0553
     28 C           3.2726    1.2874   18.7740 C.ar    1  UNL1       -0.0190
     29 C           2.6092   -0.0293   19.0500 C.ar    1  UNL1       -0.0010
     30 C           3.3014   -1.3089   18.6846 C.ar    1  UNL1        0.0377
     31 C           4.6568   -1.2718   18.0433 C.ar    1  UNL1        0.1572
     32 C           5.3202    0.0449   17.7673 C.ar    1  UNL1        0.0915
     33 CL          6.6757    0.0820   17.1260 Cl      1  UNL1       -0.0791
     34 C           4.6281    1.3245   18.1327 C.ar    1  UNL1        0.0103
     35 O           5.3490   -2.5516   17.6780 O.3     1  UNL1       -0.4036
     36 C           5.7174   -3.5367   18.7474 C.3     1  UNL1        0.5753
     37 F           6.0858   -4.5220   19.8168 F       1  UNL1       -0.1328
     38 F           4.6094   -4.4413   18.2958 F       1  UNL1       -0.1328
     39 F           6.8255   -2.6322   19.1990 F       1  UNL1       -0.1328
@<TRIPOS>BOND
     1     9    10    3
     2    10     6    1
     3     6     2    1
     4     2     3   am
     5     3     4    2
     6     3     1    1
     7     1    27    1
     8    27    28    1
     9    28    29   ar
    10    29    30   ar
    11    30    31   ar
    12    31    35    1
    13    35    36    1
    14    36    37    1
    15    36    38    1
    16    36    39    1
    17    31    32   ar
    18    32    33    1
    19    32    34   ar
    20     1    11    1
    21    11    12   am
    22    12    13    2
    23    12    15    1
    24    15    16   ar
    25    16    17   ar
    26    17    18   ar
    27    18    20    1
    28    20    21   ar
    29    21    22   ar
    30    22    23   ar
    31    23    24    1
    32    23    25   ar
    33    25    26   ar
    34    18    19   ar
    35     6     7    1
    36     7     8    1
    37     8     6    1
    38    34    28   ar
    39    19    15   ar
    40    26    20   ar
    41     2     5    1
    42    11    14    1
@<TRIPOS>MOLECULE
*****
 39 42 0 0 0
SMALL
GASTEIGER

@<TRIPOS>ATOM
      1 C           6.3123   -3.7698   24.0166 C.3     1  UNL1        0.1532
      2 N           6.2242   -5.1465   26.2181 N.am    1  UNL1       -0.2945
      3 C           6.9918   -4.3051   25.2421 C.2     1  UNL1        0.2413
      4 O           8.4389   -3.9989   25.4915 O.2     1  UNL1       -0.2733
      5 H           5.2744   -5.3475   26.0544 H       1  UNL1        0.1503
      6 C           6.9037   -5.6818   27.4436 C.3     1  UNL1        0.1365
      7 C           7.4182   -5.7574   28.8505 C.3     1  UNL1        0.0353
      8 C           6.6646   -4.5443   28.3918 C.3     1  UNL1        0.0353
      9 N           7.8537   -8.3285   26.3985 N.1     1  UNL1       -0.1943
     10 C           7.3787   -7.0051   26.9211 C.1     1  UNL1        0.0896
     11 N           5.0739   -2.9341   24.1503 N.am    1  UNL1       -0.2932
     12 C           5.1777   -1.4378   24.1736 C.2     1  UNL1        0.2673
     13 O           6.5199   -0.7773   24.0633 O.2     1  UNL1       -0.2684
     14 H           4.1929   -3.3676   24.2227 H       1  UNL1        0.1502
     15 C           3.9392   -0.6021   24.3073 C.ar    1  UNL1        0.1767
     16 C           3.2966   -0.1777   25.5945 C.ar    1  UNL1        0.1476
     17 N           2.0862    0.6426   25.2601 N.ar    1  UNL1       -0.1445
     18 N           1.9807    0.7253   23.7661 N.ar    1  UNL1       -0.1462
     19 N           3.1259   -0.0440   23.1772 N.ar    1  UNL1       -0.1417
     20 C           0.9168    1.4500   22.9960 C.ar    1  UNL1        0.1221
     21 C           0.2006    2.6119   23.6181 C.ar    1  UNL1        0.0264
     22 C          -0.8633    3.3366   22.8481 C.ar    1  UNL1        0.0513
     23 C          -1.2110    2.8993   21.4560 C.ar    1  UNL1        0.2224
     24 F          -2.2750    3.6240   20.6859 F       1  UNL1       -0.1832
     25 N          -0.4948    1.7373   20.8340 N.ar    1  UNL1       -0.2148
     26 C           0.5691    1.0127   21.6040 C.ar    1  UNL1        0.1221
     27 C           6.8713   -4.0702   22.6575 C.3     1  UNL1        0.0553
     28 C           6.1930   -3.5331   21.4320 C.ar    1  UNL1       -0.0190
     29 C           6.7088   -2.2877   20.7743 C.ar    1  UNL1       -0.0010
     30 C           6.0305   -1.7507   19.5489 C.ar    1  UNL1        0.0377
     31 C           4.8364   -2.4591   18.9813 C.ar    1  UNL1        0.1572
     32 C           4.3206   -3.7046   19.6391 C.ar    1  UNL1        0.0915
     33 CL          3.1265   -4.4131   19.0715 Cl      1  UNL1       -0.0791
     34 C           4.9989   -4.2416   20.8644 C.ar    1  UNL1        0.0103
     35 O           4.1581   -1.9221   17.7559 O.3     1  UNL1       -0.4036
     36 C           3.5717   -0.5416   17.7675 C.3     1  UNL1        0.5753
     37 F           2.9852    0.8390   17.7790 F       1  UNL1       -0.1328
     38 F           4.4174   -0.1724   16.5850 F       1  UNL1       -0.1328
     39 F           2.7259   -0.9108   18.9500 F       1  UNL1       -0.1328
@<TRIPOS>BOND
     1     9    10    3
     2    10     6    1
     3     6     2    1
     4     2     3   am
     5     3     4    2
     6     3     1    1
     7     1    27    1
     8    27    28    1
     9    28    29   ar
    10    29    30   ar
    11    30    31   ar
    12    31    35    1
    13    35    36    1
    14    36    37    1
    15    36    38    1
    16    36    39    1
    17    31    32   ar
    18    32    33    1
    19    32    34   ar
    20     1    11    1
    21    11    12   am
    22    12    13    2
    23    12    15    1
    24    15    16   ar
    25    16    17   ar
    26    17    18   ar
    27    18    20    1
    28    20    21   ar
    29    21    22   ar
    30    22    23   ar
    31    23    24    1
    32    23    25   ar
    33    25    26   ar
    34    18    19   ar
    35     6     7    1
    36     7     8    1
    37     8     6    1
    38    34    28   ar
    39    19    15   ar
    40    26    20   ar
    41     2     5    1
    42    11    14    1
@<TRIPOS>MOLECULE
*****
 39 42 0 0 0
SMALL
GASTEIGER

@<TRIPOS>ATOM
      1 C           2.5991    0.8064   24.9192 C.3     1  UNL1        0.1532
      2 N           2.4790   -0.5120   27.1547 N.am    1  UNL1       -0.2945
      3 C           2.7209    0.7696   26.4138 C.2     1  UNL1        0.2413
      4 O           3.0845    2.0145   27.1675 O.2     1  UNL1       -0.2733
      5 H           2.2403   -1.3290   26.6601 H       1  UNL1        0.1503
      6 C           2.6008   -0.5487   28.6493 C.3     1  UNL1        0.1365
      7 C           3.2199   -0.6645   30.0106 C.3     1  UNL1        0.0353
      8 C           4.0752   -0.7892   28.7846 C.3     1  UNL1        0.0353
      9 N          -0.2634   -0.0930   29.4168 N.1     1  UNL1       -0.1943
     10 C           1.1687   -0.3208   29.0330 C.1     1  UNL1        0.0896
     11 N           1.2767    1.1146   24.2818 N.am    1  UNL1       -0.2932
     12 C           0.9179    2.5320   23.9465 C.2     1  UNL1        0.2673
     13 O           1.8816    3.6411   24.2485 O.2     1  UNL1       -0.2684
     14 H           0.6441    0.3867   24.0836 H       1  UNL1        0.1502
     15 C          -0.4045    2.8402   23.3091 C.ar    1  UNL1        0.1767
     16 C          -0.6949    2.8422   21.8375 C.ar    1  UNL1        0.1476
     17 N          -2.1386    3.2038   21.6504 N.ar    1  UNL1       -0.1445
     18 N          -2.7404    3.4253   23.0063 N.ar    1  UNL1       -0.1462
     19 N          -1.6688    3.2006   24.0316 N.ar    1  UNL1       -0.1417
     20 C          -4.1641    3.8049   23.2877 C.ar    1  UNL1        0.1221
     21 C          -5.1818    3.7684   22.1864 C.ar    1  UNL1        0.0264
     22 C          -6.6054    4.1480   22.4678 C.ar    1  UNL1        0.0513
     23 C          -7.0113    4.5640   23.8506 C.ar    1  UNL1        0.2224
     24 F          -8.4350    4.9436   24.1321 F       1  UNL1       -0.1832
     25 N          -5.9936    4.6005   24.9520 N.ar    1  UNL1       -0.2148
     26 C          -4.5700    4.2209   24.6705 C.ar    1  UNL1        0.1221
     27 C           3.7996    0.5349   24.0620 C.3     1  UNL1        0.0553
     28 C           3.6681   -0.3190   22.8357 C.ar    1  UNL1       -0.0190
     29 C           4.0617   -1.7657   22.8834 C.ar    1  UNL1       -0.0010
     30 C           3.9302   -2.6195   21.6573 C.ar    1  UNL1        0.0377
     31 C           3.4050   -2.0267   20.3834 C.ar    1  UNL1        0.1572
     32 C           3.0113   -0.5801   20.3357 C.ar    1  UNL1        0.0915
     33 CL          2.4861    0.0126   19.0618 Cl      1  UNL1       -0.0791
     34 C           3.1429    0.2737   21.5619 C.ar    1  UNL1        0.0103
     35 O           3.2734   -2.8807   19.1571 O.3     1  UNL1       -0.4036
     36 C           4.0774   -4.1406   19.0308 C.3     1  UNL1        0.5753
     37 F           4.8814   -5.4007   18.9046 F       1  UNL1       -0.1328
     38 F           2.8631   -4.9502   19.3772 F       1  UNL1       -0.1328
     39 F           5.2917   -3.3311   18.6845 F       1  UNL1       -0.1328
@<TRIPOS>BOND
     1     9    10    3
     2    10     6    1
     3     6     2    1
     4     2     3   am
     5     3     4    2
     6     3     1    1
     7     1    27    1
     8    27    28    1
     9    28    29   ar
    10    29    30   ar
    11    30    31   ar
    12    31    35    1
    13    35    36    1
    14    36    37    1
    15    36    38    1
    16    36    39    1
    17    31    32   ar
    18    32    33    1
    19    32    34   ar
    20     1    11    1
    21    11    12   am
    22    12    13    2
    23    12    15    1
    24    15    16   ar
    25    16    17   ar
    26    17    18   ar
    27    18    20    1
    28    20    21   ar
    29    21    22   ar
    30    22    23   ar
    31    23    24    1
    32    23    25   ar
    33    25    26   ar
    34    18    19   ar
    35     6     7    1
    36     7     8    1
    37     8     6    1
    38    34    28   ar
    39    19    15   ar
    40    26    20   ar
    41     2     5    1
    42    11    14    1
@<TRIPOS>MOLECULE
*****
 39 42 0 0 0
SMALL
GASTEIGER

@<TRIPOS>ATOM
      1 C           0.7215    2.7266   19.1296 C.3     1  UNL1        0.1532
      2 N           2.1045    2.9934   21.3128 N.am    1  UNL1       -0.2945
      3 C           1.8678    3.3449   19.8740 C.2     1  UNL1        0.2413
      4 O           2.7772    4.3146   19.1794 O.2     1  UNL1       -0.2733
      5 H           1.5075    2.3569   21.7687 H       1  UNL1        0.1503
      6 C           3.2507    3.6116   22.0571 C.3     1  UNL1        0.1365
      7 C           4.6306    3.8044   22.6125 C.3     1  UNL1        0.0353
      8 C           4.3218    2.6011   21.7718 C.3     1  UNL1        0.0353
      9 N           1.9045    6.0622   23.1446 N.1     1  UNL1       -0.1943
     10 C           2.5776    4.8369   22.6008 C.1     1  UNL1        0.0896
     11 N          -0.6644    3.2754   19.2967 N.am    1  UNL1       -0.2932
     12 C          -1.4470    2.9707   20.5396 C.2     1  UNL1        0.2673
     13 O          -0.8436    2.1173   21.6154 O.2     1  UNL1       -0.2684
     14 H          -1.0605    3.8356   18.5905 H       1  UNL1        0.1502
     15 C          -2.8330    3.5196   20.7066 C.ar    1  UNL1        0.1767
     16 C          -3.7946    3.8376   19.6003 C.ar    1  UNL1        0.1476
     17 N          -5.0566    4.3613   20.2192 N.ar    1  UNL1       -0.1445
     18 N          -4.8750    4.3670   21.7082 N.ar    1  UNL1       -0.1462
     19 N          -3.5007    3.8467   22.0095 N.ar    1  UNL1       -0.1417
     20 C          -5.8894    4.8143   22.7185 C.ar    1  UNL1        0.1221
     21 C          -5.5134    5.8232   23.7629 C.ar    1  UNL1        0.0264
     22 C          -6.5279    6.2705   24.7732 C.ar    1  UNL1        0.0513
     23 C          -7.9183    5.7089   24.7391 C.ar    1  UNL1        0.2224
     24 F          -8.9329    6.1562   25.7495 F       1  UNL1       -0.1832
     25 N          -8.2943    4.6999   23.6948 N.ar    1  UNL1       -0.2148
     26 C          -7.2799    4.2526   22.6844 C.ar    1  UNL1        0.1221
     27 C           0.9613    1.5596   18.2183 C.3     1  UNL1        0.0553
     28 C           1.8321    0.4238   18.6674 C.ar    1  UNL1       -0.0190
     29 C           1.4456   -0.3884   19.8678 C.ar    1  UNL1       -0.0010
     30 C           2.3165   -1.5242   20.3169 C.ar    1  UNL1        0.0377
     31 C           3.5738   -1.8477   19.5655 C.ar    1  UNL1        0.1572
     32 C           3.9603   -1.0355   18.3652 C.ar    1  UNL1        0.0915
     33 CL          5.2176   -1.3591   17.6138 Cl      1  UNL1       -0.0791
     34 C           3.0894    0.1002   17.9161 C.ar    1  UNL1        0.0103
     35 O           4.4446   -2.9835   20.0146 O.3     1  UNL1       -0.4036
     36 C           3.8762   -4.3675   20.1219 C.3     1  UNL1        0.5753
     37 F           3.3077   -5.7515   20.2292 F       1  UNL1       -0.1328
     38 F           4.1855   -4.3808   21.5896 F       1  UNL1       -0.1328
     39 F           3.5669   -4.3542   18.6542 F       1  UNL1       -0.1328
@<TRIPOS>BOND
     1     9    10    3
     2    10     6    1
     3     6     2    1
     4     2     3   am
     5     3     4    2
     6     3     1    1
     7     1    27    1
     8    27    28    1
     9    28    29   ar
    10    29    30   ar
    11    30    31   ar
    12    31    35    1
    13    35    36    1
    14    36    37    1
    15    36    38    1
    16    36    39    1
    17    31    32   ar
    18    32    33    1
    19    32    34   ar
    20     1    11    1
    21    11    12   am
    22    12    13    2
    23    12    15    1
    24    15    16   ar
    25    16    17   ar
    26    17    18   ar
    27    18    20    1
    28    20    21   ar
    29    21    22   ar
    30    22    23   ar
    31    23    24    1
    32    23    25   ar
    33    25    26   ar
    34    18    19   ar
    35     6     7    1
    36     7     8    1
    37     8     6    1
    38    34    28   ar
    39    19    15   ar
    40    26    20   ar
    41     2     5    1
    42    11    14    1
