@<TRIPOS>MOLECULE
*****
 34 37 0 0 0
SMALL
GASTEIGER

@<TRIPOS>ATOM
      1 C          -9.2316  -18.4539   21.1603 C.ar    1  UNL1        0.0949
      2 C          -9.9868  -18.8564   19.9283 C.ar    1  UNL1        0.1454
      3 F         -11.3766  -18.3409   19.6986 F       1  UNL1       -0.2040
      4 C          -9.3521  -19.7743   18.9261 C.ar    1  UNL1        0.0312
      5 C          -7.9623  -20.2898   19.1558 C.ar    1  UNL1        0.0204
      6 C          -7.2071  -19.8873   20.3878 C.ar    1  UNL1        0.0924
      7 C          -7.8418  -18.9694   21.3900 C.ar    1  UNL1        0.1598
      8 F          -7.0868  -18.5668   22.6220 F       1  UNL1       -0.2026
      9 C          -9.8663  -17.5359   22.1626 C.2     1  UNL1        0.2007
     10 O         -11.3546  -17.5431   22.3491 O.2     1  UNL1       -0.2866
     11 C          -9.4032  -17.5655   25.5174 C.2     1  UNL1        0.1360
     12 C          -9.0364  -17.3670   26.9582 C.2     1  UNL1        0.0837
     13 C          -8.1009  -16.2613   27.3486 C.2     1  UNL1        0.2385
     14 N          -7.5322  -15.3541   26.2981 N.2     1  UNL1       -0.0338
     15 C          -7.8990  -15.5526   24.8573 C.2     1  UNL1        0.3626
     16 N          -7.4991  -14.8218   23.6099 N.2     1  UNL1       -0.0341
     17 C          -8.1873  -15.4758   22.4486 C.2     1  UNL1        0.2355
     18 C          -9.0127  -16.6108   22.9783 C.2     1  UNL1        0.0823
     19 C          -8.8345  -16.6583   24.4669 C.3     1  UNL1        0.1973
     20 C          -9.7938  -20.0183   24.7551 C.3     1  UNL1        0.2520
     21 O         -10.3387  -18.6711   25.1271 O.2     1  UNL1       -0.4746
     22 N          -5.8173  -20.4028   20.6175 N.pl3   1  UNL1       -0.2127
     23 H          -5.6596  -21.3705   20.7062 H       1  UNL1        0.1738
     24 S          -4.6678  -19.4438   20.7119 S.O2    1  UNL1        0.0780
     25 O          -4.0457  -20.2946   21.7792 O.2     1  UNL1       -0.1498
     26 O          -5.2900  -18.5929   19.6447 O.2     1  UNL1       -0.1498
     27 C          -3.5184  -18.4847   20.8063 C.ar    1  UNL1        0.1797
     28 C          -3.3931  -17.5789   21.9954 C.ar    1  UNL1        0.1611
     29 F          -4.4172  -17.6322   23.0900 F       1  UNL1       -0.2027
     30 C          -2.2436  -16.6198   22.0899 C.ar    1  UNL1        0.0312
     31 C          -1.2194  -16.5665   20.9953 C.ar    1  UNL1        0.0047
     32 C          -1.3447  -17.4724   19.8062 C.ar    1  UNL1        0.0312
     33 C          -2.4942  -18.4314   19.7117 C.ar    1  UNL1        0.1611
     34 F          -2.6194  -19.3372   18.5226 F       1  UNL1       -0.2027
@<TRIPOS>BOND
     1    20    21    1
     2    21    11    1
     3    11    12    2
     4    12    13    1
     5    13    14    2
     6    14    15    1
     7    15    16    2
     8    16    17    1
     9    17    18    2
    10    18     9    1
    11     9    10    2
    12     9     1    1
    13     1     2   ar
    14     2     3    1
    15     2     4   ar
    16     4     5   ar
    17     5     6   ar
    18     6    22    1
    19    22    24    1
    20    24    25    2
    21    24    26    2
    22    24    27    1
    23    27    28   ar
    24    28    29    1
    25    28    30   ar
    26    30    31   ar
    27    31    32   ar
    28    32    33   ar
    29    33    34    1
    30     6     7   ar
    31     7     8    1
    32    18    19    1
    33    19    11    1
    34    19    15    1
    35     7     1   ar
    36    33    27   ar
    37    22    23    1
@<TRIPOS>MOLECULE
*****
 34 37 0 0 0
SMALL
GASTEIGER

@<TRIPOS>ATOM
      1 C          -8.8825  -18.5785   20.9805 C.ar    1  UNL1        0.0949
      2 C          -9.6602  -19.0973   19.8074 C.ar    1  UNL1        0.1454
      3 F         -11.0687  -18.6354   19.5779 F       1  UNL1       -0.2040
      4 C          -9.0293  -20.0780   18.8639 C.ar    1  UNL1        0.0312
      5 C          -7.6208  -20.5399   19.0934 C.ar    1  UNL1        0.0204
      6 C          -6.8431  -20.0211   20.2665 C.ar    1  UNL1        0.0924
      7 C          -7.4740  -19.0404   21.2100 C.ar    1  UNL1        0.1598
      8 F          -6.6963  -18.5216   22.3831 F       1  UNL1       -0.2026
      9 C          -9.5134  -17.5978   21.9241 C.2     1  UNL1        0.2007
     10 O          -9.9270  -16.2428   21.4314 O.2     1  UNL1       -0.2866
     11 C          -8.1534  -16.1519   24.6682 C.2     1  UNL1        0.1360
     12 C          -7.6934  -15.6954   26.0210 C.2     1  UNL1        0.0837
     13 C          -8.1869  -16.3908   27.2551 C.2     1  UNL1        0.2385
     14 N          -9.1403  -17.5426   27.1365 N.2     1  UNL1       -0.0338
     15 C          -9.6003  -17.9992   25.7837 C.2     1  UNL1        0.3626
     16 N         -10.5289  -19.0972   25.3571 N.2     1  UNL1       -0.0341
     17 C         -10.6094  -19.0805   23.8594 C.2     1  UNL1        0.2355
     18 C          -9.7305  -17.9722   23.3603 C.2     1  UNL1        0.0823
     19 C          -9.1068  -17.3038   24.5496 C.3     1  UNL1        0.1973
     20 C          -6.1974  -15.1666   23.2708 C.3     1  UNL1        0.2520
     21 O          -7.6600  -15.4566   23.4341 O.2     1  UNL1       -0.4746
     22 N          -5.4345  -20.4830   20.4960 N.pl3   1  UNL1       -0.2127
     23 H          -5.2397  -21.4441   20.5831 H       1  UNL1        0.1738
     24 S          -4.3229  -19.4806   20.5929 S.O2    1  UNL1        0.0780
     25 O          -5.0564  -18.5759   19.6476 O.2     1  UNL1       -0.1498
     26 O          -3.5895  -20.3853   21.5382 O.2     1  UNL1       -0.1498
     27 C          -3.2113  -18.4782   20.6898 C.ar    1  UNL1        0.1797
     28 C          -2.2348  -18.3296   19.5609 C.ar    1  UNL1        0.1611
     29 F          -2.3701  -19.1834   18.3350 F       1  UNL1       -0.2027
     30 C          -1.1231  -17.3273   19.6577 C.ar    1  UNL1        0.0312
     31 C          -0.9878  -16.4735   20.8836 C.ar    1  UNL1        0.0047
     32 C          -1.9642  -16.6221   22.0125 C.ar    1  UNL1        0.0312
     33 C          -3.0759  -17.6244   21.9157 C.ar    1  UNL1        0.1611
     34 F          -4.0523  -17.7730   23.0447 F       1  UNL1       -0.2027
@<TRIPOS>BOND
     1    20    21    1
     2    21    11    1
     3    11    12    2
     4    12    13    1
     5    13    14    2
     6    14    15    1
     7    15    16    2
     8    16    17    1
     9    17    18    2
    10    18     9    1
    11     9    10    2
    12     9     1    1
    13     1     2   ar
    14     2     3    1
    15     2     4   ar
    16     4     5   ar
    17     5     6   ar
    18     6    22    1
    19    22    24    1
    20    24    25    2
    21    24    26    2
    22    24    27    1
    23    27    28   ar
    24    28    29    1
    25    28    30   ar
    26    30    31   ar
    27    31    32   ar
    28    32    33   ar
    29    33    34    1
    30     6     7   ar
    31     7     8    1
    32    18    19    1
    33    19    11    1
    34    19    15    1
    35     7     1   ar
    36    33    27   ar
    37    22    23    1
@<TRIPOS>MOLECULE
*****
 34 37 0 0 0
SMALL
GASTEIGER

@<TRIPOS>ATOM
      1 C          -8.8854  -18.5938   20.9755 C.ar    1  UNL1        0.0949
      2 C          -9.6570  -19.1093   19.7970 C.ar    1  UNL1        0.1454
      3 F         -11.0653  -18.6490   19.5630 F       1  UNL1       -0.2040
      4 C          -9.0202  -20.0850   18.8524 C.ar    1  UNL1        0.0312
      5 C          -7.6118  -20.5454   19.0863 C.ar    1  UNL1        0.0204
      6 C          -6.8403  -20.0299   20.2648 C.ar    1  UNL1        0.0924
      7 C          -7.4771  -19.0541   21.2094 C.ar    1  UNL1        0.1598
      8 F          -6.7056  -18.5386   22.3881 F       1  UNL1       -0.2026
      9 C          -9.5223  -17.6180   21.9202 C.2     1  UNL1        0.2007
     10 O          -9.9458  -16.2657   21.4286 O.2     1  UNL1       -0.2866
     11 C          -8.1838  -16.1530   24.6648 C.2     1  UNL1        0.1360
     12 C          -7.7310  -15.6898   26.0176 C.2     1  UNL1        0.0837
     13 C          -8.2160  -16.3912   27.2517 C.2     1  UNL1        0.2385
     14 N          -9.1539  -17.5557   27.1328 N.2     1  UNL1       -0.0338
     15 C          -9.6067  -18.0189   25.7799 C.2     1  UNL1        0.3626
     16 N         -10.5203  -19.1294   25.3531 N.2     1  UNL1       -0.0341
     17 C         -10.5999  -19.1144   23.8553 C.2     1  UNL1        0.2355
     18 C          -9.7355  -17.9946   23.3564 C.2     1  UNL1        0.0823
     19 C          -9.1217  -17.3176   24.5459 C.3     1  UNL1        0.1973
     20 C          -6.2312  -15.2149   23.2305 C.3     1  UNL1        0.2520
     21 O          -7.6987  -15.4517   23.4307 O.2     1  UNL1       -0.4746
     22 N          -5.4320  -20.4902   20.4988 N.pl3   1  UNL1       -0.2127
     23 H          -5.2371  -21.4507   20.5918 H       1  UNL1        0.1738
     24 S          -4.3206  -19.4870   20.5909 S.O2    1  UNL1        0.0780
     25 O          -3.5726  -20.4007   21.5160 O.2     1  UNL1       -0.1498
     26 O          -5.0686  -18.5734   19.6658 O.2     1  UNL1       -0.1498
     27 C          -3.2093  -18.4838   20.6830 C.ar    1  UNL1        0.1797
     28 C          -3.0674  -17.6322   21.9096 C.ar    1  UNL1        0.1611
     29 F          -4.0368  -17.7839   23.0442 F       1  UNL1       -0.2027
     30 C          -1.9561  -16.6290   22.0018 C.ar    1  UNL1        0.0312
     31 C          -0.9866  -16.4773   20.8673 C.ar    1  UNL1        0.0047
     32 C          -1.1286  -17.3289   19.6406 C.ar    1  UNL1        0.0312
     33 C          -2.2399  -18.3321   19.5484 C.ar    1  UNL1        0.1611
     34 F          -2.3817  -19.1837   18.3217 F       1  UNL1       -0.2027
@<TRIPOS>BOND
     1    20    21    1
     2    21    11    1
     3    11    12    2
     4    12    13    1
     5    13    14    2
     6    14    15    1
     7    15    16    2
     8    16    17    1
     9    17    18    2
    10    18     9    1
    11     9    10    2
    12     9     1    1
    13     1     2   ar
    14     2     3    1
    15     2     4   ar
    16     4     5   ar
    17     5     6   ar
    18     6    22    1
    19    22    24    1
    20    24    25    2
    21    24    26    2
    22    24    27    1
    23    27    28   ar
    24    28    29    1
    25    28    30   ar
    26    30    31   ar
    27    31    32   ar
    28    32    33   ar
    29    33    34    1
    30     6     7   ar
    31     7     8    1
    32    18    19    1
    33    19    11    1
    34    19    15    1
    35     7     1   ar
    36    33    27   ar
    37    22    23    1
@<TRIPOS>MOLECULE
*****
 34 37 0 0 0
SMALL
GASTEIGER

@<TRIPOS>ATOM
      1 C          -8.3465  -17.8873   21.3642 C.ar    1  UNL1        0.0949
      2 C          -8.7355  -19.0487   20.4982 C.ar    1  UNL1        0.1454
      3 F         -10.0484  -19.0368   19.7729 F       1  UNL1       -0.2040
      4 C          -7.8115  -20.2219   20.3576 C.ar    1  UNL1        0.0312
      5 C          -6.4986  -20.2337   21.0829 C.ar    1  UNL1        0.0204
      6 C          -6.1096  -19.0724   21.9489 C.ar    1  UNL1        0.0924
      7 C          -7.0336  -17.8992   22.0895 C.ar    1  UNL1        0.1598
      8 F          -6.6447  -16.7378   22.9555 F       1  UNL1       -0.2026
      9 C          -9.2705  -16.7140   21.5048 C.2     1  UNL1        0.2007
     10 O          -8.7141  -15.3216   21.5426 O.2     1  UNL1       -0.2866
     11 C         -10.9856  -18.0843   24.0838 C.2     1  UNL1        0.1360
     12 C         -11.9630  -18.6471   25.0727 C.2     1  UNL1        0.0837
     13 C         -13.4275  -18.6710   24.7492 C.2     1  UNL1        0.2385
     14 N         -13.9146  -18.1322   23.4368 N.2     1  UNL1       -0.0338
     15 C         -12.9371  -17.5694   22.4479 C.2     1  UNL1        0.3626
     16 N         -13.1204  -16.9720   21.0843 N.2     1  UNL1       -0.0341
     17 C         -11.7692  -16.5788   20.5650 C.2     1  UNL1        0.2355
     18 C         -10.7508  -16.9333   21.6077 C.2     1  UNL1        0.0823
     19 C         -11.4726  -17.5455   22.7714 C.3     1  UNL1        0.1973
     20 C          -8.9370  -16.8987   25.1551 C.3     1  UNL1        0.2520
     21 O          -9.5211  -18.0604   24.4073 O.2     1  UNL1       -0.4746
     22 N          -4.7967  -19.0843   22.6742 N.pl3   1  UNL1       -0.2127
     23 H          -4.7446  -19.4360   23.5922 H       1  UNL1        0.1738
     24 S          -3.5631  -18.5602   22.0008 S.O2    1  UNL1        0.0780
     25 O          -4.2377  -18.6860   20.6670 O.2     1  UNL1       -0.1498
     26 O          -2.8885  -18.4343   23.3346 O.2     1  UNL1       -0.1498
     27 C          -2.3294  -18.0360   21.3274 C.ar    1  UNL1        0.1797
     28 C          -1.9802  -16.5808   21.4293 C.ar    1  UNL1        0.1611
     29 F          -2.8646  -15.6498   22.2045 F       1  UNL1       -0.2027
     30 C          -0.7465  -16.0566   20.7560 C.ar    1  UNL1        0.0312
     31 C           0.1379  -16.9876   19.9808 C.ar    1  UNL1        0.0047
     32 C          -0.2114  -18.4429   19.8790 C.ar    1  UNL1        0.0312
     33 C          -1.4450  -18.9671   20.5523 C.ar    1  UNL1        0.1611
     34 F          -1.7942  -20.4223   20.4504 F       1  UNL1       -0.2027
@<TRIPOS>BOND
     1    20    21    1
     2    21    11    1
     3    11    12    2
     4    12    13    1
     5    13    14    2
     6    14    15    1
     7    15    16    2
     8    16    17    1
     9    17    18    2
    10    18     9    1
    11     9    10    2
    12     9     1    1
    13     1     2   ar
    14     2     3    1
    15     2     4   ar
    16     4     5   ar
    17     5     6   ar
    18     6    22    1
    19    22    24    1
    20    24    25    2
    21    24    26    2
    22    24    27    1
    23    27    28   ar
    24    28    29    1
    25    28    30   ar
    26    30    31   ar
    27    31    32   ar
    28    32    33   ar
    29    33    34    1
    30     6     7   ar
    31     7     8    1
    32    18    19    1
    33    19    11    1
    34    19    15    1
    35     7     1   ar
    36    33    27   ar
    37    22    23    1
@<TRIPOS>MOLECULE
*****
 34 37 0 0 0
SMALL
GASTEIGER

@<TRIPOS>ATOM
      1 C          -6.6141  -20.0810   20.4127 C.ar    1  UNL1        0.0949
      2 C          -6.7901  -21.1804   19.4075 C.ar    1  UNL1        0.1454
      3 F          -5.6924  -22.1788   19.1882 F       1  UNL1       -0.2040
      4 C          -8.0638  -21.2813   18.6217 C.ar    1  UNL1        0.0312
      5 C          -9.1615  -20.2828   18.8411 C.ar    1  UNL1        0.0204
      6 C          -8.9855  -19.1834   19.8463 C.ar    1  UNL1        0.0924
      7 C          -7.7118  -19.0826   20.6320 C.ar    1  UNL1        0.1598
      8 F          -7.5358  -17.9832   21.6373 F       1  UNL1       -0.2026
      9 C          -5.3404  -19.9801   21.1986 C.2     1  UNL1        0.2007
     10 O          -5.3096  -20.4095   22.6354 O.2     1  UNL1       -0.2866
     11 C          -3.4772  -17.3185   22.1551 C.2     1  UNL1        0.1360
     12 C          -2.4981  -16.2018   22.3658 C.2     1  UNL1        0.0837
     13 C          -1.3417  -16.0310   21.4259 C.2     1  UNL1        0.2385
     14 N          -1.1643  -16.9769   20.2753 N.2     1  UNL1       -0.0338
     15 C          -2.1434  -18.0935   20.0646 C.2     1  UNL1        0.3626
     16 N          -2.2263  -19.1733   19.0267 N.2     1  UNL1       -0.0341
     17 C          -3.4340  -20.0114   19.3251 C.2     1  UNL1        0.2355
     18 C          -4.0975  -19.4496   20.5475 C.2     1  UNL1        0.0823
     19 C          -3.2999  -18.2643   21.0045 C.3     1  UNL1        0.1973
     20 C          -5.1342  -16.3191   23.8888 C.3     1  UNL1        0.2520
     21 O          -4.6337  -17.4893   23.0950 O.2     1  UNL1       -0.4746
     22 N         -10.0832  -18.1850   20.0656 N.pl3   1  UNL1       -0.2127
     23 H         -10.2568  -17.4883   19.3920 H       1  UNL1        0.1738
     24 S         -10.9165  -18.2481   21.3112 S.O2    1  UNL1        0.0780
     25 O         -11.3866  -19.6198   20.9272 O.2     1  UNL1       -0.1498
     26 O         -10.4464  -16.8764   21.6952 O.2     1  UNL1       -0.1498
     27 C         -11.7498  -18.3111   22.5569 C.ar    1  UNL1        0.1797
     28 C         -13.1658  -17.8164   22.5378 C.ar    1  UNL1        0.1611
     29 F         -13.7484  -17.2587   21.2731 F       1  UNL1       -0.2027
     30 C         -13.9992  -17.8794   23.7834 C.ar    1  UNL1        0.0312
     31 C         -13.4166  -18.4371   25.0481 C.ar    1  UNL1        0.0047
     32 C         -12.0006  -18.9318   25.0672 C.ar    1  UNL1        0.0312
     33 C         -11.1672  -18.8688   23.8216 C.ar    1  UNL1        0.1611
     34 F          -9.7513  -19.3636   23.8407 F       1  UNL1       -0.2027
@<TRIPOS>BOND
     1    20    21    1
     2    21    11    1
     3    11    12    2
     4    12    13    1
     5    13    14    2
     6    14    15    1
     7    15    16    2
     8    16    17    1
     9    17    18    2
    10    18     9    1
    11     9    10    2
    12     9     1    1
    13     1     2   ar
    14     2     3    1
    15     2     4   ar
    16     4     5   ar
    17     5     6   ar
    18     6    22    1
    19    22    24    1
    20    24    25    2
    21    24    26    2
    22    24    27    1
    23    27    28   ar
    24    28    29    1
    25    28    30   ar
    26    30    31   ar
    27    31    32   ar
    28    32    33   ar
    29    33    34    1
    30     6     7   ar
    31     7     8    1
    32    18    19    1
    33    19    11    1
    34    19    15    1
    35     7     1   ar
    36    33    27   ar
    37    22    23    1
@<TRIPOS>MOLECULE
*****
 34 37 0 0 0
SMALL
GASTEIGER

@<TRIPOS>ATOM
      1 C          -6.9601  -19.2219   21.3715 C.ar    1  UNL1        0.0949
      2 C          -5.8951  -20.1583   20.8826 C.ar    1  UNL1        0.1454
      3 F          -6.2752  -21.4014   20.1343 F       1  UNL1       -0.2040
      4 C          -4.4500  -19.8514   21.1422 C.ar    1  UNL1        0.0312
      5 C          -4.0699  -18.6082   21.8905 C.ar    1  UNL1        0.0204
      6 C          -5.1349  -17.6719   22.3794 C.ar    1  UNL1        0.0924
      7 C          -6.5800  -17.9788   22.1198 C.ar    1  UNL1        0.1598
      8 F          -7.6452  -17.0425   22.6086 F       1  UNL1       -0.2026
      9 C          -8.4054  -19.5288   21.1119 C.2     1  UNL1        0.2007
     10 O          -8.8817  -19.7649   19.7094 O.2     1  UNL1       -0.2866
     11 C         -11.2484  -17.7363   21.5293 C.2     1  UNL1        0.1360
     12 C         -12.5323  -17.0812   21.9445 C.2     1  UNL1        0.0837
     13 C         -13.1932  -17.4751   23.2322 C.2     1  UNL1        0.2385
     14 N         -12.5702  -18.5242   24.1046 N.2     1  UNL1       -0.0338
     15 C         -11.2863  -19.1793   23.6894 C.2     1  UNL1        0.3626
     16 N         -10.4434  -20.2369   24.3384 N.2     1  UNL1       -0.0341
     17 C          -9.2616  -20.4965   23.4519 C.2     1  UNL1        0.2355
     18 C          -9.3741  -19.5994   22.2550 C.2     1  UNL1        0.0823
     19 C         -10.6254  -18.7854   22.4018 C.3     1  UNL1        0.1973
     20 C         -11.0167  -16.0938   19.5297 C.3     1  UNL1        0.2520
     21 O         -10.5876  -17.3423   20.2417 O.2     1  UNL1       -0.4746
     22 N          -4.7548  -16.4287   23.1277 N.pl3   1  UNL1       -0.2127
     23 H          -3.9799  -15.8961   22.8361 H       1  UNL1        0.1738
     24 S          -5.5554  -15.9970   24.3205 S.O2    1  UNL1        0.0780
     25 O          -4.9332  -17.0925   25.1346 O.2     1  UNL1       -0.1498
     26 O          -6.1775  -14.9015   23.5064 O.2     1  UNL1       -0.1498
     27 C          -6.3560  -15.5653   25.5132 C.ar    1  UNL1        0.1797
     28 C          -7.7790  -16.0151   25.6641 C.ar    1  UNL1        0.1611
     29 F          -8.4013  -16.8968   24.6222 F       1  UNL1       -0.2027
     30 C          -8.5797  -15.5834   26.8567 C.ar    1  UNL1        0.0312
     31 C          -7.9574  -14.7018   27.8986 C.ar    1  UNL1        0.0047
     32 C          -6.5344  -14.2519   27.7477 C.ar    1  UNL1        0.0312
     33 C          -5.7337  -14.6836   26.5550 C.ar    1  UNL1        0.1611
     34 F          -4.3108  -14.2337   26.4042 F       1  UNL1       -0.2027
@<TRIPOS>BOND
     1    20    21    1
     2    21    11    1
     3    11    12    2
     4    12    13    1
     5    13    14    2
     6    14    15    1
     7    15    16    2
     8    16    17    1
     9    17    18    2
    10    18     9    1
    11     9    10    2
    12     9     1    1
    13     1     2   ar
    14     2     3    1
    15     2     4   ar
    16     4     5   ar
    17     5     6   ar
    18     6    22    1
    19    22    24    1
    20    24    25    2
    21    24    26    2
    22    24    27    1
    23    27    28   ar
    24    28    29    1
    25    28    30   ar
    26    30    31   ar
    27    31    32   ar
    28    32    33   ar
    29    33    34    1
    30     6     7   ar
    31     7     8    1
    32    18    19    1
    33    19    11    1
    34    19    15    1
    35     7     1   ar
    36    33    27   ar
    37    22    23    1
@<TRIPOS>MOLECULE
*****
 34 37 0 0 0
SMALL
GASTEIGER

@<TRIPOS>ATOM
      1 C          -5.0063  -16.5649   24.4797 C.ar    1  UNL1        0.0949
      2 C          -5.0229  -15.9455   25.8457 C.ar    1  UNL1        0.1454
      3 F          -3.9103  -16.2285   26.8111 F       1  UNL1       -0.2040
      4 C          -6.1521  -15.0431   26.2463 C.ar    1  UNL1        0.0312
      5 C          -7.2647  -14.7601   25.2809 C.ar    1  UNL1        0.0204
      6 C          -7.2481  -15.3795   23.9148 C.ar    1  UNL1        0.0924
      7 C          -6.1189  -16.2819   23.5143 C.ar    1  UNL1        0.1598
      8 F          -6.1022  -16.9014   22.1482 F       1  UNL1       -0.2026
      9 C          -3.8770  -17.4674   24.0790 C.2     1  UNL1        0.2007
     10 O          -3.3724  -18.5070   25.0353 O.2     1  UNL1       -0.2866
     11 C          -4.1741  -19.5711   21.4415 C.2     1  UNL1        0.1360
     12 C          -4.1439  -20.3277   20.1467 C.2     1  UNL1        0.0837
     13 C          -3.3495  -19.8007   18.9885 C.2     1  UNL1        0.2385
     14 N          -2.5855  -18.5172   19.1252 N.2     1  UNL1       -0.0338
     15 C          -2.6157  -17.7606   20.4200 C.2     1  UNL1        0.3626
     16 N          -1.9673  -16.4776   20.8482 N.2     1  UNL1       -0.0341
     17 C          -2.3608  -16.2116   22.2710 C.2     1  UNL1        0.2355
     18 C          -3.2525  -17.3302   22.7221 C.2     1  UNL1        0.0823
     19 C          -3.4100  -18.2876   21.5782 C.3     1  UNL1        0.1973
     20 C          -6.3957  -20.5149   22.4025 C.3     1  UNL1        0.2520
     21 O          -4.9684  -20.0981   22.5997 O.2     1  UNL1       -0.4746
     22 N          -8.3607  -15.0965   22.9494 N.pl3   1  UNL1       -0.2127
     23 H          -8.5552  -14.1696   22.6804 H       1  UNL1        0.1738
     24 S          -9.1770  -16.2257   22.3939 S.O2    1  UNL1        0.0780
     25 O          -9.2006  -15.5499   21.0550 O.2     1  UNL1       -0.1498
     26 O          -9.1534  -16.9015   23.7328 O.2     1  UNL1       -0.1498
     27 C          -9.9933  -17.3549   21.8384 C.ar    1  UNL1        0.1797
     28 C         -11.4711  -17.4066   22.0901 C.ar    1  UNL1        0.1611
     29 F         -12.1326  -16.3292   22.8973 F       1  UNL1       -0.2027
     30 C         -12.2875  -18.5358   21.5347 C.ar    1  UNL1        0.0312
     31 C         -11.6260  -19.6133   20.7275 C.ar    1  UNL1        0.0047
     32 C         -10.1481  -19.5615   20.4758 C.ar    1  UNL1        0.0312
     33 C          -9.3318  -18.4323   21.0312 C.ar    1  UNL1        0.1611
     34 F          -7.8540  -18.3806   20.7795 F       1  UNL1       -0.2027
@<TRIPOS>BOND
     1    20    21    1
     2    21    11    1
     3    11    12    2
     4    12    13    1
     5    13    14    2
     6    14    15    1
     7    15    16    2
     8    16    17    1
     9    17    18    2
    10    18     9    1
    11     9    10    2
    12     9     1    1
    13     1     2   ar
    14     2     3    1
    15     2     4   ar
    16     4     5   ar
    17     5     6   ar
    18     6    22    1
    19    22    24    1
    20    24    25    2
    21    24    26    2
    22    24    27    1
    23    27    28   ar
    24    28    29    1
    25    28    30   ar
    26    30    31   ar
    27    31    32   ar
    28    32    33   ar
    29    33    34    1
    30     6     7   ar
    31     7     8    1
    32    18    19    1
    33    19    11    1
    34    19    15    1
    35     7     1   ar
    36    33    27   ar
    37    22    23    1
@<TRIPOS>MOLECULE
*****
 34 37 0 0 0
SMALL
GASTEIGER

@<TRIPOS>ATOM
      1 C          -5.0195  -16.5674   24.4715 C.ar    1  UNL1        0.0949
      2 C          -5.0553  -15.9572   25.8413 C.ar    1  UNL1        0.1454
      3 F          -3.9548  -16.2441   26.8192 F       1  UNL1       -0.2040
      4 C          -6.1918  -15.0600   26.2330 C.ar    1  UNL1        0.0312
      5 C          -7.2923  -14.7730   25.2551 C.ar    1  UNL1        0.0204
      6 C          -7.2565  -15.3833   23.8853 C.ar    1  UNL1        0.0924
      7 C          -6.1201  -16.2804   23.4935 C.ar    1  UNL1        0.1598
      8 F          -6.0841  -16.8907   22.1237 F       1  UNL1       -0.2026
      9 C          -3.8830  -17.4646   24.0796 C.2     1  UNL1        0.2007
     10 O          -3.3754  -18.4962   25.0429 O.2     1  UNL1       -0.2866
     11 C          -4.1731  -19.5728   21.4449 C.2     1  UNL1        0.1360
     12 C          -4.1392  -20.3316   20.1515 C.2     1  UNL1        0.0837
     13 C          -3.3410  -19.8071   18.9948 C.2     1  UNL1        0.2385
     14 N          -2.5766  -18.5238   19.1316 N.2     1  UNL1       -0.0338
     15 C          -2.6105  -17.7650   20.4251 C.2     1  UNL1        0.3626
     16 N          -1.9626  -16.4816   20.8530 N.2     1  UNL1       -0.0341
     17 C          -2.3605  -16.2128   22.2741 C.2     1  UNL1        0.2355
     18 C          -3.2542  -17.3302   22.7244 C.2     1  UNL1        0.0823
     19 C          -3.4087  -18.2895   21.5817 C.3     1  UNL1        0.1973
     20 C          -6.3956  -20.5216   22.3988 C.3     1  UNL1        0.2520
     21 O          -4.9713  -20.0973   22.6015 O.2     1  UNL1       -0.4746
     22 N          -8.3571  -15.0963   22.9074 N.pl3   1  UNL1       -0.2127
     23 H          -8.5332  -14.1706   22.6222 H       1  UNL1        0.1738
     24 S          -9.1892  -16.2197   22.3639 S.O2    1  UNL1        0.0780
     25 O          -9.1236  -16.9115   23.6932 O.2     1  UNL1       -0.1498
     26 O          -9.2549  -15.5280   21.0346 O.2     1  UNL1       -0.1498
     27 C         -10.0214  -17.3431   21.8204 C.ar    1  UNL1        0.1797
     28 C          -9.3746  -18.4401   21.0277 C.ar    1  UNL1        0.1611
     29 F          -7.8957  -18.4137   20.7787 F       1  UNL1       -0.2027
     30 C         -10.2067  -19.5636   20.4841 C.ar    1  UNL1        0.0312
     31 C         -11.6857  -19.5900   20.7331 C.ar    1  UNL1        0.0047
     32 C         -12.3324  -18.4930   21.5258 C.ar    1  UNL1        0.0312
     33 C         -11.5003  -17.3695   22.0694 C.ar    1  UNL1        0.1611
     34 F         -12.1472  -16.2725   22.8620 F       1  UNL1       -0.2027
@<TRIPOS>BOND
     1    20    21    1
     2    21    11    1
     3    11    12    2
     4    12    13    1
     5    13    14    2
     6    14    15    1
     7    15    16    2
     8    16    17    1
     9    17    18    2
    10    18     9    1
    11     9    10    2
    12     9     1    1
    13     1     2   ar
    14     2     3    1
    15     2     4   ar
    16     4     5   ar
    17     5     6   ar
    18     6    22    1
    19    22    24    1
    20    24    25    2
    21    24    26    2
    22    24    27    1
    23    27    28   ar
    24    28    29    1
    25    28    30   ar
    26    30    31   ar
    27    31    32   ar
    28    32    33   ar
    29    33    34    1
    30     6     7   ar
    31     7     8    1
    32    18    19    1
    33    19    11    1
    34    19    15    1
    35     7     1   ar
    36    33    27   ar
    37    22    23    1
@<TRIPOS>MOLECULE
*****
 34 37 0 0 0
SMALL
GASTEIGER

@<TRIPOS>ATOM
      1 C           5.3714   -3.2489   23.0069 C.ar    1  UNL1        0.0949
      2 C           4.6089   -2.0825   23.5620 C.ar    1  UNL1        0.1454
      3 F           3.6391   -1.3383   22.6927 F       1  UNL1       -0.2040
      4 C           4.8163   -1.6604   24.9863 C.ar    1  UNL1        0.0312
      5 C           5.7861   -2.4046   25.8556 C.ar    1  UNL1        0.0204
      6 C           6.5486   -3.5710   25.3005 C.ar    1  UNL1        0.0924
      7 C           6.3412   -3.9932   23.8762 C.ar    1  UNL1        0.1598
      8 F           7.1037   -5.1596   23.3210 F       1  UNL1       -0.2026
      9 C           5.1641   -3.6712   21.5825 C.2     1  UNL1        0.2007
     10 O           4.1223   -4.6973   21.2486 O.2     1  UNL1       -0.2866
     11 C           4.1374   -1.6396   19.0747 C.2     1  UNL1        0.1360
     12 C           3.9420   -0.7422   17.8888 C.2     1  UNL1        0.0837
     13 C           5.1122   -0.3749   17.0253 C.2     1  UNL1        0.2385
     14 N           6.4779   -0.9050   17.3477 N.2     1  UNL1       -0.0338
     15 C           6.6732   -1.8025   18.5336 C.2     1  UNL1        0.3626
     16 N           7.8920   -2.4729   19.0950 N.2     1  UNL1       -0.0341
     17 C           7.4751   -3.2545   20.3055 C.2     1  UNL1        0.2355
     18 C           5.9986   -3.0672   20.4921 C.2     1  UNL1        0.0823
     19 C           5.5030   -2.1698   19.3971 C.3     1  UNL1        0.1973
     20 C           1.8042   -1.0680   20.0644 C.3     1  UNL1        0.2520
     21 O           2.9671   -2.0069   19.9382 O.2     1  UNL1       -0.4746
     22 N           7.5184   -4.3152   26.1698 N.pl3   1  UNL1       -0.2127
     23 H           8.2937   -4.7683   25.7663 H       1  UNL1        0.1738
     24 S           7.3069   -4.3691   27.6538 S.O2    1  UNL1        0.0780
     25 O           8.4967   -3.4783   27.8557 O.2     1  UNL1       -0.1498
     26 O           6.1170   -5.2599   27.4519 O.2     1  UNL1       -0.1498
     27 C           7.0953   -4.4230   29.1378 C.ar    1  UNL1        0.1797
     28 C           6.5575   -3.2249   29.8627 C.ar    1  UNL1        0.1611
     29 F           6.2314   -1.9730   29.1035 F       1  UNL1       -0.2027
     30 C           6.3459   -3.2787   31.3467 C.ar    1  UNL1        0.0312
     31 C           6.6720   -4.5306   32.1059 C.ar    1  UNL1        0.0047
     32 C           7.2097   -5.7287   31.3809 C.ar    1  UNL1        0.0312
     33 C           7.4214   -5.6749   29.8969 C.ar    1  UNL1        0.1611
     34 F           7.9591   -6.8730   29.1721 F       1  UNL1       -0.2027
@<TRIPOS>BOND
     1    20    21    1
     2    21    11    1
     3    11    12    2
     4    12    13    1
     5    13    14    2
     6    14    15    1
     7    15    16    2
     8    16    17    1
     9    17    18    2
    10    18     9    1
    11     9    10    2
    12     9     1    1
    13     1     2   ar
    14     2     3    1
    15     2     4   ar
    16     4     5   ar
    17     5     6   ar
    18     6    22    1
    19    22    24    1
    20    24    25    2
    21    24    26    2
    22    24    27    1
    23    27    28   ar
    24    28    29    1
    25    28    30   ar
    26    30    31   ar
    27    31    32   ar
    28    32    33   ar
    29    33    34    1
    30     6     7   ar
    31     7     8    1
    32    18    19    1
    33    19    11    1
    34    19    15    1
    35     7     1   ar
    36    33    27   ar
    37    22    23    1
