@<TRIPOS>MOLECULE
*****
 33 36 0 0 0
SMALL
GASTEIGER

@<TRIPOS>ATOM
      1 C           6.2640   -3.3220   30.2612 C.2     1  UNL1        0.2532
      2 O           5.9610   -1.9256   29.8049 O.2     1  UNL1       -0.2695
      3 N           6.1108   -3.6882   31.7076 N.am    1  UNL1       -0.2987
      4 H           6.3097   -4.6048   32.0071 H       1  UNL1        0.1498
      5 C           7.9989   -7.2751   25.4687 C.ar    1  UNL1        0.2398
      6 N           8.4261   -8.1687   26.5951 N.ar    1  UNL1       -0.1101
      7 N           8.2446   -7.7233   28.0160 N.ar    1  UNL1       -0.1384
      8 C           7.6359   -6.3844   28.3103 C.ar    1  UNL1        0.1336
      9 S           7.3340   -5.6807   29.6001 S.2     1  UNL1       -0.0604
     10 C           6.7202   -4.3522   29.2709 C.ar    1  UNL1        0.0971
     11 C           6.6428   -4.2348   27.7775 C.ar    1  UNL1        0.0539
     12 N           6.0956   -3.0666   27.0121 N.pl3   1  UNL1       -0.3564
     13 C           7.2087   -5.4908   27.1838 C.ar    1  UNL1        0.0397
     14 C           7.3903   -5.9361   25.7630 C.ar    1  UNL1        0.0360
     15 C           6.9631   -5.0424   24.6365 C.3     1  UNL1        0.0361
     16 H           5.7444   -2.2832   27.4941 H       1  UNL1        0.1424
     17 H           6.0876   -3.0831   26.0278 H       1  UNL1        0.1424
     18 C           9.4617   -7.4236   23.3267 C.3     1  UNL1        0.2543
     19 O           8.1804   -7.7204   24.0479 O.3     1  UNL1       -0.4554
     20 C           5.6546   -2.6581   32.6978 C.3     1  UNL1        0.1115
     21 C           4.4242   -2.4610   33.5327 C.3     1  UNL1        0.1149
     22 N           5.0095   -1.2011   34.0982 N.pl3   1  UNL1       -0.2747
     23 C           6.2401   -1.3981   33.2634 C.3     1  UNL1        0.1149
     24 C           4.5533   -0.1709   35.0885 C.ar    1  UNL1        0.2203
     25 N           4.8656   -0.3413   36.5457 N.ar    1  UNL1       -0.2121
     26 C           4.4095    0.6889   37.5359 C.ar    1  UNL1        0.1072
     27 C           3.6410    1.8896   37.0690 C.ar    1  UNL1        0.1097
     28 C           3.3287    2.0600   35.6117 C.ar    1  UNL1        0.1072
     29 N           3.7849    1.0297   34.6215 N.ar    1  UNL1       -0.2121
     30 C           3.1849    2.9198   38.0592 C.3     1  UNL1        0.4215
     31 F           2.7287    3.9499   39.0494 F       1  UNL1       -0.1657
     32 F           4.2836    2.5081   38.9936 F       1  UNL1       -0.1657
     33 F           2.0861    3.3314   37.1248 F       1  UNL1       -0.1657
@<TRIPOS>BOND
     1    18    19    1
     2    19     5    1
     3     5     6   ar
     4     6     7   ar
     5     7     8   ar
     6     8     9   ar
     7     9    10   ar
     8    10     1    1
     9     1     2    2
    10     1     3   am
    11     3    20    1
    12    20    21    1
    13    21    22    1
    14    22    24    1
    15    24    25   ar
    16    25    26   ar
    17    26    27   ar
    18    27    30    1
    19    30    31    1
    20    30    32    1
    21    30    33    1
    22    27    28   ar
    23    28    29   ar
    24    22    23    1
    25    10    11   ar
    26    11    12    1
    27    11    13   ar
    28    13    14   ar
    29    14    15    1
    30    14     5   ar
    31    13     8   ar
    32    23    20    1
    33    29    24   ar
    34     3     4    1
    35    12    16    1
    36    12    17    1
@<TRIPOS>MOLECULE
*****
 33 36 0 0 0
SMALL
GASTEIGER

@<TRIPOS>ATOM
      1 C          -4.4542    3.7520   24.2875 C.2     1  UNL1        0.2532
      2 O          -5.0877    3.2437   25.5486 O.2     1  UNL1       -0.2695
      3 N          -2.9618    3.7341   24.1379 N.am    1  UNL1       -0.2987
      4 H          -2.5460    4.0677   23.3102 H       1  UNL1        0.1498
      5 C          -7.8155    5.5045   19.0688 C.ar    1  UNL1        0.2398
      6 N          -8.4300    6.4950   20.0128 N.ar    1  UNL1       -0.1101
      7 N          -7.9934    6.5345   21.4473 N.ar    1  UNL1       -0.1384
      8 C          -6.9423    5.5835   21.9378 C.ar    1  UNL1        0.1336
      9 S          -6.3152    5.3890   23.2865 S.2     1  UNL1       -0.0604
     10 C          -5.3132    4.2783   23.1761 C.ar    1  UNL1        0.0971
     11 C          -5.3209    3.7863   21.7591 C.ar    1  UNL1        0.0539
     12 N          -4.4710    2.6816   21.2047 N.pl3   1  UNL1       -0.3564
     13 C          -6.3277    4.5930   20.9938 C.ar    1  UNL1        0.0397
     14 C          -6.7643    4.5535   19.5593 C.ar    1  UNL1        0.0360
     15 C          -6.1497    3.5629   18.6153 C.3     1  UNL1        0.0361
     16 H          -3.8356    2.2086   21.7894 H       1  UNL1        0.1424
     17 H          -4.5485    2.4296   20.2562 H       1  UNL1        0.1424
     18 C          -7.8262    6.5503   16.6906 C.3     1  UNL1        0.2543
     19 O          -8.2521    5.4650   17.6343 O.3     1  UNL1       -0.4554
     20 C          -2.1029    3.2078   25.2493 C.3     1  UNL1        0.1115
     21 C          -0.9837    2.2139   25.3453 C.3     1  UNL1        0.1149
     22 N          -0.8883    2.4636   26.8211 N.pl3   1  UNL1       -0.2747
     23 C          -2.0076    3.4576   26.7253 C.3     1  UNL1        0.1149
     24 C          -0.0294    1.9374   27.9327 C.ar    1  UNL1        0.2203
     25 N           0.1314    0.4578   28.1201 N.ar    1  UNL1       -0.2121
     26 C           0.9903   -0.0684   29.2315 C.ar    1  UNL1        0.1072
     27 C           1.6884    0.8849   30.1556 C.ar    1  UNL1        0.1097
     28 C           1.5276    2.3644   29.9682 C.ar    1  UNL1        0.1072
     29 N           0.6687    2.8906   28.8567 N.ar    1  UNL1       -0.2121
     30 C           2.5473    0.3586   31.2671 C.3     1  UNL1        0.4215
     31 F           3.4061   -0.1677   32.3785 F       1  UNL1       -0.1657
     32 F           2.3640   -1.0367   30.7480 F       1  UNL1       -0.1657
     33 F           2.7305    1.7539   31.7861 F       1  UNL1       -0.1657
@<TRIPOS>BOND
     1    18    19    1
     2    19     5    1
     3     5     6   ar
     4     6     7   ar
     5     7     8   ar
     6     8     9   ar
     7     9    10   ar
     8    10     1    1
     9     1     2    2
    10     1     3   am
    11     3    20    1
    12    20    21    1
    13    21    22    1
    14    22    24    1
    15    24    25   ar
    16    25    26   ar
    17    26    27   ar
    18    27    30    1
    19    30    31    1
    20    30    32    1
    21    30    33    1
    22    27    28   ar
    23    28    29   ar
    24    22    23    1
    25    10    11   ar
    26    11    12    1
    27    11    13   ar
    28    13    14   ar
    29    14    15    1
    30    14     5   ar
    31    13     8   ar
    32    23    20    1
    33    29    24   ar
    34     3     4    1
    35    12    16    1
    36    12    17    1
@<TRIPOS>MOLECULE
*****
 33 36 0 0 0
SMALL
GASTEIGER

@<TRIPOS>ATOM
      1 C           3.7036   -0.2858   26.3663 C.2     1  UNL1        0.2532
      2 O           4.4487    0.9444   26.7922 O.2     1  UNL1       -0.2695
      3 N           3.1471   -1.2207   27.3988 N.am    1  UNL1       -0.2987
      4 H           2.6581   -2.0281   27.1193 H       1  UNL1        0.1498
      5 C           3.3814   -2.1186   20.1904 C.ar    1  UNL1        0.2398
      6 N           2.4157   -0.9758   20.0838 N.ar    1  UNL1       -0.1101
      7 N           2.0961   -0.1487   21.2936 N.ar    1  UNL1       -0.1384
      8 C           2.7422   -0.4643   22.6100 C.ar    1  UNL1        0.1336
      9 S           2.6230    0.1697   23.9642 S.2     1  UNL1       -0.0604
     10 C           3.5151   -0.5812   24.9077 C.ar    1  UNL1        0.0971
     11 C           4.1856   -1.6793   24.1367 C.ar    1  UNL1        0.0539
     12 N           5.1623   -2.6749   24.6887 N.pl3   1  UNL1       -0.3564
     13 C           3.7079   -1.6070   22.7166 C.ar    1  UNL1        0.0397
     14 C           4.0275   -2.4342   21.5068 C.ar    1  UNL1        0.0360
     15 C           4.9933   -3.5770   21.6134 C.3     1  UNL1        0.0361
     16 H           5.4152   -2.6413   25.6396 H       1  UNL1        0.1424
     17 H           5.5506   -3.3620   24.1002 H       1  UNL1        0.1424
     18 C           4.9264   -2.6456   18.1692 C.3     1  UNL1        0.2543
     19 O           3.7010   -2.9458   18.9806 O.3     1  UNL1       -0.4554
     20 C           3.3356   -0.9253   28.8573 C.3     1  UNL1        0.1115
     21 C           4.5109   -0.8861   29.7883 C.3     1  UNL1        0.1149
     22 N           3.6021   -0.5075   30.9199 N.pl3   1  UNL1       -0.2747
     23 C           2.4266   -0.5467   29.9889 C.3     1  UNL1        0.1149
     24 C           3.7905   -0.2121   32.3784 C.ar    1  UNL1        0.2203
     25 N           3.3933    1.1250   32.9303 N.ar    1  UNL1       -0.2121
     26 C           3.5817    1.4204   34.3887 C.ar    1  UNL1        0.1072
     27 C           4.1674    0.3788   35.2954 C.ar    1  UNL1        0.1097
     28 C           4.5647   -0.9582   34.7436 C.ar    1  UNL1        0.1072
     29 N           4.3762   -1.2537   33.2851 N.ar    1  UNL1       -0.2121
     30 C           4.3559    0.6743   36.7539 C.3     1  UNL1        0.4215
     31 F           4.5443    0.9697   38.2124 F       1  UNL1       -0.1657
     32 F           5.4388   -0.3612   36.8238 F       1  UNL1       -0.1657
     33 F           3.2729    1.7097   36.6841 F       1  UNL1       -0.1657
@<TRIPOS>BOND
     1    18    19    1
     2    19     5    1
     3     5     6   ar
     4     6     7   ar
     5     7     8   ar
     6     8     9   ar
     7     9    10   ar
     8    10     1    1
     9     1     2    2
    10     1     3   am
    11     3    20    1
    12    20    21    1
    13    21    22    1
    14    22    24    1
    15    24    25   ar
    16    25    26   ar
    17    26    27   ar
    18    27    30    1
    19    30    31    1
    20    30    32    1
    21    30    33    1
    22    27    28   ar
    23    28    29   ar
    24    22    23    1
    25    10    11   ar
    26    11    12    1
    27    11    13   ar
    28    13    14   ar
    29    14    15    1
    30    14     5   ar
    31    13     8   ar
    32    23    20    1
    33    29    24   ar
    34     3     4    1
    35    12    16    1
    36    12    17    1
@<TRIPOS>MOLECULE
*****
 33 36 0 0 0
SMALL
GASTEIGER

@<TRIPOS>ATOM
      1 C           6.1373   -2.7017   29.7884 C.2     1  UNL1        0.2532
      2 O           6.4902   -3.4121   31.0615 O.2     1  UNL1       -0.2695
      3 N           5.3922   -1.4008   29.8373 N.am    1  UNL1       -0.2987
      4 H           5.1606   -0.9345   29.0017 H       1  UNL1        0.1498
      5 C           7.7909   -5.9105   24.4430 C.ar    1  UNL1        0.2398
      6 N           7.8336   -4.5369   23.8421 N.ar    1  UNL1       -0.1101
      7 N           7.5153   -3.3386   24.6864 N.ar    1  UNL1       -0.1384
      8 C           7.1543   -3.5140   26.1317 C.ar    1  UNL1        0.1336
      9 S           6.7945   -2.5280   27.2032 S.2     1  UNL1       -0.0604
     10 C           6.5295   -3.2922   28.4665 C.ar    1  UNL1        0.0971
     11 C           6.7255   -4.7506   28.1757 C.ar    1  UNL1        0.0539
     12 N           6.5637   -5.8746   29.1557 N.pl3   1  UNL1       -0.3564
     13 C           7.1117   -4.8877   26.7326 C.ar    1  UNL1        0.0397
     14 C           7.4300   -6.0859   25.8883 C.ar    1  UNL1        0.0360
     15 C           7.3873   -7.4597   26.4893 C.3     1  UNL1        0.0361
     16 H           6.3061   -5.6830   30.0864 H       1  UNL1        0.1424
     17 H           6.7152   -6.8040   28.8682 H       1  UNL1        0.1424
     18 C           9.5209   -7.6073   23.5059 C.3     1  UNL1        0.2543
     19 O           8.1092   -7.1088   23.5987 O.3     1  UNL1       -0.4554
     20 C           5.0001   -0.8103   31.1592 C.3     1  UNL1        0.1115
     21 C           3.8867   -1.0438   32.1368 C.3     1  UNL1        0.1149
     22 N           4.4455    0.0248   33.0286 N.pl3   1  UNL1       -0.2747
     23 C           5.5590    0.2584   32.0511 C.3     1  UNL1        0.1149
     24 C           4.0534    0.6154   34.3506 C.ar    1  UNL1        0.2203
     25 N           4.6000    0.0370   35.6221 N.ar    1  UNL1       -0.2121
     26 C           4.2079    0.6275   36.9440 C.ar    1  UNL1        0.1072
     27 C           3.2692    1.7964   36.9945 C.ar    1  UNL1        0.1097
     28 C           2.7226    2.3748   35.7230 C.ar    1  UNL1        0.1072
     29 N           3.1147    1.7842   34.4011 N.ar    1  UNL1       -0.2121
     30 C           2.8771    2.3869   38.3165 C.3     1  UNL1        0.4215
     31 F           2.4850    2.9774   39.6384 F       1  UNL1       -0.1657
     32 F           1.8621    3.2514   37.6293 F       1  UNL1       -0.1657
     33 F           3.8921    1.5224   39.0037 F       1  UNL1       -0.1657
@<TRIPOS>BOND
     1    18    19    1
     2    19     5    1
     3     5     6   ar
     4     6     7   ar
     5     7     8   ar
     6     8     9   ar
     7     9    10   ar
     8    10     1    1
     9     1     2    2
    10     1     3   am
    11     3    20    1
    12    20    21    1
    13    21    22    1
    14    22    24    1
    15    24    25   ar
    16    25    26   ar
    17    26    27   ar
    18    27    30    1
    19    30    31    1
    20    30    32    1
    21    30    33    1
    22    27    28   ar
    23    28    29   ar
    24    22    23    1
    25    10    11   ar
    26    11    12    1
    27    11    13   ar
    28    13    14   ar
    29    14    15    1
    30    14     5   ar
    31    13     8   ar
    32    23    20    1
    33    29    24   ar
    34     3     4    1
    35    12    16    1
    36    12    17    1
@<TRIPOS>MOLECULE
*****
 33 36 0 0 0
SMALL
GASTEIGER

@<TRIPOS>ATOM
      1 C          -0.0477    1.5963   28.7479 C.2     1  UNL1        0.2532
      2 O          -0.7010    0.3799   28.1618 O.2     1  UNL1       -0.2695
      3 N          -0.2214    2.9323   28.0884 N.am    1  UNL1       -0.2987
      4 H           0.2074    3.7306   28.4730 H       1  UNL1        0.1498
      5 C           3.8511    0.5034   33.7688 C.ar    1  UNL1        0.2398
      6 N           3.1188    1.6679   34.3668 N.ar    1  UNL1       -0.1101
      7 N           2.0364    2.3537   33.5871 N.ar    1  UNL1       -0.1384
      8 C           1.6862    1.8750   32.2094 C.ar    1  UNL1        0.1336
      9 S           0.6733    2.3486   31.2095 S.2     1  UNL1       -0.0604
     10 C           0.7795    1.4767   29.9935 C.ar    1  UNL1        0.0971
     11 C           1.8581    0.4643   30.2418 C.ar    1  UNL1        0.0539
     12 N           2.2990   -0.6062   29.2882 N.pl3   1  UNL1       -0.3564
     13 C           2.4185    0.7105   31.6113 C.ar    1  UNL1        0.0397
     14 C           3.5009    0.0247   32.3911 C.ar    1  UNL1        0.0360
     15 C           4.2332   -1.1399   31.7930 C.3     1  UNL1        0.0361
     16 H           1.8679   -0.6884   28.4069 H       1  UNL1        0.1424
     17 H           3.0194   -1.2267   29.5435 H       1  UNL1        0.1424
     18 C           4.8556   -0.2444   36.0451 C.3     1  UNL1        0.2543
     19 O           4.9336   -0.1825   34.5485 O.3     1  UNL1       -0.4554
     20 C          -1.0486    3.0518   26.8428 C.3     1  UNL1        0.1115
     21 C          -0.9541    2.5030   25.4501 C.3     1  UNL1        0.1149
     22 N          -2.2184    3.2210   25.0813 N.pl3   1  UNL1       -0.2747
     23 C          -2.3129    3.7698   26.4741 C.3     1  UNL1        0.1149
     24 C          -3.0456    3.3405   23.8357 C.ar    1  UNL1        0.2203
     25 N          -4.5345    3.1728   23.9053 N.ar    1  UNL1       -0.2121
     26 C          -5.3618    3.2923   22.6597 C.ar    1  UNL1        0.1072
     27 C          -4.7000    3.5797   21.3446 C.ar    1  UNL1        0.1097
     28 C          -3.2110    3.7475   21.2750 C.ar    1  UNL1        0.1072
     29 N          -2.3838    3.6279   22.5206 N.ar    1  UNL1       -0.2121
     30 C          -5.5272    3.6993   20.0991 C.3     1  UNL1        0.4215
     31 F          -6.3544    3.8189   18.8535 F       1  UNL1       -0.1657
     32 F          -6.7162    4.0893   20.9262 F       1  UNL1       -0.1657
     33 F          -4.3382    3.3093   19.2719 F       1  UNL1       -0.1657
@<TRIPOS>BOND
     1    18    19    1
     2    19     5    1
     3     5     6   ar
     4     6     7   ar
     5     7     8   ar
     6     8     9   ar
     7     9    10   ar
     8    10     1    1
     9     1     2    2
    10     1     3   am
    11     3    20    1
    12    20    21    1
    13    21    22    1
    14    22    24    1
    15    24    25   ar
    16    25    26   ar
    17    26    27   ar
    18    27    30    1
    19    30    31    1
    20    30    32    1
    21    30    33    1
    22    27    28   ar
    23    28    29   ar
    24    22    23    1
    25    10    11   ar
    26    11    12    1
    27    11    13   ar
    28    13    14   ar
    29    14    15    1
    30    14     5   ar
    31    13     8   ar
    32    23    20    1
    33    29    24   ar
    34     3     4    1
    35    12    16    1
    36    12    17    1
@<TRIPOS>MOLECULE
*****
 33 36 0 0 0
SMALL
GASTEIGER

@<TRIPOS>ATOM
      1 C           2.8712    0.1541   30.1812 C.2     1  UNL1        0.2532
      2 O           1.6583   -0.5523   29.6521 O.2     1  UNL1       -0.2695
      3 N           4.0720    0.3433   29.3024 N.am    1  UNL1       -0.2987
      4 H           4.8680    0.8069   29.6497 H       1  UNL1        0.1498
      5 C           3.4642    1.8750   36.3692 C.ar    1  UNL1        0.2398
      6 N           2.3808    2.8517   36.0196 N.ar    1  UNL1       -0.1101
      7 N           1.8287    2.8921   34.6255 N.ar    1  UNL1       -0.1384
      8 C           2.3600    1.9558   33.5810 C.ar    1  UNL1        0.1336
      9 S           2.0138    1.7656   32.1339 S.2     1  UNL1       -0.0604
     10 C           2.8832    0.6714   31.5892 C.ar    1  UNL1        0.0971
     11 C           3.7668    0.1852   32.6996 C.ar    1  UNL1        0.0539
     12 N           4.7934   -0.9036   32.5970 N.pl3   1  UNL1       -0.3564
     13 C           3.4433    0.9791   33.9306 C.ar    1  UNL1        0.0397
     14 C           3.9954    0.9386   35.3247 C.ar    1  UNL1        0.0360
     15 C           5.0789   -0.0382   35.6743 C.3     1  UNL1        0.0361
     16 H           4.9335   -1.3690   31.7409 H       1  UNL1        0.1424
     17 H           5.3271   -1.1528   33.3859 H       1  UNL1        0.1424
     18 C           3.2976    1.0664   38.8326 C.3     1  UNL1        0.2543
     19 O           4.0163    1.8346   37.7633 O.3     1  UNL1       -0.4554
     20 C           4.0599   -0.1740   27.8945 C.3     1  UNL1        0.1115
     21 C           4.3138    0.4240   26.5426 C.3     1  UNL1        0.1149
     22 N           4.0428   -0.9055   25.9034 N.pl3   1  UNL1       -0.2747
     23 C           3.7889   -1.5037   27.2554 C.3     1  UNL1        0.1149
     24 C           4.0307   -1.4229   24.4955 C.ar    1  UNL1        0.2203
     25 N           3.1554   -0.7730   23.4652 N.ar    1  UNL1       -0.2121
     26 C           3.1433   -1.2902   22.0573 C.ar    1  UNL1        0.1072
     27 C           4.0065   -2.4575   21.6796 C.ar    1  UNL1        0.1097
     28 C           4.8817   -3.1074   22.7099 C.ar    1  UNL1        0.1072
     29 N           4.8938   -2.5900   24.1179 N.ar    1  UNL1       -0.2121
     30 C           3.9943   -2.9747   20.2717 C.3     1  UNL1        0.4215
     31 F           3.9822   -3.4920   18.8638 F       1  UNL1       -0.1657
     32 F           5.2094   -3.8036   20.5658 F       1  UNL1       -0.1657
     33 F           2.7793   -2.1458   19.9776 F       1  UNL1       -0.1657
@<TRIPOS>BOND
     1    18    19    1
     2    19     5    1
     3     5     6   ar
     4     6     7   ar
     5     7     8   ar
     6     8     9   ar
     7     9    10   ar
     8    10     1    1
     9     1     2    2
    10     1     3   am
    11     3    20    1
    12    20    21    1
    13    21    22    1
    14    22    24    1
    15    24    25   ar
    16    25    26   ar
    17    26    27   ar
    18    27    30    1
    19    30    31    1
    20    30    32    1
    21    30    33    1
    22    27    28   ar
    23    28    29   ar
    24    22    23    1
    25    10    11   ar
    26    11    12    1
    27    11    13   ar
    28    13    14   ar
    29    14    15    1
    30    14     5   ar
    31    13     8   ar
    32    23    20    1
    33    29    24   ar
    34     3     4    1
    35    12    16    1
    36    12    17    1
@<TRIPOS>MOLECULE
*****
 33 36 0 0 0
SMALL
GASTEIGER

@<TRIPOS>ATOM
      1 C           1.0403    0.9985   20.1329 C.2     1  UNL1        0.2532
      2 O           0.0797    0.0181   20.7379 O.2     1  UNL1       -0.2695
      3 N           0.7058    2.4605   20.1116 N.am    1  UNL1       -0.2987
      4 H           1.3363    3.1040   19.7145 H       1  UNL1        0.1498
      5 C           6.6295   -1.5670   18.1878 C.ar    1  UNL1        0.2398
      6 N           6.5133   -0.5502   17.0912 N.ar    1  UNL1       -0.1101
      7 N           5.3336    0.3752   17.0484 N.ar    1  UNL1       -0.1384
      8 C           4.2702    0.2840   18.1023 C.ar    1  UNL1        0.1336
      9 S           3.0026    1.0563   18.3187 S.2     1  UNL1       -0.0604
     10 C           2.3354    0.5168   19.5491 C.ar    1  UNL1        0.0971
     11 C           3.1907   -0.5888   20.0932 C.ar    1  UNL1        0.0539
     12 N           2.9010   -1.4070   21.3166 N.pl3   1  UNL1       -0.3564
     13 C           4.3864   -0.7327   19.1990 C.ar    1  UNL1        0.0397
     14 C           5.5661   -1.6582   19.2417 C.ar    1  UNL1        0.0360
     15 C           5.6823   -2.6750   20.3385 C.3     1  UNL1        0.0361
     16 H           2.0855   -1.2365   21.8410 H       1  UNL1        0.1424
     17 H           3.5265   -2.1144   21.5951 H       1  UNL1        0.1424
     18 C           8.9916   -2.1612   19.0922 C.3     1  UNL1        0.2543
     19 O           7.8092   -2.4925   18.2306 O.3     1  UNL1       -0.4554
     20 C          -0.5892    2.9422   20.6954 C.3     1  UNL1        0.1115
     21 C          -1.8972    3.4121   20.1314 C.3     1  UNL1        0.1149
     22 N          -2.4207    3.6233   21.5211 N.pl3   1  UNL1       -0.2747
     23 C          -1.1127    3.1533   22.0852 C.3     1  UNL1        0.1149
     24 C          -3.7158    4.1049   22.1049 C.ar    1  UNL1        0.2203
     25 N          -4.9254    3.2182   22.0801 N.ar    1  UNL1       -0.2121
     26 C          -6.2204    3.6997   22.6639 C.ar    1  UNL1        0.1072
     27 C          -6.3060    5.0681   23.2726 C.ar    1  UNL1        0.1097
     28 C          -5.0964    5.9548   23.2974 C.ar    1  UNL1        0.1072
     29 N          -3.8012    5.4732   22.7135 N.ar    1  UNL1       -0.2121
     30 C          -7.6010    5.5497   23.8564 C.3     1  UNL1        0.4215
     31 F          -8.8961    6.0312   24.4402 F       1  UNL1       -0.1657
     32 F          -8.2510    4.2493   23.4871 F       1  UNL1       -0.1657
     33 F          -6.9510    6.8500   24.2257 F       1  UNL1       -0.1657
@<TRIPOS>BOND
     1    18    19    1
     2    19     5    1
     3     5     6   ar
     4     6     7   ar
     5     7     8   ar
     6     8     9   ar
     7     9    10   ar
     8    10     1    1
     9     1     2    2
    10     1     3   am
    11     3    20    1
    12    20    21    1
    13    21    22    1
    14    22    24    1
    15    24    25   ar
    16    25    26   ar
    17    26    27   ar
    18    27    30    1
    19    30    31    1
    20    30    32    1
    21    30    33    1
    22    27    28   ar
    23    28    29   ar
    24    22    23    1
    25    10    11   ar
    26    11    12    1
    27    11    13   ar
    28    13    14   ar
    29    14    15    1
    30    14     5   ar
    31    13     8   ar
    32    23    20    1
    33    29    24   ar
    34     3     4    1
    35    12    16    1
    36    12    17    1
@<TRIPOS>MOLECULE
*****
 33 36 0 0 0
SMALL
GASTEIGER

@<TRIPOS>ATOM
      1 C           1.3588    1.4303   30.7803 C.2     1  UNL1        0.2532
      2 O           0.0033    1.7114   31.3577 O.2     1  UNL1       -0.2695
      3 N           1.5993    1.6072   29.3103 N.am    1  UNL1       -0.2987
      4 H           2.4890    1.4227   28.9313 H       1  UNL1        0.1498
      5 C           5.8022   -0.1734   35.1722 C.ar    1  UNL1        0.2398
      6 N           6.4407   -0.8787   34.0126 N.ar    1  UNL1       -0.1101
      7 N           5.7942   -0.8347   32.6598 N.ar    1  UNL1       -0.1384
      8 C           4.5092   -0.0854   32.4666 C.ar    1  UNL1        0.1336
      9 S           3.6460    0.1323   31.2594 S.2     1  UNL1       -0.0604
     10 C           2.4740    0.9722   31.6729 C.ar    1  UNL1        0.0971
     11 C           2.6129    1.2736   33.1357 C.ar    1  UNL1        0.0539
     12 N           1.6611    2.0860   33.9628 N.pl3   1  UNL1       -0.3564
     13 C           3.8708    0.6200   33.6262 C.ar    1  UNL1        0.0397
     14 C           4.5172    0.5760   34.9790 C.ar    1  UNL1        0.0360
     15 C           3.8787    1.2814   36.1387 C.3     1  UNL1        0.0361
     16 H           0.8580    2.4763   33.5481 H       1  UNL1        0.1424
     17 H           1.8394    2.2288   34.9204 H       1  UNL1        0.1424
     18 C           7.9390   -0.1006   36.6483 C.3     1  UNL1        0.2543
     19 O           6.4487   -0.2174   36.5251 O.3     1  UNL1       -0.4554
     20 C           0.4842    2.0652   28.4178 C.3     1  UNL1        0.1115
     21 C           0.0449    3.3876   27.8627 C.3     1  UNL1        0.1149
     22 N          -1.0929    2.7129   27.1555 N.pl3   1  UNL1       -0.2747
     23 C          -0.6537    1.3904   27.7106 C.3     1  UNL1        0.1149
     24 C          -2.2081    3.1709   26.2629 C.ar    1  UNL1        0.2203
     25 N          -2.0106    3.2111   24.7765 N.ar    1  UNL1       -0.2121
     26 C          -3.1257    3.6691   23.8839 C.ar    1  UNL1        0.1072
     27 C          -4.4384    4.0869   24.4777 C.ar    1  UNL1        0.1097
     28 C          -4.6358    4.0467   25.9641 C.ar    1  UNL1        0.1072
     29 N          -3.5206    3.5887   26.8567 N.ar    1  UNL1       -0.2121
     30 C          -5.5535    4.5449   23.5851 C.3     1  UNL1        0.4215
     31 F          -6.6686    5.0028   22.6926 F       1  UNL1       -0.1657
     32 F          -6.5339    4.3303   24.6999 F       1  UNL1       -0.1657
     33 F          -4.5731    4.7594   22.4704 F       1  UNL1       -0.1657
@<TRIPOS>BOND
     1    18    19    1
     2    19     5    1
     3     5     6   ar
     4     6     7   ar
     5     7     8   ar
     6     8     9   ar
     7     9    10   ar
     8    10     1    1
     9     1     2    2
    10     1     3   am
    11     3    20    1
    12    20    21    1
    13    21    22    1
    14    22    24    1
    15    24    25   ar
    16    25    26   ar
    17    26    27   ar
    18    27    30    1
    19    30    31    1
    20    30    32    1
    21    30    33    1
    22    27    28   ar
    23    28    29   ar
    24    22    23    1
    25    10    11   ar
    26    11    12    1
    27    11    13   ar
    28    13    14   ar
    29    14    15    1
    30    14     5   ar
    31    13     8   ar
    32    23    20    1
    33    29    24   ar
    34     3     4    1
    35    12    16    1
    36    12    17    1
@<TRIPOS>MOLECULE
*****
 33 36 0 0 0
SMALL
GASTEIGER

@<TRIPOS>ATOM
      1 C           3.1351    0.1438   26.0562 C.2     1  UNL1        0.2532
      2 O           4.3711    0.0342   26.8989 O.2     1  UNL1       -0.2695
      3 N           1.8849    0.7396   26.6324 N.am    1  UNL1       -0.2987
      4 H           1.0737    0.8115   26.0793 H       1  UNL1        0.1498
      5 C           3.6759   -2.4758   20.1868 C.ar    1  UNL1        0.2398
      6 N           2.7152   -1.3890   19.8049 N.ar    1  UNL1       -0.1101
      7 N           2.2226   -0.4246   20.8428 N.ar    1  UNL1       -0.1384
      8 C           2.6907   -0.5470   22.2626 C.ar    1  UNL1        0.1336
      9 S           2.3803    0.2512   23.4941 S.2     1  UNL1       -0.0604
     10 C           3.1493   -0.3423   24.6372 C.ar    1  UNL1        0.0971
     11 C           3.9348   -1.5073   24.1121 C.ar    1  UNL1        0.0539
     12 N           4.8442   -2.3907   24.9138 N.pl3   1  UNL1       -0.3564
     13 C           3.6514   -1.6338   22.6445 C.ar    1  UNL1        0.0397
     14 C           4.1440   -2.5981   21.6066 C.ar    1  UNL1        0.0360
     15 C           5.1048   -3.6850   21.9886 C.3     1  UNL1        0.0361
     16 H           4.9662   -2.2269   25.8769 H       1  UNL1        0.1424
     17 H           5.3190   -3.1343   24.4769 H       1  UNL1        0.1424
     18 C           5.3395   -3.0780   18.2842 C.3     1  UNL1        0.2543
     19 O           4.1686   -3.4402   19.1489 O.3     1  UNL1       -0.4554
     20 C           1.8708    1.2257   28.0514 C.3     1  UNL1        0.1115
     21 C           2.4705    2.3922   28.7790 C.3     1  UNL1        0.1149
     22 N           1.8507    1.9131   30.0581 N.pl3   1  UNL1       -0.2747
     23 C           1.2510    0.7465   29.3305 C.3     1  UNL1        0.1149
     24 C           1.8366    2.3992   31.4771 C.ar    1  UNL1        0.2203
     25 N           2.5535    1.6241   32.5426 N.ar    1  UNL1       -0.2121
     26 C           2.5394    2.1101   33.9615 C.ar    1  UNL1        0.1072
     27 C           1.8083    3.3714   34.3151 C.ar    1  UNL1        0.1097
     28 C           1.0914    4.1465   33.2496 C.ar    1  UNL1        0.1072
     29 N           1.1055    3.6604   31.8306 N.ar    1  UNL1       -0.2121
     30 C           1.7941    3.8574   35.7341 C.3     1  UNL1        0.4215
     31 F           1.7800    4.3434   37.1530 F       1  UNL1       -0.1657
     32 F           2.5399    2.6285   36.1624 F       1  UNL1       -0.1657
     33 F           1.0484    5.0863   35.3057 F       1  UNL1       -0.1657
@<TRIPOS>BOND
     1    18    19    1
     2    19     5    1
     3     5     6   ar
     4     6     7   ar
     5     7     8   ar
     6     8     9   ar
     7     9    10   ar
     8    10     1    1
     9     1     2    2
    10     1     3   am
    11     3    20    1
    12    20    21    1
    13    21    22    1
    14    22    24    1
    15    24    25   ar
    16    25    26   ar
    17    26    27   ar
    18    27    30    1
    19    30    31    1
    20    30    32    1
    21    30    33    1
    22    27    28   ar
    23    28    29   ar
    24    22    23    1
    25    10    11   ar
    26    11    12    1
    27    11    13   ar
    28    13    14   ar
    29    14    15    1
    30    14     5   ar
    31    13     8   ar
    32    23    20    1
    33    29    24   ar
    34     3     4    1
    35    12    16    1
    36    12    17    1
