@<TRIPOS>MOLECULE
*****
 33 36 0 0 0
SMALL
GASTEIGER

@<TRIPOS>ATOM
      1 N           7.1818   -4.6606   26.8788 N.am    1  UNL1       -0.2555
      2 C           7.1096   -3.3616   27.6253 C.3     1  UNL1        0.1197
      3 C           7.0157   -3.3612   29.1223 C.3     1  UNL1        0.1160
      4 N           6.9938   -4.6597   29.8728 N.am    1  UNL1       -0.2660
      5 C           6.8999   -4.6593   31.3699 C.2     1  UNL1        0.2494
      6 O           6.8781   -5.9578   32.1204 O.2     1  UNL1       -0.2699
      7 C           7.0660   -5.9587   29.1263 C.3     1  UNL1        0.1799
      8 C           7.1599   -5.9591   27.6293 C.2     1  UNL1        0.2497
      9 O           7.2321   -7.2582   26.8826 O.2     1  UNL1       -0.2727
     10 C           7.4636   -4.6619   22.3875 C.ar    1  UNL1        0.1385
     11 C           6.3698   -3.8953   23.0702 C.ar    1  UNL1        0.0382
     12 C           6.2759   -3.8949   24.5672 C.ar    1  UNL1        0.0180
     13 C           7.2757   -4.6610   25.3817 C.ar    1  UNL1        0.0541
     14 C           8.3695   -5.4276   24.6991 C.ar    1  UNL1        0.0180
     15 C           8.4634   -5.4281   23.2020 C.ar    1  UNL1        0.0382
     16 O           7.5575   -4.6624   20.8905 O.3     1  UNL1       -0.4791
     17 N           5.4488   -1.4840   18.5028 N.3     1  UNL1       -0.2737
     18 C           6.8075   -1.2127   19.0776 C.3     1  UNL1        0.0758
     19 C           7.5104   -2.2721   19.8735 C.3     1  UNL1        0.0609
     20 C           6.8546   -3.6029   20.0946 C.3     1  UNL1        0.1687
     21 C           5.4960   -3.8742   19.5198 C.3     1  UNL1        0.0609
     22 C           4.7931   -2.8148   18.7239 C.3     1  UNL1        0.0758
     23 C           5.1202    1.0174   17.8822 C.3     1  UNL1        0.0173
     24 C           4.7459   -0.4245   17.7069 C.3     1  UNL1        0.0576
     25 C           3.6687   -0.8069   16.7357 C.3     1  UNL1        0.0173
     26 C           6.8277   -3.3603   32.1165 C.ar    1  UNL1        0.0536
     27 C           8.0883   -2.6328   32.4794 C.ar    1  UNL1        0.0052
     28 C           8.0162   -1.3338   33.2260 C.ar    1  UNL1        0.0104
     29 C           6.6834   -0.7622   33.6096 C.ar    1  UNL1        0.0685
     30 C           5.4228   -1.4897   33.2466 C.ar    1  UNL1        0.0104
     31 C           5.4950   -2.7887   32.5000 C.ar    1  UNL1        0.0052
     32 C           6.6113    0.5368   34.3561 C.1     1  UNL1        0.1004
     33 N           6.5391    1.8359   35.1027 N.1     1  UNL1       -0.1908
@<TRIPOS>BOND
     1    23    24    1
     2    24    25    1
     3    24    17    1
     4    17    18    1
     5    18    19    1
     6    19    20    1
     7    20    16    1
     8    16    10    1
     9    10    11   ar
    10    11    12   ar
    11    12    13   ar
    12    13     1    1
    13     1     2    1
    14     2     3    1
    15     3     4    1
    16     4     5   am
    17     5     6    2
    18     5    26    1
    19    26    27   ar
    20    27    28   ar
    21    28    29   ar
    22    29    32    1
    23    32    33    3
    24    29    30   ar
    25    30    31   ar
    26     4     7    1
    27     7     8    1
    28     8     9    2
    29    13    14   ar
    30    14    15   ar
    31    20    21    1
    32    21    22    1
    33    22    17    1
    34    15    10   ar
    35     8     1   am
    36    31    26   ar
@<TRIPOS>MOLECULE
*****
 33 36 0 0 0
SMALL
GASTEIGER

@<TRIPOS>ATOM
      1 N           0.8143    1.7591   25.2958 N.am    1  UNL1       -0.2555
      2 C           1.9407    1.0152   24.6417 C.3     1  UNL1        0.1197
      3 C           1.9879    0.8880   23.1479 C.3     1  UNL1        0.1160
      4 N           0.9087    1.5046   22.3082 N.am    1  UNL1       -0.2660
      5 C           0.9559    1.3774   20.8143 C.2     1  UNL1        0.2494
      6 O          -0.1232    1.9940   19.9746 O.2     1  UNL1       -0.2699
      7 C          -0.2177    2.2485   22.9623 C.3     1  UNL1        0.1799
      8 C          -0.2649    2.3757   24.4561 C.2     1  UNL1        0.2497
      9 O          -1.3913    3.1197   25.1103 O.2     1  UNL1       -0.2727
     10 C           0.6726    2.1408   29.7774 C.ar    1  UNL1        0.1385
     11 C           1.5732    3.0341   28.9766 C.ar    1  UNL1        0.0382
     12 C           1.6204    2.9068   27.4828 C.ar    1  UNL1        0.0180
     13 C           0.7671    1.8863   26.7897 C.ar    1  UNL1        0.0541
     14 C          -0.1334    0.9931   27.5904 C.ar    1  UNL1        0.0180
     15 C          -0.1807    1.1204   29.0843 C.ar    1  UNL1        0.0382
     16 O           0.6255    2.2681   31.2712 O.3     1  UNL1       -0.4791
     17 N           3.9128    0.5005   33.7850 N.3     1  UNL1       -0.2737
     18 C           3.1116    1.6576   34.3038 C.3     1  UNL1        0.0758
     19 C           2.0158    2.2468   33.4659 C.3     1  UNL1        0.0609
     20 C           1.7212    1.6789   32.1092 C.3     1  UNL1        0.1687
     21 C           2.5224    0.5218   31.5904 C.3     1  UNL1        0.0609
     22 C           3.6182   -0.0673   32.4283 C.3     1  UNL1        0.0758
     23 C           6.2778   -0.5578   33.9758 C.3     1  UNL1        0.0173
     24 C           5.0085   -0.0887   34.6229 C.3     1  UNL1        0.0576
     25 C           4.8350   -0.2088   36.1080 C.3     1  UNL1        0.0173
     26 C           2.0823    0.6335   20.1602 C.ar    1  UNL1        0.0536
     27 C           3.2272    1.3887   19.5528 C.ar    1  UNL1        0.0052
     28 C           4.3535    0.6448   18.8987 C.ar    1  UNL1        0.0104
     29 C           4.3350   -0.8544   18.8519 C.ar    1  UNL1        0.0685
     30 C           3.1902   -1.6096   19.4593 C.ar    1  UNL1        0.0104
     31 C           2.0638   -0.8656   20.1134 C.ar    1  UNL1        0.0052
     32 C           5.4614   -1.5983   18.1978 C.1     1  UNL1        0.1004
     33 N           6.5878   -2.3422   17.5436 N.1     1  UNL1       -0.1908
@<TRIPOS>BOND
     1    23    24    1
     2    24    25    1
     3    24    17    1
     4    17    18    1
     5    18    19    1
     6    19    20    1
     7    20    16    1
     8    16    10    1
     9    10    11   ar
    10    11    12   ar
    11    12    13   ar
    12    13     1    1
    13     1     2    1
    14     2     3    1
    15     3     4    1
    16     4     5   am
    17     5     6    2
    18     5    26    1
    19    26    27   ar
    20    27    28   ar
    21    28    29   ar
    22    29    32    1
    23    32    33    3
    24    29    30   ar
    25    30    31   ar
    26     4     7    1
    27     7     8    1
    28     8     9    2
    29    13    14   ar
    30    14    15   ar
    31    20    21    1
    32    21    22    1
    33    22    17    1
    34    15    10   ar
    35     8     1   am
    36    31    26   ar
@<TRIPOS>MOLECULE
*****
 33 36 0 0 0
SMALL
GASTEIGER

@<TRIPOS>ATOM
      1 N          -0.0264    2.2888   25.7582 N.am    1  UNL1       -0.2555
      2 C           0.9171    1.5831   24.8299 C.3     1  UNL1        0.1197
      3 C           0.7300    1.6915   23.3456 C.3     1  UNL1        0.1160
      4 N          -0.4006    2.5055   22.7896 N.am    1  UNL1       -0.2660
      5 C          -0.5877    2.6138   21.3052 C.2     1  UNL1        0.2494
      6 O          -1.7183    3.4279   20.7493 O.2     1  UNL1       -0.2699
      7 C          -1.3441    3.2112   23.7179 C.3     1  UNL1        0.1799
      8 C          -1.1570    3.1029   25.2022 C.2     1  UNL1        0.2497
      9 O          -2.1004    3.8086   26.1307 O.2     1  UNL1       -0.2727
     10 C           0.5349    1.9638   30.2113 C.ar    1  UNL1        0.1385
     11 C          -0.2133    0.8960   29.4697 C.ar    1  UNL1        0.0382
     12 C          -0.4004    1.0044   27.9854 C.ar    1  UNL1        0.0180
     13 C           0.1607    2.1805   27.2426 C.ar    1  UNL1        0.0541
     14 C           0.9090    3.2483   27.9841 C.ar    1  UNL1        0.0180
     15 C           1.0961    3.1400   29.4685 C.ar    1  UNL1        0.0382
     16 O           0.7220    1.8555   31.6956 O.3     1  UNL1       -0.4791
     17 N           4.5962    0.2911   33.3669 N.3     1  UNL1       -0.2737
     18 C           3.7812    1.2728   34.1556 C.3     1  UNL1        0.0758
     19 C           2.4898    1.7943   33.5985 C.3     1  UNL1        0.0609
     20 C           2.0134    1.3340   32.2527 C.3     1  UNL1        0.1687
     21 C           2.8283    0.3523   31.4641 C.3     1  UNL1        0.0609
     22 C           4.1197   -0.1692   32.0212 C.3     1  UNL1        0.0758
     23 C           6.4141    0.3038   35.2230 C.3     1  UNL1        0.0173
     24 C           5.8876   -0.2304   33.9240 C.3     1  UNL1        0.0576
     25 C           6.6524   -1.2862   33.1822 C.3     1  UNL1        0.0173
     26 C           0.3557    1.9081   20.3769 C.ar    1  UNL1        0.0536
     27 C           0.3420    0.4108   20.2894 C.ar    1  UNL1        0.0052
     28 C           1.2854   -0.2949   19.3610 C.ar    1  UNL1        0.0104
     29 C           2.2427    0.4968   18.5202 C.ar    1  UNL1        0.0685
     30 C           2.2565    1.9941   18.6078 C.ar    1  UNL1        0.0104
     31 C           1.3129    2.6998   19.5361 C.ar    1  UNL1        0.0052
     32 C           3.1862   -0.2089   17.5919 C.1     1  UNL1        0.1004
     33 N           4.1297   -0.9147   16.6635 N.1     1  UNL1       -0.1908
@<TRIPOS>BOND
     1    23    24    1
     2    24    25    1
     3    24    17    1
     4    17    18    1
     5    18    19    1
     6    19    20    1
     7    20    16    1
     8    16    10    1
     9    10    11   ar
    10    11    12   ar
    11    12    13   ar
    12    13     1    1
    13     1     2    1
    14     2     3    1
    15     3     4    1
    16     4     5   am
    17     5     6    2
    18     5    26    1
    19    26    27   ar
    20    27    28   ar
    21    28    29   ar
    22    29    32    1
    23    32    33    3
    24    29    30   ar
    25    30    31   ar
    26     4     7    1
    27     7     8    1
    28     8     9    2
    29    13    14   ar
    30    14    15   ar
    31    20    21    1
    32    21    22    1
    33    22    17    1
    34    15    10   ar
    35     8     1   am
    36    31    26   ar
@<TRIPOS>MOLECULE
*****
 33 36 0 0 0
SMALL
GASTEIGER

@<TRIPOS>ATOM
      1 N           6.9613   -3.7483   25.8285 N.am    1  UNL1       -0.2555
      2 C           5.9702   -2.8293   25.1780 C.3     1  UNL1        0.1197
      3 C           5.7986   -2.8450   23.6880 C.3     1  UNL1        0.1160
      4 N           6.6181   -3.7797   22.8485 N.am    1  UNL1       -0.2660
      5 C           6.4465   -3.7954   21.3583 C.2     1  UNL1        0.2494
      6 O           7.2660   -4.7301   20.5188 O.2     1  UNL1       -0.2699
      7 C           7.6092   -4.6987   23.4990 C.3     1  UNL1        0.1799
      8 C           7.7808   -4.6830   24.9890 C.2     1  UNL1        0.2497
      9 O           8.7719   -5.6020   25.6396 O.2     1  UNL1       -0.2727
     10 C           7.4762   -3.7013   30.2988 C.ar    1  UNL1        0.1385
     11 C           6.6856   -4.7964   29.6463 C.ar    1  UNL1        0.0382
     12 C           6.5140   -4.8121   28.1563 C.ar    1  UNL1        0.0180
     13 C           7.1329   -3.7326   27.3186 C.ar    1  UNL1        0.0541
     14 C           7.9235   -2.6375   27.9711 C.ar    1  UNL1        0.0180
     15 C           8.0951   -2.6218   29.4612 C.ar    1  UNL1        0.0382
     16 O           7.6478   -3.6856   31.7888 O.3     1  UNL1       -0.4791
     17 N           5.3380   -0.7422   34.2890 N.3     1  UNL1       -0.2737
     18 C           4.6419   -1.9309   33.6956 C.3     1  UNL1        0.0758
     19 C           5.4118   -2.9121   32.8622 C.3     1  UNL1        0.0609
     20 C           6.8779   -2.7045   32.6222 C.3     1  UNL1        0.1687
     21 C           7.5739   -1.5157   33.2156 C.3     1  UNL1        0.0609
     22 C           6.8040   -0.5345   34.0490 C.3     1  UNL1        0.0758
     23 C           4.6027    0.1417   36.6188 C.3     1  UNL1        0.0173
     24 C           4.5681    0.2390   35.1224 C.3     1  UNL1        0.0576
     25 C           3.7635    1.3174   34.4594 C.3     1  UNL1        0.0173
     26 C           5.4554   -2.8764   20.7078 C.ar    1  UNL1        0.0536
     27 C           4.0759   -3.3689   20.3844 C.ar    1  UNL1        0.0052
     28 C           3.0849   -2.4499   19.7339 C.ar    1  UNL1        0.0104
     29 C           3.4732   -1.0384   19.4068 C.ar    1  UNL1        0.0685
     30 C           4.8527   -0.5460   19.7302 C.ar    1  UNL1        0.0104
     31 C           5.8438   -1.4650   20.3807 C.ar    1  UNL1        0.0052
     32 C           2.4821   -0.1194   18.7563 C.1     1  UNL1        0.1004
     33 N           1.4910    0.7996   18.1057 N.1     1  UNL1       -0.1908
@<TRIPOS>BOND
     1    23    24    1
     2    24    25    1
     3    24    17    1
     4    17    18    1
     5    18    19    1
     6    19    20    1
     7    20    16    1
     8    16    10    1
     9    10    11   ar
    10    11    12   ar
    11    12    13   ar
    12    13     1    1
    13     1     2    1
    14     2     3    1
    15     3     4    1
    16     4     5   am
    17     5     6    2
    18     5    26    1
    19    26    27   ar
    20    27    28   ar
    21    28    29   ar
    22    29    32    1
    23    32    33    3
    24    29    30   ar
    25    30    31   ar
    26     4     7    1
    27     7     8    1
    28     8     9    2
    29    13    14   ar
    30    14    15   ar
    31    20    21    1
    32    21    22    1
    33    22    17    1
    34    15    10   ar
    35     8     1   am
    36    31    26   ar
@<TRIPOS>MOLECULE
*****
 33 36 0 0 0
SMALL
GASTEIGER

@<TRIPOS>ATOM
      1 N           6.3515   -2.8723   21.0211 N.am    1  UNL1       -0.2555
      2 C           6.9856   -1.5420   20.7413 C.3     1  UNL1        0.1197
      3 C           6.5481   -0.7378   19.5531 C.3     1  UNL1        0.1160
      4 N           5.4766   -1.2638   18.6447 N.am    1  UNL1       -0.2660
      5 C           5.0392   -0.4594   17.4565 C.2     1  UNL1        0.2494
      6 O           3.9677   -0.9854   16.5481 O.2     1  UNL1       -0.2699
      7 C           4.8425   -2.5940   18.9245 C.3     1  UNL1        0.1799
      8 C           5.2800   -3.3983   20.1127 C.2     1  UNL1        0.2497
      9 O           4.6459   -4.7286   20.3925 O.2     1  UNL1       -0.2727
     10 C           7.6637   -5.2853   24.5856 C.ar    1  UNL1        0.1385
     11 C           8.3801   -5.4317   23.2758 C.ar    1  UNL1        0.0382
     12 C           7.9427   -4.6274   22.0877 C.ar    1  UNL1        0.0180
     13 C           6.7889   -3.6766   22.2093 C.ar    1  UNL1        0.0541
     14 C           6.0725   -3.5302   23.5190 C.ar    1  UNL1        0.0180
     15 C           6.5100   -4.3345   24.7072 C.ar    1  UNL1        0.0382
     16 O           8.1012   -6.0896   25.7737 O.3     1  UNL1       -0.4791
     17 N           7.8342   -4.3273   29.9057 N.3     1  UNL1       -0.2737
     18 C           8.8989   -3.8597   28.9583 C.3     1  UNL1        0.0758
     19 C           8.9879   -4.4472   27.5810 C.3     1  UNL1        0.0609
     20 C           8.0122   -5.5021   27.1511 C.3     1  UNL1        0.1687
     21 C           6.9474   -5.9697   28.0985 C.3     1  UNL1        0.0609
     22 C           6.8584   -5.3822   29.4758 C.3     1  UNL1        0.0758
     23 C           8.9909   -3.2963   31.9912 C.3     1  UNL1        0.0173
     24 C           7.7452   -3.7398   31.2830 C.3     1  UNL1        0.0576
     25 C           6.4105   -3.5959   31.9522 C.3     1  UNL1        0.0173
     26 C           5.6733    0.8708   17.1767 C.ar    1  UNL1        0.0536
     27 C           5.1220    2.1129   17.8119 C.ar    1  UNL1        0.0052
     28 C           5.7561    3.4431   17.5321 C.ar    1  UNL1        0.0104
     29 C           6.9416    3.5314   16.6172 C.ar    1  UNL1        0.0685
     30 C           7.4928    2.2893   15.9820 C.ar    1  UNL1        0.0104
     31 C           6.8587    0.9590   16.2619 C.ar    1  UNL1        0.0052
     32 C           7.5756    4.8616   16.3374 C.1     1  UNL1        0.1004
     33 N           8.2098    6.1919   16.0576 N.1     1  UNL1       -0.1908
@<TRIPOS>BOND
     1    23    24    1
     2    24    25    1
     3    24    17    1
     4    17    18    1
     5    18    19    1
     6    19    20    1
     7    20    16    1
     8    16    10    1
     9    10    11   ar
    10    11    12   ar
    11    12    13   ar
    12    13     1    1
    13     1     2    1
    14     2     3    1
    15     3     4    1
    16     4     5   am
    17     5     6    2
    18     5    26    1
    19    26    27   ar
    20    27    28   ar
    21    28    29   ar
    22    29    32    1
    23    32    33    3
    24    29    30   ar
    25    30    31   ar
    26     4     7    1
    27     7     8    1
    28     8     9    2
    29    13    14   ar
    30    14    15   ar
    31    20    21    1
    32    21    22    1
    33    22    17    1
    34    15    10   ar
    35     8     1   am
    36    31    26   ar
@<TRIPOS>MOLECULE
*****
 33 36 0 0 0
SMALL
GASTEIGER

@<TRIPOS>ATOM
      1 N           0.4652    2.1976   25.9226 N.am    1  UNL1       -0.2555
      2 C           1.3477    1.5024   24.9288 C.3     1  UNL1        0.1197
      3 C           1.0559    1.6114   23.4615 C.3     1  UNL1        0.1160
      4 N          -0.1185    2.4156   22.9881 N.am    1  UNL1       -0.2660
      5 C          -0.4104    2.5246   21.5208 C.2     1  UNL1        0.2494
      6 O          -1.5848    3.3288   21.0474 O.2     1  UNL1       -0.2699
      7 C          -1.0010    3.1108   23.9820 C.3     1  UNL1        0.1799
      8 C          -0.7092    3.0018   25.4492 C.2     1  UNL1        0.2497
      9 O          -1.5917    3.6970   26.4432 O.2     1  UNL1       -0.2727
     10 C           1.3408    1.8708   30.3246 C.ar    1  UNL1        0.1385
     11 C           2.2275    2.6994   29.4430 C.ar    1  UNL1        0.0382
     12 C           1.9356    2.8083   27.9757 C.ar    1  UNL1        0.0180
     13 C           0.7571    2.0887   27.3900 C.ar    1  UNL1        0.0541
     14 C          -0.1296    1.2601   28.2715 C.ar    1  UNL1        0.0180
     15 C           0.1622    1.1511   29.7389 C.ar    1  UNL1        0.0382
     16 O           1.6326    1.7618   31.7918 O.3     1  UNL1       -0.4791
     17 N           0.6289    5.1767   34.5452 N.3     1  UNL1       -0.2737
     18 C          -0.0807    5.0396   33.2308 C.3     1  UNL1        0.0758
     19 C           0.2539    3.9013   32.3130 C.3     1  UNL1        0.0609
     20 C           1.2981    2.9001   32.7096 C.3     1  UNL1        0.1687
     21 C           2.0076    3.0372   34.0240 C.3     1  UNL1        0.0609
     22 C           1.6730    4.1755   34.9418 C.3     1  UNL1        0.0758
     23 C           1.3064    6.7975   36.4593 C.3     1  UNL1        0.0173
     24 C           0.2943    6.3150   35.4630 C.3     1  UNL1        0.0576
     25 C          -1.0525    6.9707   35.3846 C.3     1  UNL1        0.0173
     26 C           0.4722    1.8294   20.5269 C.ar    1  UNL1        0.0536
     27 C           1.3940    2.6287   19.6544 C.ar    1  UNL1        0.0052
     28 C           2.2765    1.9335   18.6605 C.ar    1  UNL1        0.0104
     29 C           2.2372    0.4389   18.5391 C.ar    1  UNL1        0.0685
     30 C           1.3154   -0.3604   19.4117 C.ar    1  UNL1        0.0104
     31 C           0.4329    0.3348   20.4056 C.ar    1  UNL1        0.0052
     32 C           3.1198   -0.2563   17.5453 C.1     1  UNL1        0.1004
     33 N           4.0024   -0.9515   16.5514 N.1     1  UNL1       -0.1908
@<TRIPOS>BOND
     1    23    24    1
     2    24    25    1
     3    24    17    1
     4    17    18    1
     5    18    19    1
     6    19    20    1
     7    20    16    1
     8    16    10    1
     9    10    11   ar
    10    11    12   ar
    11    12    13   ar
    12    13     1    1
    13     1     2    1
    14     2     3    1
    15     3     4    1
    16     4     5   am
    17     5     6    2
    18     5    26    1
    19    26    27   ar
    20    27    28   ar
    21    28    29   ar
    22    29    32    1
    23    32    33    3
    24    29    30   ar
    25    30    31   ar
    26     4     7    1
    27     7     8    1
    28     8     9    2
    29    13    14   ar
    30    14    15   ar
    31    20    21    1
    32    21    22    1
    33    22    17    1
    34    15    10   ar
    35     8     1   am
    36    31    26   ar
@<TRIPOS>MOLECULE
*****
 33 36 0 0 0
SMALL
GASTEIGER

@<TRIPOS>ATOM
      1 N           2.2662    0.8112   26.7383 N.am    1  UNL1       -0.2555
      2 C           2.9447    0.2671   25.5162 C.3     1  UNL1        0.1197
      3 C           2.4071    0.5898   24.1536 C.3     1  UNL1        0.1160
      4 N           1.1910    1.4565   24.0130 N.am    1  UNL1       -0.2660
      5 C           0.6534    1.7791   22.6503 C.2     1  UNL1        0.2494
      6 O          -0.5628    2.6459   22.5097 O.2     1  UNL1       -0.2699
      7 C           0.5124    2.0006   25.2351 C.3     1  UNL1        0.1799
      8 C           1.0500    1.6780   26.5977 C.2     1  UNL1        0.2497
      9 O           0.3715    2.2221   27.8199 O.2     1  UNL1       -0.2727
     10 C           3.8789   -0.1566   30.8264 C.ar    1  UNL1        0.1385
     11 C           4.6079    0.8115   29.9424 C.ar    1  UNL1        0.0382
     12 C           4.0703    1.1341   28.5797 C.ar    1  UNL1        0.0180
     13 C           2.8038    0.4886   28.1010 C.ar    1  UNL1        0.0541
     14 C           2.0748   -0.4794   28.9850 C.ar    1  UNL1        0.0180
     15 C           2.6124   -0.8020   30.3477 C.ar    1  UNL1        0.0382
     16 O           4.4165   -0.4791   32.1891 O.3     1  UNL1       -0.4791
     17 N           3.1153    1.9417   35.7523 N.3     1  UNL1       -0.2737
     18 C           2.5083    2.2032   34.4058 C.3     1  UNL1        0.0758
     19 C           2.9421    1.3963   33.2180 C.3     1  UNL1        0.0609
     20 C           3.9828    0.3278   33.3768 C.3     1  UNL1        0.1687
     21 C           4.5897    0.0663   34.7234 C.3     1  UNL1        0.0609
     22 C           4.1560    0.8732   35.9111 C.3     1  UNL1        0.0758
     23 C           1.9201    4.0256   36.7416 C.3     1  UNL1        0.0173
     24 C           2.6815    2.7486   36.9400 C.3     1  UNL1        0.0576
     25 C           3.0091    2.2785   38.3262 C.3     1  UNL1        0.0173
     26 C           1.3319    1.2350   21.4282 C.ar    1  UNL1        0.0536
     27 C           2.4777    1.9813   20.8115 C.ar    1  UNL1        0.0052
     28 C           3.1562    1.4372   19.5895 C.ar    1  UNL1        0.0104
     29 C           2.6890    0.1467   18.9840 C.ar    1  UNL1        0.0685
     30 C           1.5433   -0.5996   19.6007 C.ar    1  UNL1        0.0104
     31 C           0.8647   -0.0554   20.8228 C.ar    1  UNL1        0.0052
     32 C           3.3676   -0.3974   17.7620 C.1     1  UNL1        0.1004
     33 N           4.0462   -0.9415   16.5398 N.1     1  UNL1       -0.1908
@<TRIPOS>BOND
     1    23    24    1
     2    24    25    1
     3    24    17    1
     4    17    18    1
     5    18    19    1
     6    19    20    1
     7    20    16    1
     8    16    10    1
     9    10    11   ar
    10    11    12   ar
    11    12    13   ar
    12    13     1    1
    13     1     2    1
    14     2     3    1
    15     3     4    1
    16     4     5   am
    17     5     6    2
    18     5    26    1
    19    26    27   ar
    20    27    28   ar
    21    28    29   ar
    22    29    32    1
    23    32    33    3
    24    29    30   ar
    25    30    31   ar
    26     4     7    1
    27     7     8    1
    28     8     9    2
    29    13    14   ar
    30    14    15   ar
    31    20    21    1
    32    21    22    1
    33    22    17    1
    34    15    10   ar
    35     8     1   am
    36    31    26   ar
@<TRIPOS>MOLECULE
*****
 33 36 0 0 0
SMALL
GASTEIGER

@<TRIPOS>ATOM
      1 N           2.8483    0.2623   28.2247 N.am    1  UNL1       -0.2555
      2 C           3.2898   -0.6430   27.1132 C.3     1  UNL1        0.1197
      3 C           4.4042   -1.6210   27.3402 C.3     1  UNL1        0.1160
      4 N           5.0772   -1.6937   28.6788 N.am    1  UNL1       -0.2660
      5 C           6.1916   -2.6717   28.9058 C.2     1  UNL1        0.2494
      6 O           6.8646   -2.7444   30.2444 O.2     1  UNL1       -0.2699
      7 C           4.6357   -0.7884   29.7903 C.3     1  UNL1        0.1799
      8 C           3.5213    0.1896   29.5633 C.2     1  UNL1        0.2497
      9 O           3.0798    1.0950   30.6748 O.2     1  UNL1       -0.2727
     10 C          -0.4950    3.1963   27.5436 C.ar    1  UNL1        0.1385
     11 C          -0.8056    1.7508   27.7970 C.ar    1  UNL1        0.0382
     12 C           0.3088    0.7729   28.0240 C.ar    1  UNL1        0.0180
     13 C           1.7339    1.2403   27.9977 C.ar    1  UNL1        0.0541
     14 C           2.0445    2.6857   27.7443 C.ar    1  UNL1        0.0180
     15 C           0.9300    3.6638   27.5172 C.ar    1  UNL1        0.0382
     16 O          -1.6094    4.1743   27.3166 O.3     1  UNL1       -0.4791
     17 N          -4.3030    3.7257   23.7398 N.3     1  UNL1       -0.2737
     18 C          -2.8181    3.8262   23.5526 C.3     1  UNL1        0.0758
     19 C          -1.9203    3.9757   24.7449 C.3     1  UNL1        0.0609
     20 C          -2.5073    4.0248   26.1243 C.3     1  UNL1        0.1687
     21 C          -3.9921    3.9243   26.3115 C.3     1  UNL1        0.0609
     22 C          -4.8900    3.7748   25.1192 C.3     1  UNL1        0.0758
     23 C          -4.6705    2.9743   21.2801 C.3     1  UNL1        0.0173
     24 C          -5.2008    3.5762   22.5475 C.3     1  UNL1        0.0576
     25 C          -6.6290    4.0285   22.6226 C.3     1  UNL1        0.0173
     26 C           6.6330   -3.5770   27.7943 C.ar    1  UNL1        0.0536
     27 C           6.2302   -5.0219   27.7990 C.ar    1  UNL1        0.0052
     28 C           6.6717   -5.9272   26.6875 C.ar    1  UNL1        0.0104
     29 C           7.5159   -5.3876   25.5712 C.ar    1  UNL1        0.0685
     30 C           7.9187   -3.9428   25.5664 C.ar    1  UNL1        0.0104
     31 C           7.4773   -3.0374   26.6781 C.ar    1  UNL1        0.0052
     32 C           7.9574   -6.2929   24.4596 C.1     1  UNL1        0.1004
     33 N           8.3988   -7.1983   23.3480 N.1     1  UNL1       -0.1908
@<TRIPOS>BOND
     1    23    24    1
     2    24    25    1
     3    24    17    1
     4    17    18    1
     5    18    19    1
     6    19    20    1
     7    20    16    1
     8    16    10    1
     9    10    11   ar
    10    11    12   ar
    11    12    13   ar
    12    13     1    1
    13     1     2    1
    14     2     3    1
    15     3     4    1
    16     4     5   am
    17     5     6    2
    18     5    26    1
    19    26    27   ar
    20    27    28   ar
    21    28    29   ar
    22    29    32    1
    23    32    33    3
    24    29    30   ar
    25    30    31   ar
    26     4     7    1
    27     7     8    1
    28     8     9    2
    29    13    14   ar
    30    14    15   ar
    31    20    21    1
    32    21    22    1
    33    22    17    1
    34    15    10   ar
    35     8     1   am
    36    31    26   ar
@<TRIPOS>MOLECULE
*****
 33 36 0 0 0
SMALL
GASTEIGER

@<TRIPOS>ATOM
      1 N           1.6613    2.3606   30.7189 N.am    1  UNL1       -0.2555
      2 C           0.9609    2.4114   32.0444 C.3     1  UNL1        0.1197
      3 C           1.7557    2.3555   33.3152 C.3     1  UNL1        0.1160
      4 N           3.2509    2.2488   33.2606 N.am    1  UNL1       -0.2660
      5 C           4.0458    2.1929   34.5315 C.2     1  UNL1        0.2494
      6 O           5.5410    2.0862   34.4769 O.2     1  UNL1       -0.2699
      7 C           3.9513    2.1980   31.9351 C.3     1  UNL1        0.1799
      8 C           3.1565    2.2539   30.6643 C.2     1  UNL1        0.2497
      9 O           3.8568    2.2031   29.3388 O.2     1  UNL1       -0.2727
     10 C          -0.7232    2.5282   26.9062 C.ar    1  UNL1        0.1385
     11 C          -0.7577    1.2945   27.7588 C.ar    1  UNL1        0.0382
     12 C           0.0371    1.2387   29.0297 C.ar    1  UNL1        0.0180
     13 C           0.8664    2.4165   29.4480 C.ar    1  UNL1        0.0541
     14 C           0.9009    3.6502   28.5955 C.ar    1  UNL1        0.0180
     15 C           0.1061    3.7061   27.3245 C.ar    1  UNL1        0.0382
     16 O          -1.5180    2.5841   25.6354 O.3     1  UNL1       -0.4791
     17 N          -5.4012    4.8545   25.5080 N.3     1  UNL1       -0.2737
     18 C          -4.6779    4.6781   26.8102 C.3     1  UNL1        0.0758
     19 C          -3.3835    3.9213   26.8526 C.3     1  UNL1        0.0609
     20 C          -2.8124    3.3409   25.5929 C.3     1  UNL1        0.1687
     21 C          -3.5357    3.5173   24.2907 C.3     1  UNL1        0.0609
     22 C          -4.8301    4.2741   24.2483 C.3     1  UNL1        0.0758
     23 C          -7.4747    5.6935   24.1865 C.3     1  UNL1        0.0173
     24 C          -6.6956    5.6114   25.4655 C.3     1  UNL1        0.0576
     25 C          -7.2107    6.2861   26.7022 C.3     1  UNL1        0.0173
     26 C           3.3454    2.2437   35.8570 C.ar    1  UNL1        0.0536
     27 C           2.5033    3.4323   36.2152 C.ar    1  UNL1        0.0052
     28 C           1.8030    3.4831   37.5407 C.ar    1  UNL1        0.0104
     29 C           1.9446    2.3453   38.5079 C.ar    1  UNL1        0.0685
     30 C           2.7867    1.1568   38.1497 C.ar    1  UNL1        0.0104
     31 C           3.4871    1.1060   36.8242 C.ar    1  UNL1        0.0052
     32 C           1.2443    2.3962   39.8334 C.1     1  UNL1        0.1004
     33 N           0.5439    2.4470   41.1589 N.1     1  UNL1       -0.1908
@<TRIPOS>BOND
     1    23    24    1
     2    24    25    1
     3    24    17    1
     4    17    18    1
     5    18    19    1
     6    19    20    1
     7    20    16    1
     8    16    10    1
     9    10    11   ar
    10    11    12   ar
    11    12    13   ar
    12    13     1    1
    13     1     2    1
    14     2     3    1
    15     3     4    1
    16     4     5   am
    17     5     6    2
    18     5    26    1
    19    26    27   ar
    20    27    28   ar
    21    28    29   ar
    22    29    32    1
    23    32    33    3
    24    29    30   ar
    25    30    31   ar
    26     4     7    1
    27     7     8    1
    28     8     9    2
    29    13    14   ar
    30    14    15   ar
    31    20    21    1
    32    21    22    1
    33    22    17    1
    34    15    10   ar
    35     8     1   am
    36    31    26   ar
