@<TRIPOS>MOLECULE
*****
 32 36 0 0 0
SMALL
GASTEIGER

@<TRIPOS>ATOM
      1 C          -0.2160    2.6389   20.3372 C.ar    1  UNL1        0.1014
      2 C          -1.0591    3.5471   19.4920 C.ar    1  UNL1        0.0240
      3 C          -2.1244    4.3894   20.1288 C.ar    1  UNL1        0.0404
      4 C          -2.3466    4.3236   21.6108 C.ar    1  UNL1        0.1639
      5 N          -3.3142    5.0307   22.5131 N.ar    1  UNL1       -0.2234
      6 C          -3.0690    4.5595   23.9158 C.ar    1  UNL1        0.1197
      7 C          -1.9499    3.5612   23.8806 C.ar    1  UNL1        0.1035
      8 N          -1.5035    3.4154   22.4560 N.ar    1  UNL1       -0.2107
      9 N          -0.4382    2.5731   21.8192 N.ar    1  UNL1       -0.1638
     10 C           2.9800    0.1118   18.4268 C.ar    1  UNL1        0.0536
     11 C           1.9108   -0.5332   19.2581 C.ar    1  UNL1        0.0046
     12 C           0.8456    0.3092   19.8949 C.ar    1  UNL1        0.0017
     13 C           0.8493    1.7965   19.7004 C.ar    1  UNL1        0.0194
     14 C           1.9184    2.4415   18.8691 C.ar    1  UNL1        0.0017
     15 C           2.9838    1.5991   18.2323 C.ar    1  UNL1        0.0046
     16 C           8.8436   -2.4122   20.9756 C.3     1  UNL1        0.0897
     17 N           7.6440   -1.9918   20.1792 N.3     1  UNL1       -0.2686
     18 C           6.5788   -1.1495   20.8160 C.3     1  UNL1        0.0939
     19 C           5.3791   -0.7290   20.0196 C.3     1  UNL1        0.1110
     20 N           5.2448   -1.1510   18.5864 N.am    1  UNL1       -0.2732
     21 C           4.0453   -0.7306   17.7900 C.2     1  UNL1        0.2491
     22 O           3.9110   -1.1526   16.3569 O.2     1  UNL1       -0.2699
     23 C           6.3102   -1.9935   17.9497 C.3     1  UNL1        0.1110
     24 C           7.5098   -2.4138   18.7461 C.3     1  UNL1        0.0939
     25 C          -1.3777    2.8360   25.0624 C.ar    1  UNL1        0.0193
     26 C          -1.9707    3.0380   26.4253 C.ar    1  UNL1        0.0022
     27 C          -1.3985    2.3128   27.6071 C.ar    1  UNL1        0.0103
     28 C          -0.2333    1.3857   27.4261 C.ar    1  UNL1        0.0684
     29 C           0.3597    1.1838   26.0632 C.ar    1  UNL1        0.0103
     30 C          -0.2125    1.9090   24.8813 C.ar    1  UNL1        0.0022
     31 C           0.3389    0.6605   28.6079 C.1     1  UNL1        0.1004
     32 N           0.9110   -0.0646   29.7897 N.1     1  UNL1       -0.1908
@<TRIPOS>BOND
     1    16    17    1
     2    17    18    1
     3    18    19    1
     4    19    20    1
     5    20    21   am
     6    21    22    2
     7    21    10    1
     8    10    11   ar
     9    11    12   ar
    10    12    13   ar
    11    13     1    1
    12     1     2   ar
    13     2     3   ar
    14     3     4   ar
    15     4     5   ar
    16     5     6   ar
    17     6     7   ar
    18     7    25    1
    19    25    26   ar
    20    26    27   ar
    21    27    28   ar
    22    28    31    1
    23    31    32    3
    24    28    29   ar
    25    29    30   ar
    26     7     8   ar
    27     8     9   ar
    28    13    14   ar
    29    14    15   ar
    30    20    23    1
    31    23    24    1
    32    24    17    1
    33    15    10   ar
    34     9     1   ar
    35     8     4   ar
    36    30    25   ar
@<TRIPOS>MOLECULE
*****
 32 36 0 0 0
SMALL
GASTEIGER

@<TRIPOS>ATOM
      1 C          -0.6637    2.9176   23.1369 C.ar    1  UNL1        0.1014
      2 C          -1.5659    4.0599   22.7750 C.ar    1  UNL1        0.0240
      3 C          -1.7329    4.4575   21.3383 C.ar    1  UNL1        0.0404
      4 C          -0.9978    3.7128   20.2637 C.ar    1  UNL1        0.1639
      5 N          -0.9646    3.8752   18.7728 N.ar    1  UNL1       -0.2234
      6 C          -0.0420    2.8332   18.2134 C.ar    1  UNL1        0.1197
      7 C           0.4951    2.0268   19.3585 C.ar    1  UNL1        0.1035
      8 N          -0.0956    2.5704   20.6256 N.ar    1  UNL1       -0.2107
      9 N           0.0714    2.1728   22.0623 N.ar    1  UNL1       -0.1638
     10 C          -0.1625    1.7246   27.4469 C.ar    1  UNL1        0.0536
     11 C           0.8716    1.3302   26.4344 C.ar    1  UNL1        0.0046
     12 C           0.7045    1.7278   24.9978 C.ar    1  UNL1        0.0017
     13 C          -0.4967    2.5199   24.5736 C.ar    1  UNL1        0.0194
     14 C          -1.5307    2.9143   25.5861 C.ar    1  UNL1        0.0017
     15 C          -1.3636    2.5167   27.0228 C.ar    1  UNL1        0.0046
     16 C           2.2673    5.2348   32.8343 C.3     1  UNL1        0.0897
     17 N           1.7016    4.2578   31.8466 N.3     1  UNL1       -0.2686
     18 C           1.5345    4.6555   30.4100 C.3     1  UNL1        0.0939
     19 C           0.9688    3.6785   29.4223 C.3     1  UNL1        0.1110
     20 N           0.5703    2.3039   29.8712 N.am    1  UNL1       -0.2732
     21 C           0.0046    1.3269   28.8836 C.2     1  UNL1        0.2491
     22 O          -0.3940   -0.0477   29.3325 O.2     1  UNL1       -0.2699
     23 C           0.7374    1.9063   31.3079 C.3     1  UNL1        0.1110
     24 C           1.3031    2.8832   32.2956 C.3     1  UNL1        0.0939
     25 C           1.4545    0.8784   19.2548 C.ar    1  UNL1        0.0193
     26 C           2.5524    0.9083   18.2332 C.ar    1  UNL1        0.0022
     27 C           3.5118   -0.2401   18.1294 C.ar    1  UNL1        0.0103
     28 C           3.3733   -1.4184   19.0472 C.ar    1  UNL1        0.0684
     29 C           2.2754   -1.4482   20.0688 C.ar    1  UNL1        0.0103
     30 C           1.3160   -0.2999   20.1726 C.ar    1  UNL1        0.0022
     31 C           4.3327   -2.5668   18.9435 C.1     1  UNL1        0.1004
     32 N           5.2921   -3.7151   18.8397 N.1     1  UNL1       -0.1908
@<TRIPOS>BOND
     1    16    17    1
     2    17    18    1
     3    18    19    1
     4    19    20    1
     5    20    21   am
     6    21    22    2
     7    21    10    1
     8    10    11   ar
     9    11    12   ar
    10    12    13   ar
    11    13     1    1
    12     1     2   ar
    13     2     3   ar
    14     3     4   ar
    15     4     5   ar
    16     5     6   ar
    17     6     7   ar
    18     7    25    1
    19    25    26   ar
    20    26    27   ar
    21    27    28   ar
    22    28    31    1
    23    31    32    3
    24    28    29   ar
    25    29    30   ar
    26     7     8   ar
    27     8     9   ar
    28    13    14   ar
    29    14    15   ar
    30    20    23    1
    31    23    24    1
    32    24    17    1
    33    15    10   ar
    34     9     1   ar
    35     8     4   ar
    36    30    25   ar
@<TRIPOS>MOLECULE
*****
 32 36 0 0 0
SMALL
GASTEIGER

@<TRIPOS>ATOM
      1 C           0.6591    1.5274   22.9994 C.ar    1  UNL1        0.1014
      2 C          -0.2816    2.4587   22.2940 C.ar    1  UNL1        0.0240
      3 C          -0.2627    2.5518   20.7971 C.ar    1  UNL1        0.0404
      4 C           0.6969    1.7136   20.0055 C.ar    1  UNL1        0.1639
      5 N           0.9435    1.5923   18.5308 N.ar    1  UNL1       -0.2234
      6 C           2.0366    0.5860   18.3249 C.ar    1  UNL1        0.1197
      7 C           2.4656    0.0854   19.6723 C.ar    1  UNL1        0.1035
      8 N           1.6376    0.7823   20.7109 N.ar    1  UNL1       -0.2107
      9 N           1.6188    0.6892   22.2079 N.ar    1  UNL1       -0.1638
     10 C           0.6025    1.2480   27.4905 C.ar    1  UNL1        0.0536
     11 C          -0.6339    1.6624   26.7491 C.ar    1  UNL1        0.0046
     12 C          -0.6150    1.7555   25.2521 C.ar    1  UNL1        0.0017
     13 C           0.6403    1.4343   24.4965 C.ar    1  UNL1        0.0194
     14 C           1.8767    1.0199   25.2378 C.ar    1  UNL1        0.0017
     15 C           1.8578    0.9268   26.7348 C.ar    1  UNL1        0.0046
     16 C           0.7485    6.1507   32.3062 C.3     1  UNL1        0.0897
     17 N           0.7072    4.9018   31.4765 N.3     1  UNL1       -0.2686
     18 C           0.7262    4.9949   29.9795 C.3     1  UNL1        0.0939
     19 C           0.6849    3.7459   29.1498 C.3     1  UNL1        0.1110
     20 N           0.6248    2.4039   29.8171 N.am    1  UNL1       -0.2732
     21 C           0.5836    1.1549   28.9874 C.2     1  UNL1        0.2491
     22 O           0.5235   -0.1871   29.6547 O.2     1  UNL1       -0.2699
     23 C           0.6059    2.3108   31.3141 C.3     1  UNL1        0.1110
     24 C           0.6471    3.5597   32.1438 C.3     1  UNL1        0.0939
     25 C           3.5349   -0.9333   19.9349 C.ar    1  UNL1        0.0193
     26 C           3.2342   -2.3942   19.7761 C.ar    1  UNL1        0.0022
     27 C           4.3035   -3.4129   20.0387 C.ar    1  UNL1        0.0103
     28 C           5.6734   -2.9707   20.4602 C.ar    1  UNL1        0.0684
     29 C           5.9741   -1.5097   20.6190 C.ar    1  UNL1        0.0103
     30 C           4.9048   -0.4911   20.3564 C.ar    1  UNL1        0.0022
     31 C           6.7427   -3.9894   20.7228 C.1     1  UNL1        0.1004
     32 N           7.8119   -5.0080   20.9855 N.1     1  UNL1       -0.1908
@<TRIPOS>BOND
     1    16    17    1
     2    17    18    1
     3    18    19    1
     4    19    20    1
     5    20    21   am
     6    21    22    2
     7    21    10    1
     8    10    11   ar
     9    11    12   ar
    10    12    13   ar
    11    13     1    1
    12     1     2   ar
    13     2     3   ar
    14     3     4   ar
    15     4     5   ar
    16     5     6   ar
    17     6     7   ar
    18     7    25    1
    19    25    26   ar
    20    26    27   ar
    21    27    28   ar
    22    28    31    1
    23    31    32    3
    24    28    29   ar
    25    29    30   ar
    26     7     8   ar
    27     8     9   ar
    28    13    14   ar
    29    14    15   ar
    30    20    23    1
    31    23    24    1
    32    24    17    1
    33    15    10   ar
    34     9     1   ar
    35     8     4   ar
    36    30    25   ar
@<TRIPOS>MOLECULE
*****
 32 36 0 0 0
SMALL
GASTEIGER

@<TRIPOS>ATOM
      1 C           0.0286    2.1425   25.2790 C.ar    1  UNL1        0.1014
      2 C          -1.0312    3.1578   24.9694 C.ar    1  UNL1        0.0240
      3 C          -1.4474    3.3980   23.5485 C.ar    1  UNL1        0.0404
      4 C          -0.8038    2.6229   22.4372 C.ar    1  UNL1        0.1639
      5 N          -1.0065    2.6430   20.9510 N.ar    1  UNL1       -0.2234
      6 C          -0.0719    1.6401   20.3422 C.ar    1  UNL1        0.1197
      7 C           0.7083    1.0002   21.4521 C.ar    1  UNL1        0.1035
      8 N           0.2560    1.6076   22.7468 N.ar    1  UNL1       -0.2107
      9 N           0.6722    1.3674   24.1677 N.ar    1  UNL1       -0.1638
     10 C           1.2774    1.4218   29.5418 C.ar    1  UNL1        0.0536
     11 C           1.9459    2.4959   28.7358 C.ar    1  UNL1        0.0046
     12 C           1.5296    2.7361   27.3149 C.ar    1  UNL1        0.0017
     13 C           0.4449    1.9023   26.7000 C.ar    1  UNL1        0.0194
     14 C          -0.2236    0.8283   27.5059 C.ar    1  UNL1        0.0017
     15 C           0.1927    0.5880   28.9269 C.ar    1  UNL1        0.0046
     16 C           6.5031   -2.2041   32.1482 C.3     1  UNL1        0.0897
     17 N           5.3008   -1.3577   31.8519 N.3     1  UNL1       -0.2686
     18 C           4.8845   -1.1175   30.4310 C.3     1  UNL1        0.0939
     19 C           3.6821   -0.2710   30.1346 C.3     1  UNL1        0.1110
     20 N           2.8960    0.3352   31.2591 N.am    1  UNL1       -0.2732
     21 C           1.6937    1.1816   30.9627 C.2     1  UNL1        0.2491
     22 O           0.9076    1.7879   32.0873 O.2     1  UNL1       -0.2699
     23 C           3.3124    0.0950   32.6801 C.3     1  UNL1        0.1110
     24 C           4.5147   -0.7515   32.9764 C.3     1  UNL1        0.0939
     25 C           1.7568   -0.0609   21.2948 C.ar    1  UNL1        0.0193
     26 C           2.6985   -0.3580   22.4239 C.ar    1  UNL1        0.0022
     27 C           3.7470   -1.4190   22.2666 C.ar    1  UNL1        0.0103
     28 C           3.8539   -2.1831   20.9803 C.ar    1  UNL1        0.0684
     29 C           2.9122   -1.8860   19.8511 C.ar    1  UNL1        0.0103
     30 C           1.8637   -0.8249   20.0084 C.ar    1  UNL1        0.0022
     31 C           4.9024   -3.2441   20.8230 C.1     1  UNL1        0.1004
     32 N           5.9509   -4.3052   20.6657 N.1     1  UNL1       -0.1908
@<TRIPOS>BOND
     1    16    17    1
     2    17    18    1
     3    18    19    1
     4    19    20    1
     5    20    21   am
     6    21    22    2
     7    21    10    1
     8    10    11   ar
     9    11    12   ar
    10    12    13   ar
    11    13     1    1
    12     1     2   ar
    13     2     3   ar
    14     3     4   ar
    15     4     5   ar
    16     5     6   ar
    17     6     7   ar
    18     7    25    1
    19    25    26   ar
    20    26    27   ar
    21    27    28   ar
    22    28    31    1
    23    31    32    3
    24    28    29   ar
    25    29    30   ar
    26     7     8   ar
    27     8     9   ar
    28    13    14   ar
    29    14    15   ar
    30    20    23    1
    31    23    24    1
    32    24    17    1
    33    15    10   ar
    34     9     1   ar
    35     8     4   ar
    36    30    25   ar
@<TRIPOS>MOLECULE
*****
 32 36 0 0 0
SMALL
GASTEIGER

@<TRIPOS>ATOM
      1 C           0.0849    2.1159   25.2830 C.ar    1  UNL1        0.1014
      2 C          -0.9629    3.1578   25.0247 C.ar    1  UNL1        0.0240
      3 C          -1.4031    3.4465   23.6201 C.ar    1  UNL1        0.0404
      4 C          -0.7955    2.6935   22.4739 C.ar    1  UNL1        0.1639
      5 N          -1.0275    2.7606   20.9934 N.ar    1  UNL1       -0.2234
      6 C          -0.1230    1.7602   20.3368 C.ar    1  UNL1        0.1197
      7 C           0.6678    1.0749   21.4114 C.ar    1  UNL1        0.1035
      8 N           0.2522    1.6517   22.7322 N.ar    1  UNL1       -0.2107
      9 N           0.6924    1.3629   24.1367 N.ar    1  UNL1       -0.1638
     10 C           1.4056    1.2494   29.4967 C.ar    1  UNL1        0.0536
     11 C           2.3657    1.8627   28.5208 C.ar    1  UNL1        0.0046
     12 C           1.9255    2.1515   27.1163 C.ar    1  UNL1        0.0017
     13 C           0.5251    1.8271   26.6876 C.ar    1  UNL1        0.0194
     14 C          -0.4350    1.2139   27.6634 C.ar    1  UNL1        0.0017
     15 C           0.0053    0.9250   29.0680 C.ar    1  UNL1        0.0046
     16 C           1.3469    5.1872   35.1305 C.3     1  UNL1        0.0897
     17 N           1.4717    4.1305   34.0732 N.3     1  UNL1       -0.2686
     18 C           1.0314    4.4193   32.6687 C.3     1  UNL1        0.0939
     19 C           1.1562    3.3627   31.6113 C.3     1  UNL1        0.1110
     20 N           1.7212    2.0173   31.9585 N.am    1  UNL1       -0.2732
     21 C           1.8459    0.9606   30.9012 C.2     1  UNL1        0.2491
     22 O           2.4110   -0.3848   31.2484 O.2     1  UNL1       -0.2699
     23 C           2.1615    1.7285   33.3631 C.3     1  UNL1        0.1110
     24 C           2.0367    2.7851   34.4204 C.3     1  UNL1        0.0939
     25 C           1.6942    0.0012   21.2020 C.ar    1  UNL1        0.0193
     26 C           2.6543   -0.3432   22.3018 C.ar    1  UNL1        0.0022
     27 C           3.6807   -1.4169   22.0924 C.ar    1  UNL1        0.0103
     28 C           3.7470   -2.1462   20.7833 C.ar    1  UNL1        0.0684
     29 C           2.7868   -1.8017   19.6836 C.ar    1  UNL1        0.0103
     30 C           1.7605   -0.7280   19.8930 C.ar    1  UNL1        0.0022
     31 C           4.7733   -3.2198   20.5740 C.1     1  UNL1        0.1004
     32 N           5.7996   -4.2935   20.3646 N.1     1  UNL1       -0.1908
@<TRIPOS>BOND
     1    16    17    1
     2    17    18    1
     3    18    19    1
     4    19    20    1
     5    20    21   am
     6    21    22    2
     7    21    10    1
     8    10    11   ar
     9    11    12   ar
    10    12    13   ar
    11    13     1    1
    12     1     2   ar
    13     2     3   ar
    14     3     4   ar
    15     4     5   ar
    16     5     6   ar
    17     6     7   ar
    18     7    25    1
    19    25    26   ar
    20    26    27   ar
    21    27    28   ar
    22    28    31    1
    23    31    32    3
    24    28    29   ar
    25    29    30   ar
    26     7     8   ar
    27     8     9   ar
    28    13    14   ar
    29    14    15   ar
    30    20    23    1
    31    23    24    1
    32    24    17    1
    33    15    10   ar
    34     9     1   ar
    35     8     4   ar
    36    30    25   ar
@<TRIPOS>MOLECULE
*****
 32 36 0 0 0
SMALL
GASTEIGER

@<TRIPOS>ATOM
      1 C          -0.2371    2.4347   22.0562 C.ar    1  UNL1        0.1014
      2 C          -1.2331    3.3785   21.4503 C.ar    1  UNL1        0.0240
      3 C          -2.1868    4.1295   22.3314 C.ar    1  UNL1        0.0404
      4 C          -2.1446    3.9366   23.8183 C.ar    1  UNL1        0.1639
      5 N          -2.9529    4.5348   24.9314 N.ar    1  UNL1       -0.2234
      6 C          -2.4565    3.9606   26.2251 C.ar    1  UNL1        0.1197
      7 C          -1.3413    3.0076   25.9117 C.ar    1  UNL1        0.1035
      8 N          -1.1486    2.9928   24.4242 N.ar    1  UNL1       -0.2107
      9 N          -0.1948    2.2418   23.5431 N.ar    1  UNL1       -0.1638
     10 C           2.6243    0.1816   19.4129 C.ar    1  UNL1        0.0536
     11 C           2.9145    1.6037   19.7918 C.ar    1  UNL1        0.0046
     12 C           1.9607    2.3547   20.6729 C.ar    1  UNL1        0.0017
     13 C           0.7167    1.6836   21.1751 C.ar    1  UNL1        0.0194
     14 C           0.4265    0.2616   20.7962 C.ar    1  UNL1        0.0017
     15 C           1.3803   -0.4895   19.9151 C.ar    1  UNL1        0.0046
     16 C           7.9286   -3.9018   20.9747 C.3     1  UNL1        0.0897
     17 N           6.8410   -3.0687   20.3640 N.3     1  UNL1       -0.2686
     18 C           5.8872   -2.3177   21.2450 C.3     1  UNL1        0.0939
     19 C           4.7995   -1.4846   20.6343 C.3     1  UNL1        0.1110
     20 N           4.6657   -1.4025   19.1426 N.am    1  UNL1       -0.2732
     21 C           3.5781   -0.5694   18.5319 C.2     1  UNL1        0.2491
     22 O           3.4443   -0.4873   17.0401 O.2     1  UNL1       -0.2699
     23 C           5.6196   -2.1535   18.2615 C.3     1  UNL1        0.1110
     24 C           6.7072   -2.9866   18.8722 C.3     1  UNL1        0.0939
     25 C          -0.5567    2.2095   26.9103 C.ar    1  UNL1        0.0193
     26 C           0.9353    2.3496   26.9767 C.ar    1  UNL1        0.0022
     27 C           1.7199    1.5515   27.9753 C.ar    1  UNL1        0.0103
     28 C           1.0127    0.6133   28.9077 C.ar    1  UNL1        0.0684
     29 C          -0.4793    0.4731   28.8414 C.ar    1  UNL1        0.0103
     30 C          -1.2639    1.2712   27.8427 C.ar    1  UNL1        0.0022
     31 C           1.7973   -0.1848   29.9064 C.1     1  UNL1        0.1004
     32 N           2.5819   -0.9830   30.9051 N.1     1  UNL1       -0.1908
@<TRIPOS>BOND
     1    16    17    1
     2    17    18    1
     3    18    19    1
     4    19    20    1
     5    20    21   am
     6    21    22    2
     7    21    10    1
     8    10    11   ar
     9    11    12   ar
    10    12    13   ar
    11    13     1    1
    12     1     2   ar
    13     2     3   ar
    14     3     4   ar
    15     4     5   ar
    16     5     6   ar
    17     6     7   ar
    18     7    25    1
    19    25    26   ar
    20    26    27   ar
    21    27    28   ar
    22    28    31    1
    23    31    32    3
    24    28    29   ar
    25    29    30   ar
    26     7     8   ar
    27     8     9   ar
    28    13    14   ar
    29    14    15   ar
    30    20    23    1
    31    23    24    1
    32    24    17    1
    33    15    10   ar
    34     9     1   ar
    35     8     4   ar
    36    30    25   ar
@<TRIPOS>MOLECULE
*****
 32 36 0 0 0
SMALL
GASTEIGER

@<TRIPOS>ATOM
      1 C          -0.8520    2.8375   25.2527 C.ar    1  UNL1        0.1014
      2 C          -2.0319    3.7635   25.2389 C.ar    1  UNL1        0.0240
      3 C          -2.6281    4.1992   23.9333 C.ar    1  UNL1        0.0404
      4 C          -2.0443    3.7089   22.6415 C.ar    1  UNL1        0.1639
      5 N          -2.4158    3.9652   21.2109 N.ar    1  UNL1       -0.2234
      6 C          -1.4654    3.1975   20.3406 C.ar    1  UNL1        0.1197
      7 C          -0.5066    2.4668   21.2332 C.ar    1  UNL1        0.1035
      8 N          -0.8644    2.7829   22.6552 N.ar    1  UNL1       -0.2107
      9 N          -0.2682    2.3472   23.9609 N.ar    1  UNL1       -0.1638
     10 C           0.9367    1.5302   29.1696 C.ar    1  UNL1        0.0536
     11 C          -0.4499    1.0964   28.7963 C.ar    1  UNL1        0.0046
     12 C          -1.0461    1.5322   27.4907 C.ar    1  UNL1        0.0017
     13 C          -0.2557    2.4017   26.5584 C.ar    1  UNL1        0.0194
     14 C           1.1308    2.8354   26.9316 C.ar    1  UNL1        0.0017
     15 C           1.7270    2.3997   28.2373 C.ar    1  UNL1        0.0046
     16 C           1.4892    4.8138   35.1830 C.3     1  UNL1        0.0897
     17 N           1.5001    3.8840   34.0061 N.3     1  UNL1       -0.2686
     18 C           0.9040    4.3197   32.7005 C.3     1  UNL1        0.0939
     19 C           0.9149    3.3899   31.5235 C.3     1  UNL1        0.1110
     20 N           1.5219    2.0243   31.6522 N.am    1  UNL1       -0.2732
     21 C           1.5328    1.0944   30.4752 C.2     1  UNL1        0.2491
     22 O           2.1399   -0.2712   30.6039 O.2     1  UNL1       -0.2699
     23 C           2.1181    1.5885   32.9579 C.3     1  UNL1        0.1110
     24 C           2.1072    2.5184   34.1348 C.3     1  UNL1        0.0939
     25 C           0.6134    1.5764   20.7830 C.ar    1  UNL1        0.0193
     26 C           0.3990    0.0954   20.6799 C.ar    1  UNL1        0.0022
     27 C           1.5189   -0.7950   20.2296 C.ar    1  UNL1        0.0103
     28 C           2.8534   -0.2045   19.8824 C.ar    1  UNL1        0.0684
     29 C           3.0678    1.2765   19.9855 C.ar    1  UNL1        0.0103
     30 C           1.9478    2.1669   20.4358 C.ar    1  UNL1        0.0022
     31 C           3.9734   -1.0950   19.4321 C.1     1  UNL1        0.1004
     32 N           5.0933   -1.9854   18.9819 N.1     1  UNL1       -0.1908
@<TRIPOS>BOND
     1    16    17    1
     2    17    18    1
     3    18    19    1
     4    19    20    1
     5    20    21   am
     6    21    22    2
     7    21    10    1
     8    10    11   ar
     9    11    12   ar
    10    12    13   ar
    11    13     1    1
    12     1     2   ar
    13     2     3   ar
    14     3     4   ar
    15     4     5   ar
    16     5     6   ar
    17     6     7   ar
    18     7    25    1
    19    25    26   ar
    20    26    27   ar
    21    27    28   ar
    22    28    31    1
    23    31    32    3
    24    28    29   ar
    25    29    30   ar
    26     7     8   ar
    27     8     9   ar
    28    13    14   ar
    29    14    15   ar
    30    20    23    1
    31    23    24    1
    32    24    17    1
    33    15    10   ar
    34     9     1   ar
    35     8     4   ar
    36    30    25   ar
@<TRIPOS>MOLECULE
*****
 32 36 0 0 0
SMALL
GASTEIGER

@<TRIPOS>ATOM
      1 C           0.7761    1.8260   22.9180 C.ar    1  UNL1        0.1014
      2 C          -0.2392    2.6489   22.1819 C.ar    1  UNL1        0.0240
      3 C          -0.3552    2.5386   20.6905 C.ar    1  UNL1        0.0404
      4 C           0.5440    1.6054   19.9352 C.ar    1  UNL1        0.1639
      5 N           0.6603    1.2868   18.4740 N.ar    1  UNL1       -0.2234
      6 C           1.7475    0.2669   18.3072 C.ar    1  UNL1        0.1197
      7 C           2.3032   -0.0447   19.6652 C.ar    1  UNL1        0.1035
      8 N           1.5593    0.7825   20.6714 N.ar    1  UNL1       -0.2107
      9 N           1.6754    0.8928   22.1628 N.ar    1  UNL1       -0.1638
     10 C           1.1243    2.1569   27.3924 C.ar    1  UNL1        0.0536
     11 C           2.1299    2.8349   26.5096 C.ar    1  UNL1        0.0046
     12 C           2.0138    2.7246   25.0182 C.ar    1  UNL1        0.0017
     13 C           0.8921    1.9363   24.4095 C.ar    1  UNL1        0.0194
     14 C          -0.1134    1.2583   25.2922 C.ar    1  UNL1        0.0017
     15 C           0.0027    1.3686   26.7837 C.ar    1  UNL1        0.0046
     16 C           4.6444   -1.6276   31.9240 C.3     1  UNL1        0.0897
     17 N           3.7934   -0.6539   31.1640 N.3     1  UNL1       -0.2686
     18 C           3.6773   -0.7642   29.6726 C.3     1  UNL1        0.0939
     19 C           2.8263    0.2095   28.9125 C.3     1  UNL1        0.1110
     20 N           2.0914    1.2935   29.6438 N.am    1  UNL1       -0.2732
     21 C           1.2404    2.2671   28.8838 C.2     1  UNL1        0.2491
     22 O           0.5055    3.3511   29.6152 O.2     1  UNL1       -0.2699
     23 C           2.2075    1.4037   31.1353 C.3     1  UNL1        0.1110
     24 C           3.0585    0.4300   31.8953 C.3     1  UNL1        0.0939
     25 C           3.4085   -1.0135   19.9645 C.ar    1  UNL1        0.0193
     26 C           3.2393   -2.4682   19.6399 C.ar    1  UNL1        0.0022
     27 C           4.3446   -3.4370   19.9392 C.ar    1  UNL1        0.0103
     28 C           5.6193   -2.9512   20.5631 C.ar    1  UNL1        0.0684
     29 C           5.7885   -1.4965   20.8877 C.ar    1  UNL1        0.0103
     30 C           4.6831   -0.5277   20.5884 C.ar    1  UNL1        0.0022
     31 C           6.7246   -3.9200   20.8625 C.1     1  UNL1        0.1004
     32 N           7.8300   -4.8888   21.1618 N.1     1  UNL1       -0.1908
@<TRIPOS>BOND
     1    16    17    1
     2    17    18    1
     3    18    19    1
     4    19    20    1
     5    20    21   am
     6    21    22    2
     7    21    10    1
     8    10    11   ar
     9    11    12   ar
    10    12    13   ar
    11    13     1    1
    12     1     2   ar
    13     2     3   ar
    14     3     4   ar
    15     4     5   ar
    16     5     6   ar
    17     6     7   ar
    18     7    25    1
    19    25    26   ar
    20    26    27   ar
    21    27    28   ar
    22    28    31    1
    23    31    32    3
    24    28    29   ar
    25    29    30   ar
    26     7     8   ar
    27     8     9   ar
    28    13    14   ar
    29    14    15   ar
    30    20    23    1
    31    23    24    1
    32    24    17    1
    33    15    10   ar
    34     9     1   ar
    35     8     4   ar
    36    30    25   ar
@<TRIPOS>MOLECULE
*****
 32 36 0 0 0
SMALL
GASTEIGER

@<TRIPOS>ATOM
      1 C           5.0013   -1.9952   24.0749 C.ar    1  UNL1        0.1014
      2 C           5.8111   -3.2573   24.1087 C.ar    1  UNL1        0.0240
      3 C           5.9364   -4.1012   22.8750 C.ar    1  UNL1        0.0404
      4 C           5.2519   -3.6830   21.6075 C.ar    1  UNL1        0.1639
      5 N           5.1951   -4.3068   20.2445 N.ar    1  UNL1       -0.2234
      6 C           4.3501   -3.4302   19.3684 C.ar    1  UNL1        0.1197
      7 C           3.8847   -2.2646   20.1899 C.ar    1  UNL1        0.1035
      8 N           4.4421   -2.4208   21.5737 N.ar    1  UNL1       -0.2107
      9 N           4.3168   -1.5769   22.8074 N.ar    1  UNL1       -0.1638
     10 C           4.6253    0.5367   27.7761 C.ar    1  UNL1        0.0536
     11 C           3.3967   -0.0223   27.1217 C.ar    1  UNL1        0.0046
     12 C           3.5221   -0.8662   25.8881 C.ar    1  UNL1        0.0017
     13 C           4.8760   -1.1512   25.3087 C.ar    1  UNL1        0.0194
     14 C           6.1046   -0.5922   25.9630 C.ar    1  UNL1        0.0017
     15 C           5.9793    0.2517   27.1967 C.ar    1  UNL1        0.0046
     16 C           4.5099   -1.2025   34.4252 C.3     1  UNL1        0.0897
     17 N           4.5074   -0.5567   33.0714 N.3     1  UNL1       -0.2686
     18 C           4.6328   -1.4006   31.8377 C.3     1  UNL1        0.0939
     19 C           4.6303   -0.7548   30.4838 C.3     1  UNL1        0.1110
     20 N           4.5025    0.7349   30.3636 N.am    1  UNL1       -0.2732
     21 C           4.5000    1.3806   29.0098 C.2     1  UNL1        0.2491
     22 O           4.3721    2.8703   28.8896 O.2     1  UNL1       -0.2699
     23 C           4.3771    1.5788   31.5974 C.3     1  UNL1        0.1110
     24 C           4.3796    0.9330   32.9512 C.3     1  UNL1        0.0939
     25 C           3.0148   -1.1401   19.7116 C.ar    1  UNL1        0.0193
     26 C           3.5194   -0.1963   18.6606 C.ar    1  UNL1        0.0022
     27 C           2.6495    0.9282   18.1823 C.ar    1  UNL1        0.0103
     28 C           1.2749    1.1088   18.7549 C.ar    1  UNL1        0.0684
     29 C           0.7703    0.1649   19.8058 C.ar    1  UNL1        0.0103
     30 C           1.6402   -0.9595   20.2841 C.ar    1  UNL1        0.0022
     31 C           0.4050    2.2332   18.2765 C.1     1  UNL1        0.1004
     32 N          -0.4650    3.3577   17.7982 N.1     1  UNL1       -0.1908
@<TRIPOS>BOND
     1    16    17    1
     2    17    18    1
     3    18    19    1
     4    19    20    1
     5    20    21   am
     6    21    22    2
     7    21    10    1
     8    10    11   ar
     9    11    12   ar
    10    12    13   ar
    11    13     1    1
    12     1     2   ar
    13     2     3   ar
    14     3     4   ar
    15     4     5   ar
    16     5     6   ar
    17     6     7   ar
    18     7    25    1
    19    25    26   ar
    20    26    27   ar
    21    27    28   ar
    22    28    31    1
    23    31    32    3
    24    28    29   ar
    25    29    30   ar
    26     7     8   ar
    27     8     9   ar
    28    13    14   ar
    29    14    15   ar
    30    20    23    1
    31    23    24    1
    32    24    17    1
    33    15    10   ar
    34     9     1   ar
    35     8     4   ar
    36    30    25   ar
