@<TRIPOS>MOLECULE
*****
 29 32 0 0 0
SMALL
GASTEIGER

@<TRIPOS>ATOM
      1 C           1.4182    3.9135   19.5489 C.3     1  UNL1        0.0233
      2 C           1.3942    2.4256   19.7376 C.3     1  UNL1        0.0953
      3 C           2.5441    1.5901   19.2584 C.3     1  UNL1        0.1106
      4 N           2.5201    0.1022   19.4471 N.pl3   1  UNL1       -0.3041
      5 C           1.3461   -0.5502   20.1151 C.3     1  UNL1        0.1123
      6 C           0.1962    0.2852   20.5943 C.3     1  UNL1        0.1149
      7 N           0.2202    1.7731   20.4056 N.pl3   1  UNL1       -0.2777
      8 C          -0.9298    2.6086   20.8848 C.ar    1  UNL1        0.2035
      9 N          -2.0685    2.9187   19.9590 N.ar    1  UNL1       -0.2133
     10 C          -3.2185    3.7541   20.4382 C.ar    1  UNL1        0.1065
     11 C          -3.2297    4.2794   21.8432 C.ar    1  UNL1        0.0815
     12 C          -2.0909    3.9693   22.7690 C.ar    1  UNL1        0.2646
     13 O          -2.1021    4.4945   24.1740 O.2     1  UNL1       -0.2668
     14 N          -0.9409    3.1338   22.2898 N.ar    1  UNL1       -0.2667
     15 C           0.1978    2.8237   23.2155 C.3     1  UNL1        0.1363
     16 C          -4.3572    4.0643   19.5125 C.ar    1  UNL1        0.1024
     17 C          -5.7082    3.4598   19.7565 C.ar    1  UNL1        0.0414
     18 C          -6.8469    3.7700   18.8307 C.ar    1  UNL1        0.1023
     19 N          -6.6347    4.6845   17.6609 N.ar    1  UNL1       -0.2224
     20 C          -5.2838    5.2890   17.4168 C.ar    1  UNL1        0.1989
     21 N          -4.1450    4.9789   18.3426 N.ar    1  UNL1       -0.2224
     22 C           3.6701   -0.7332   18.9679 C.ar    1  UNL1        0.0486
     23 C           4.8448   -0.0805   18.3015 C.ar    1  UNL1        0.0146
     24 C           5.9947   -0.9159   17.8222 C.ar    1  UNL1        0.0020
     25 C           5.9700   -2.4040   18.0094 C.ar    1  UNL1        0.0104
     26 C           4.7953   -3.0567   18.6758 C.ar    1  UNL1        0.0697
     27 C           3.6453   -2.2213   19.1550 C.ar    1  UNL1        0.0248
     28 C           4.7706   -4.5447   18.8629 C.1     1  UNL1        0.1005
     29 N           4.7458   -6.0328   19.0501 N.1     1  UNL1       -0.1908
@<TRIPOS>BOND
     1     2     1    1
     2     2     3    1
     3     3     4    1
     4     4    22    1
     5    22    23   ar
     6    23    24   ar
     7    24    25   ar
     8    25    26   ar
     9    26    28    1
    10    28    29    3
    11    26    27   ar
    12     4     5    1
    13     5     6    1
    14     6     7    1
    15     7     8    1
    16     8     9   ar
    17     9    10   ar
    18    10    16    1
    19    16    17   ar
    20    17    18   ar
    21    18    19   ar
    22    19    20   ar
    23    20    21   ar
    24    10    11   ar
    25    11    12   ar
    26    12    13    2
    27    12    14   ar
    28    14    15    1
    29     7     2    1
    30    14     8   ar
    31    27    22   ar
    32    21    16   ar
@<TRIPOS>MOLECULE
*****
 29 32 0 0 0
SMALL
GASTEIGER

@<TRIPOS>ATOM
      1 C           0.0715    5.0184   27.6059 C.3     1  UNL1        0.0233
      2 C          -0.0516    3.5852   28.0309 C.3     1  UNL1        0.0953
      3 C           0.8760    3.0288   29.0701 C.3     1  UNL1        0.1106
      4 N           0.7529    1.5955   29.4951 N.pl3   1  UNL1       -0.3041
      5 C          -0.2979    0.7187   28.8811 C.3     1  UNL1        0.1123
      6 C          -1.2255    1.2752   27.8419 C.3     1  UNL1        0.1149
      7 N          -1.1024    2.7084   27.4169 N.pl3   1  UNL1       -0.2777
      8 C          -2.0301    3.2648   26.3777 C.ar    1  UNL1        0.2035
      9 N          -3.3045    3.9380   26.7932 N.ar    1  UNL1       -0.2133
     10 C          -4.2322    4.4944   25.7541 C.ar    1  UNL1        0.1065
     11 C          -3.8854    4.3777   24.2994 C.ar    1  UNL1        0.0815
     12 C          -2.6110    3.7046   23.8838 C.ar    1  UNL1        0.2646
     13 O          -2.2642    3.5879   22.4292 O.2     1  UNL1       -0.2668
     14 N          -1.6833    3.1481   24.9230 N.ar    1  UNL1       -0.2667
     15 C          -0.4088    2.4750   24.5075 C.3     1  UNL1        0.1363
     16 C          -5.5066    5.1675   26.1697 C.ar    1  UNL1        0.1024
     17 C          -6.5625    5.4703   25.1482 C.ar    1  UNL1        0.0414
     18 C          -7.8370    6.1434   25.5638 C.ar    1  UNL1        0.1023
     19 N          -8.0555    6.5138   27.0008 N.ar    1  UNL1       -0.2224
     20 C          -6.9996    6.2110   28.0223 C.ar    1  UNL1        0.1989
     21 N          -5.7251    5.5379   27.6068 N.ar    1  UNL1       -0.2224
     22 C           1.6806    1.0391   30.5343 C.ar    1  UNL1        0.0486
     23 C           2.4296   -0.2328   30.2672 C.ar    1  UNL1        0.0146
     24 C           3.3572   -0.7892   31.3063 C.ar    1  UNL1        0.0020
     25 C           3.5359   -0.0738   32.6126 C.ar    1  UNL1        0.0104
     26 C           2.7869    1.1981   32.8797 C.ar    1  UNL1        0.0697
     27 C           1.8592    1.7545   31.8405 C.ar    1  UNL1        0.0248
     28 C           2.9656    1.9135   34.1859 C.1     1  UNL1        0.1005
     29 N           3.1442    2.6290   35.4921 N.1     1  UNL1       -0.1908
@<TRIPOS>BOND
     1     2     1    1
     2     2     3    1
     3     3     4    1
     4     4    22    1
     5    22    23   ar
     6    23    24   ar
     7    24    25   ar
     8    25    26   ar
     9    26    28    1
    10    28    29    3
    11    26    27   ar
    12     4     5    1
    13     5     6    1
    14     6     7    1
    15     7     8    1
    16     8     9   ar
    17     9    10   ar
    18    10    16    1
    19    16    17   ar
    20    17    18   ar
    21    18    19   ar
    22    19    20   ar
    23    20    21   ar
    24    10    11   ar
    25    11    12   ar
    26    12    13    2
    27    12    14   ar
    28    14    15    1
    29     7     2    1
    30    14     8   ar
    31    27    22   ar
    32    21    16   ar
@<TRIPOS>MOLECULE
*****
 29 32 0 0 0
SMALL
GASTEIGER

@<TRIPOS>ATOM
      1 C           1.8920    4.0911   20.2556 C.3     1  UNL1        0.0233
      2 C           1.6969    2.6194   20.0410 C.3     1  UNL1        0.0953
      3 C           2.8572    1.7605   19.6337 C.3     1  UNL1        0.1106
      4 N           2.6621    0.2888   19.4191 N.pl3   1  UNL1       -0.3041
      5 C           1.3066   -0.3240   19.6118 C.3     1  UNL1        0.1123
      6 C           0.1463    0.5349   20.0191 C.3     1  UNL1        0.1149
      7 N           0.3414    2.0066   20.2337 N.pl3   1  UNL1       -0.2777
      8 C          -0.8190    2.8655   20.6411 C.ar    1  UNL1        0.2035
      9 N          -1.2760    2.8802   22.0696 N.ar    1  UNL1       -0.2133
     10 C          -2.4364    3.7391   22.4770 C.ar    1  UNL1        0.1065
     11 C          -3.1397    4.5832   21.4558 C.ar    1  UNL1        0.0815
     12 C          -2.6827    4.5684   20.0272 C.ar    1  UNL1        0.2646
     13 O          -3.3859    5.4125   19.0059 O.2     1  UNL1       -0.2668
     14 N          -1.5222    3.7095   19.6198 N.ar    1  UNL1       -0.2667
     15 C          -1.0652    3.6948   18.1912 C.3     1  UNL1        0.1363
     16 C          -2.8935    3.7538   23.9056 C.ar    1  UNL1        0.1024
     17 C          -1.9076    3.5170   25.0110 C.ar    1  UNL1        0.0414
     18 C          -2.3646    3.5318   26.4396 C.ar    1  UNL1        0.1023
     19 N          -3.8076    3.7834   26.7628 N.ar    1  UNL1       -0.2224
     20 C          -4.7936    4.0202   25.6574 C.ar    1  UNL1        0.1989
     21 N          -4.3365    4.0055   24.2288 N.ar    1  UNL1       -0.2224
     22 C           3.8225   -0.5700   19.0117 C.ar    1  UNL1        0.0486
     23 C           5.0649    0.0616   18.4574 C.ar    1  UNL1        0.0146
     24 C           6.2253   -0.7972   18.0501 C.ar    1  UNL1        0.0020
     25 C           6.1432   -2.2877   18.1971 C.ar    1  UNL1        0.0104
     26 C           4.9008   -2.9194   18.7514 C.ar    1  UNL1        0.0697
     27 C           3.7404   -2.0605   19.1587 C.ar    1  UNL1        0.0248
     28 C           4.8187   -4.4099   18.8984 C.1     1  UNL1        0.1005
     29 N           4.7366   -5.9004   19.0454 N.1     1  UNL1       -0.1908
@<TRIPOS>BOND
     1     2     1    1
     2     2     3    1
     3     3     4    1
     4     4    22    1
     5    22    23   ar
     6    23    24   ar
     7    24    25   ar
     8    25    26   ar
     9    26    28    1
    10    28    29    3
    11    26    27   ar
    12     4     5    1
    13     5     6    1
    14     6     7    1
    15     7     8    1
    16     8     9   ar
    17     9    10   ar
    18    10    16    1
    19    16    17   ar
    20    17    18   ar
    21    18    19   ar
    22    19    20   ar
    23    20    21   ar
    24    10    11   ar
    25    11    12   ar
    26    12    13    2
    27    12    14   ar
    28    14    15    1
    29     7     2    1
    30    14     8   ar
    31    27    22   ar
    32    21    16   ar
@<TRIPOS>MOLECULE
*****
 29 32 0 0 0
SMALL
GASTEIGER

@<TRIPOS>ATOM
      1 C         -13.9763   -3.1391   20.9258 C.3     1  UNL1        0.0233
      2 C         -14.8753   -3.6821   19.8548 C.3     1  UNL1        0.0953
      3 C         -15.7076   -4.9012   20.1212 C.3     1  UNL1        0.1106
      4 N         -16.6066   -5.4442   19.0502 N.pl3   1  UNL1       -0.3041
      5 C         -16.6733   -4.7681   17.7129 C.3     1  UNL1        0.1123
      6 C         -15.8410   -3.5490   17.4466 C.3     1  UNL1        0.1149
      7 N         -14.9420   -3.0060   18.5175 N.pl3   1  UNL1       -0.2777
      8 C         -14.1096   -1.7868   18.2511 C.ar    1  UNL1        0.2035
      9 N         -14.6866   -0.4208   18.4769 N.ar    1  UNL1       -0.2133
     10 C         -13.8543    0.7983   18.2105 C.ar    1  UNL1        0.1065
     11 C         -12.4449    0.6514   17.7183 C.ar    1  UNL1        0.0815
     12 C         -11.8679   -0.7146   17.4926 C.ar    1  UNL1        0.2646
     13 O         -10.4586   -0.8615   17.0005 O.2     1  UNL1       -0.2668
     14 N         -12.7003   -1.9338   17.7590 N.ar    1  UNL1       -0.2667
     15 C         -12.1233   -3.2998   17.5333 C.3     1  UNL1        0.1363
     16 C         -14.4313    2.1644   18.4363 C.ar    1  UNL1        0.1024
     17 C         -15.4863    2.3694   19.4826 C.ar    1  UNL1        0.0414
     18 C         -16.0633    3.7354   19.7084 C.ar    1  UNL1        0.1023
     19 N         -15.5854    4.8965   18.8878 N.ar    1  UNL1       -0.2224
     20 C         -14.5303    4.6915   17.8413 C.ar    1  UNL1        0.1989
     21 N         -13.9533    3.3255   17.6156 N.ar    1  UNL1       -0.2224
     22 C         -17.4390   -6.6633   19.3166 C.ar    1  UNL1        0.0486
     23 C         -18.8557   -6.5161   19.7870 C.ar    1  UNL1        0.0146
     24 C         -19.6881   -7.7351   20.0534 C.ar    1  UNL1        0.0020
     25 C         -19.1037   -9.1015   19.8495 C.ar    1  UNL1        0.0104
     26 C         -17.6870   -9.2488   19.3791 C.ar    1  UNL1        0.0697
     27 C         -16.8547   -8.0296   19.1127 C.ar    1  UNL1        0.0248
     28 C         -17.1027  -10.6151   19.1751 C.1     1  UNL1        0.1005
     29 N         -16.5183  -11.9814   18.9712 N.1     1  UNL1       -0.1908
@<TRIPOS>BOND
     1     2     1    1
     2     2     3    1
     3     3     4    1
     4     4    22    1
     5    22    23   ar
     6    23    24   ar
     7    24    25   ar
     8    25    26   ar
     9    26    28    1
    10    28    29    3
    11    26    27   ar
    12     4     5    1
    13     5     6    1
    14     6     7    1
    15     7     8    1
    16     8     9   ar
    17     9    10   ar
    18    10    16    1
    19    16    17   ar
    20    17    18   ar
    21    18    19   ar
    22    19    20   ar
    23    20    21   ar
    24    10    11   ar
    25    11    12   ar
    26    12    13    2
    27    12    14   ar
    28    14    15    1
    29     7     2    1
    30    14     8   ar
    31    27    22   ar
    32    21    16   ar
@<TRIPOS>MOLECULE
*****
 29 32 0 0 0
SMALL
GASTEIGER

@<TRIPOS>ATOM
      1 C         -14.0892   -3.2863   21.1449 C.3     1  UNL1        0.0233
      2 C         -14.6106   -2.6388   19.8964 C.3     1  UNL1        0.0953
      3 C         -15.1883   -1.2557   19.9539 C.3     1  UNL1        0.1106
      4 N         -15.7097   -0.6081   18.7054 N.pl3   1  UNL1       -0.3041
      5 C         -15.6535   -1.3437   17.3993 C.3     1  UNL1        0.1123
      6 C         -15.0758   -2.7267   17.3418 C.3     1  UNL1        0.1149
      7 N         -14.5544   -3.3743   18.5903 N.pl3   1  UNL1       -0.2777
      8 C         -13.9767   -4.7574   18.5327 C.ar    1  UNL1        0.2035
      9 N         -14.8713   -5.9510   18.6905 N.ar    1  UNL1       -0.2133
     10 C         -14.2937   -7.3341   18.6329 C.ar    1  UNL1        0.1065
     11 C         -12.8214   -7.5237   18.4176 C.ar    1  UNL1        0.0815
     12 C         -11.9267   -6.3301   18.2598 C.ar    1  UNL1        0.2646
     13 O         -10.4544   -6.5196   18.0445 O.2     1  UNL1       -0.2668
     14 N         -12.5044   -4.9469   18.3174 N.ar    1  UNL1       -0.2667
     15 C         -11.6097   -3.7533   18.1597 C.3     1  UNL1        0.1363
     16 C         -15.1884   -8.5277   18.7907 C.ar    1  UNL1        0.1024
     17 C         -16.3923   -8.4501   19.6821 C.ar    1  UNL1        0.0414
     18 C         -17.2870   -9.6437   19.8398 C.ar    1  UNL1        0.1023
     19 N         -16.9777  -10.9149   19.1062 N.ar    1  UNL1       -0.2224
     20 C         -15.7738  -10.9926   18.2148 C.ar    1  UNL1        0.1989
     21 N         -14.8791   -9.7990   18.0570 N.ar    1  UNL1       -0.2224
     22 C         -16.2874    0.7750   18.7630 C.ar    1  UNL1        0.0486
     23 C         -17.6312    1.0523   18.1569 C.ar    1  UNL1        0.0146
     24 C         -18.2089    2.4354   18.2144 C.ar    1  UNL1        0.0020
     25 C         -17.4428    3.5412   18.8781 C.ar    1  UNL1        0.0104
     26 C         -16.0990    3.2639   19.4842 C.ar    1  UNL1        0.0697
     27 C         -15.5213    1.8807   19.4266 C.ar    1  UNL1        0.0248
     28 C         -15.3329    4.3696   20.1478 C.1     1  UNL1        0.1005
     29 N         -14.5668    5.4753   20.8114 N.1     1  UNL1       -0.1908
@<TRIPOS>BOND
     1     2     1    1
     2     2     3    1
     3     3     4    1
     4     4    22    1
     5    22    23   ar
     6    23    24   ar
     7    24    25   ar
     8    25    26   ar
     9    26    28    1
    10    28    29    3
    11    26    27   ar
    12     4     5    1
    13     5     6    1
    14     6     7    1
    15     7     8    1
    16     8     9   ar
    17     9    10   ar
    18    10    16    1
    19    16    17   ar
    20    17    18   ar
    21    18    19   ar
    22    19    20   ar
    23    20    21   ar
    24    10    11   ar
    25    11    12   ar
    26    12    13    2
    27    12    14   ar
    28    14    15    1
    29     7     2    1
    30    14     8   ar
    31    27    22   ar
    32    21    16   ar
@<TRIPOS>MOLECULE
*****
 29 32 0 0 0
SMALL
GASTEIGER

@<TRIPOS>ATOM
      1 C           6.4083    0.3934   21.2879 C.3     1  UNL1        0.0233
      2 C           5.9423   -0.9070   21.8725 C.3     1  UNL1        0.0953
      3 C           6.6896   -1.5257   23.0165 C.3     1  UNL1        0.1106
      4 N           6.2236   -2.8261   23.6011 N.pl3   1  UNL1       -0.3041
      5 C           5.0104   -3.5079   23.0416 C.3     1  UNL1        0.1123
      6 C           4.2631   -2.8893   21.8975 C.3     1  UNL1        0.1149
      7 N           4.7291   -1.5889   21.3130 N.pl3   1  UNL1       -0.2777
      8 C           3.9818   -0.9703   20.1689 C.ar    1  UNL1        0.2035
      9 N           2.8650   -0.0054   20.4368 N.ar    1  UNL1       -0.2133
     10 C           2.1176    0.6132   19.2928 C.ar    1  UNL1        0.1065
     11 C           2.4871    0.2669   17.8808 C.ar    1  UNL1        0.0815
     12 C           3.6040   -0.6979   17.6129 C.ar    1  UNL1        0.2646
     13 O           3.9735   -1.0442   16.2010 O.2     1  UNL1       -0.2668
     14 N           4.3513   -1.3165   18.7570 N.ar    1  UNL1       -0.2667
     15 C           5.4681   -2.2814   18.4891 C.3     1  UNL1        0.1363
     16 C           1.0008    1.5780   19.5607 C.ar    1  UNL1        0.1024
     17 C           0.5199    2.4899   18.4711 C.ar    1  UNL1        0.0414
     18 C          -0.5969    3.4547   18.7390 C.ar    1  UNL1        0.1023
     19 N          -1.2328    3.5077   20.0964 N.ar    1  UNL1       -0.2224
     20 C          -0.7519    2.5959   21.1861 C.ar    1  UNL1        0.1989
     21 N           0.3649    1.6310   20.9182 N.ar    1  UNL1       -0.2224
     22 C           6.9709   -3.4447   24.7452 C.ar    1  UNL1        0.0486
     23 C           7.7942   -2.5834   25.6564 C.ar    1  UNL1        0.0146
     24 C           8.5415   -3.2019   26.8005 C.ar    1  UNL1        0.0020
     25 C           8.4656   -4.6819   27.0333 C.ar    1  UNL1        0.0104
     26 C           7.6423   -5.5432   26.1221 C.ar    1  UNL1        0.0697
     27 C           6.8950   -4.9246   24.9780 C.ar    1  UNL1        0.0248
     28 C           7.5663   -7.0230   26.3549 C.1     1  UNL1        0.1005
     29 N           7.4904   -8.5028   26.5877 N.1     1  UNL1       -0.1908
@<TRIPOS>BOND
     1     2     1    1
     2     2     3    1
     3     3     4    1
     4     4    22    1
     5    22    23   ar
     6    23    24   ar
     7    24    25   ar
     8    25    26   ar
     9    26    28    1
    10    28    29    3
    11    26    27   ar
    12     4     5    1
    13     5     6    1
    14     6     7    1
    15     7     8    1
    16     8     9   ar
    17     9    10   ar
    18    10    16    1
    19    16    17   ar
    20    17    18   ar
    21    18    19   ar
    22    19    20   ar
    23    20    21   ar
    24    10    11   ar
    25    11    12   ar
    26    12    13    2
    27    12    14   ar
    28    14    15    1
    29     7     2    1
    30    14     8   ar
    31    27    22   ar
    32    21    16   ar
@<TRIPOS>MOLECULE
*****
 29 32 0 0 0
SMALL
GASTEIGER

@<TRIPOS>ATOM
      1 C           4.8297    1.4288   21.6040 C.3     1  UNL1        0.0233
      2 C           3.4456    0.9654   21.2584 C.3     1  UNL1        0.0953
      3 C           2.2695    1.8613   21.5120 C.3     1  UNL1        0.1106
      4 N           0.8854    1.3978   21.1665 N.pl3   1  UNL1       -0.3041
      5 C           0.6773    0.0385   20.5674 C.3     1  UNL1        0.1123
      6 C           1.8533   -0.8574   20.3139 C.3     1  UNL1        0.1149
      7 N           3.2375   -0.3939   20.6594 N.pl3   1  UNL1       -0.2777
      8 C           4.4135   -1.2899   20.4058 C.ar    1  UNL1        0.2035
      9 N           4.9696   -2.1301   21.5170 N.ar    1  UNL1       -0.2133
     10 C           6.1456   -3.0260   21.2635 C.ar    1  UNL1        0.1065
     11 C           6.7656   -3.0817   19.8988 C.ar    1  UNL1        0.0815
     12 C           6.2096   -2.2415   18.7875 C.ar    1  UNL1        0.2646
     13 O           6.8295   -2.2971   17.4228 O.2     1  UNL1       -0.2668
     14 N           5.0335   -1.3455   19.0411 N.ar    1  UNL1       -0.2667
     15 C           4.4775   -0.5052   17.9299 C.3     1  UNL1        0.1363
     16 C           6.7016   -3.8663   22.3747 C.ar    1  UNL1        0.1024
     17 C           6.2198   -3.6646   23.7808 C.ar    1  UNL1        0.0414
     18 C           6.7758   -4.5048   24.8920 C.ar    1  UNL1        0.1023
     19 N           7.8136   -5.5469   24.5971 N.ar    1  UNL1       -0.2224
     20 C           8.2955   -5.7487   23.1910 C.ar    1  UNL1        0.1989
     21 N           7.7395   -4.9084   22.0798 N.ar    1  UNL1       -0.2224
     22 C          -0.2907    2.2938   21.4200 C.ar    1  UNL1        0.0486
     23 C          -0.4895    2.9049   22.7754 C.ar    1  UNL1        0.0146
     24 C          -1.6655    3.8008   23.0290 C.ar    1  UNL1        0.0020
     25 C          -2.6427    4.0856   21.9272 C.ar    1  UNL1        0.0104
     26 C          -2.4439    3.4745   20.5718 C.ar    1  UNL1        0.0697
     27 C          -1.2679    2.5785   20.3183 C.ar    1  UNL1        0.0248
     28 C          -3.4211    3.7593   19.4701 C.1     1  UNL1        0.1005
     29 N          -4.3983    4.0441   18.3683 N.1     1  UNL1       -0.1908
@<TRIPOS>BOND
     1     2     1    1
     2     2     3    1
     3     3     4    1
     4     4    22    1
     5    22    23   ar
     6    23    24   ar
     7    24    25   ar
     8    25    26   ar
     9    26    28    1
    10    28    29    3
    11    26    27   ar
    12     4     5    1
    13     5     6    1
    14     6     7    1
    15     7     8    1
    16     8     9   ar
    17     9    10   ar
    18    10    16    1
    19    16    17   ar
    20    17    18   ar
    21    18    19   ar
    22    19    20   ar
    23    20    21   ar
    24    10    11   ar
    25    11    12   ar
    26    12    13    2
    27    12    14   ar
    28    14    15    1
    29     7     2    1
    30    14     8   ar
    31    27    22   ar
    32    21    16   ar
@<TRIPOS>MOLECULE
*****
 29 32 0 0 0
SMALL
GASTEIGER

@<TRIPOS>ATOM
      1 C           1.4696    3.1958   22.3396 C.3     1  UNL1        0.0233
      2 C           1.5014    1.8464   21.6852 C.3     1  UNL1        0.0953
      3 C           2.4877    0.8135   22.1439 C.3     1  UNL1        0.1106
      4 N           2.5195   -0.5358   21.4895 N.pl3   1  UNL1       -0.3041
      5 C           1.5651   -0.8523   20.3765 C.3     1  UNL1        0.1123
      6 C           0.5788    0.1806   19.9178 C.3     1  UNL1        0.1149
      7 N           0.5470    1.5300   20.5722 N.pl3   1  UNL1       -0.2777
      8 C          -0.4393    2.5629   20.1136 C.ar    1  UNL1        0.2035
      9 N          -1.7699    2.6842   20.7953 N.ar    1  UNL1       -0.2133
     10 C          -2.7562    3.7170   20.3367 C.ar    1  UNL1        0.1065
     11 C          -2.4120    4.6286   19.1963 C.ar    1  UNL1        0.0815
     12 C          -1.0814    4.5073   18.5145 C.ar    1  UNL1        0.2646
     13 O          -0.7371    5.4189   17.3741 O.2     1  UNL1       -0.2668
     14 N          -0.0951    3.4744   18.9732 N.ar    1  UNL1       -0.2667
     15 C           1.2355    3.3531   18.2914 C.3     1  UNL1        0.1363
     16 C          -4.0868    3.8383   21.0185 C.ar    1  UNL1        0.1024
     17 C          -4.2305    3.4435   22.4584 C.ar    1  UNL1        0.0414
     18 C          -5.5611    3.5648   23.1402 C.ar    1  UNL1        0.1023
     19 N          -6.7480    4.0810   22.3820 N.ar    1  UNL1       -0.2224
     20 C          -6.6044    4.4758   20.9420 C.ar    1  UNL1        0.1989
     21 N          -5.2738    4.3545   20.2603 N.ar    1  UNL1       -0.2224
     22 C           3.5059   -1.5687   21.9481 C.ar    1  UNL1        0.0486
     23 C           3.9322   -2.6644   21.0166 C.ar    1  UNL1        0.0146
     24 C           4.9185   -3.6973   21.4752 C.ar    1  UNL1        0.0020
     25 C           5.4785   -3.6345   22.8654 C.ar    1  UNL1        0.0104
     26 C           5.0521   -2.5389   23.7969 C.ar    1  UNL1        0.0697
     27 C           4.0658   -1.5059   23.3383 C.ar    1  UNL1        0.0248
     28 C           5.6121   -2.4761   25.1871 C.1     1  UNL1        0.1005
     29 N           6.1720   -2.4133   26.5772 N.1     1  UNL1       -0.1908
@<TRIPOS>BOND
     1     2     1    1
     2     2     3    1
     3     3     4    1
     4     4    22    1
     5    22    23   ar
     6    23    24   ar
     7    24    25   ar
     8    25    26   ar
     9    26    28    1
    10    28    29    3
    11    26    27   ar
    12     4     5    1
    13     5     6    1
    14     6     7    1
    15     7     8    1
    16     8     9   ar
    17     9    10   ar
    18    10    16    1
    19    16    17   ar
    20    17    18   ar
    21    18    19   ar
    22    19    20   ar
    23    20    21   ar
    24    10    11   ar
    25    11    12   ar
    26    12    13    2
    27    12    14   ar
    28    14    15    1
    29     7     2    1
    30    14     8   ar
    31    27    22   ar
    32    21    16   ar
@<TRIPOS>MOLECULE
*****
 29 32 0 0 0
SMALL
GASTEIGER

@<TRIPOS>ATOM
      1 C           1.7071    2.3800   22.8933 C.3     1  UNL1        0.0233
      2 C           0.4884    2.6373   22.0575 C.3     1  UNL1        0.0953
      3 C          -0.8139    2.9826   22.7167 C.3     1  UNL1        0.1106
      4 N          -2.0326    3.2400   21.8809 N.pl3   1  UNL1       -0.3041
      5 C          -1.9489    3.1520   20.3858 C.3     1  UNL1        0.1123
      6 C          -0.6466    2.8067   19.7266 C.3     1  UNL1        0.1149
      7 N           0.5721    2.5494   20.5624 N.pl3   1  UNL1       -0.2777
      8 C           1.8745    2.2040   19.9031 C.ar    1  UNL1        0.2035
      9 N           2.3077    0.7715   19.8029 N.ar    1  UNL1       -0.2133
     10 C           3.6100    0.4261   19.1436 C.ar    1  UNL1        0.1065
     11 C           4.4792    1.5133   18.5845 C.ar    1  UNL1        0.0815
     12 C           4.0459    2.9459   18.6847 C.ar    1  UNL1        0.2646
     13 O           4.9150    4.0331   18.1256 O.2     1  UNL1       -0.2668
     14 N           2.7435    3.2913   19.3440 N.ar    1  UNL1       -0.2667
     15 C           2.3103    4.7238   19.4442 C.3     1  UNL1        0.1363
     16 C           4.0432   -1.0065   19.0434 C.ar    1  UNL1        0.1024
     17 C           3.2015   -2.0889   19.6515 C.ar    1  UNL1        0.0414
     18 C           3.6347   -3.5214   19.5513 C.ar    1  UNL1        0.1023
     19 N           4.9097   -3.8716   18.8431 N.ar    1  UNL1       -0.2224
     20 C           5.7516   -2.7892   18.2350 C.ar    1  UNL1        0.1989
     21 N           5.3183   -1.3566   18.3352 N.ar    1  UNL1       -0.2224
     22 C          -3.3350    3.5853   22.5402 C.ar    1  UNL1        0.0486
     23 C          -4.5967    3.6310   21.7303 C.ar    1  UNL1        0.0146
     24 C          -5.8990    3.9763   22.3895 C.ar    1  UNL1        0.0020
     25 C          -5.9397    4.2759   23.8587 C.ar    1  UNL1        0.0104
     26 C          -4.6780    4.2303   24.6687 C.ar    1  UNL1        0.0697
     27 C          -3.3756    3.8849   24.0094 C.ar    1  UNL1        0.0248
     28 C          -4.7186    4.5299   26.1379 C.1     1  UNL1        0.1005
     29 N          -4.7592    4.8295   27.6070 N.1     1  UNL1       -0.1908
@<TRIPOS>BOND
     1     2     1    1
     2     2     3    1
     3     3     4    1
     4     4    22    1
     5    22    23   ar
     6    23    24   ar
     7    24    25   ar
     8    25    26   ar
     9    26    28    1
    10    28    29    3
    11    26    27   ar
    12     4     5    1
    13     5     6    1
    14     6     7    1
    15     7     8    1
    16     8     9   ar
    17     9    10   ar
    18    10    16    1
    19    16    17   ar
    20    17    18   ar
    21    18    19   ar
    22    19    20   ar
    23    20    21   ar
    24    10    11   ar
    25    11    12   ar
    26    12    13    2
    27    12    14   ar
    28    14    15    1
    29     7     2    1
    30    14     8   ar
    31    27    22   ar
    32    21    16   ar
