@<TRIPOS>MOLECULE
*****
 43 46 0 0 0
SMALL
GASTEIGER

@<TRIPOS>ATOM
      1 C           2.8093    0.4127   20.4245 C.3     1  UNL1        0.0781
      2 C           1.3107    0.4730   20.4031 C.3     1  UNL1        0.0372
      3 C           0.5549    0.7947   21.6582 C.3     1  UNL1        0.0738
      4 N           1.2978    1.0560   22.9348 N.3     1  UNL1       -0.2726
      5 C           2.7965    0.9958   22.9563 C.3     1  UNL1        0.0738
      6 C           3.5522    0.6741   21.7012 C.3     1  UNL1        0.0372
      7 N           3.5650    0.0910   19.1694 N.am    1  UNL1       -0.2808
      8 C           3.9390   -1.3288   18.8622 C.2     1  UNL1        0.2300
      9 O           4.6948   -1.6505   17.6071 O.2     1  UNL1       -0.2745
     10 C           3.6821    2.6198   18.5857 C.3     1  UNL1        0.0233
     11 C           3.9467    1.1890   18.2215 C.3     1  UNL1        0.0934
     12 C           3.5573   -2.4269   19.8101 C.3     1  UNL1        0.1116
     13 C           4.5522   -2.9317   20.8128 C.ar    1  UNL1       -0.0130
     14 C           5.8789   -3.4592   20.3528 C.ar    1  UNL1       -0.0025
     15 C           6.8737   -3.9641   21.3555 C.ar    1  UNL1        0.0180
     16 C           6.5419   -3.9414   22.8182 C.ar    1  UNL1        0.1057
     17 C           5.2152   -3.4138   23.2781 C.ar    1  UNL1        0.0180
     18 C           4.2204   -2.9090   22.2755 C.ar    1  UNL1       -0.0025
     19 S           7.5368   -4.4462   23.8209 S.O2    1  UNL1        0.0104
     20 C           8.5317   -4.9510   24.8235 C.3     1  UNL1        0.1816
     21 O           7.4501   -3.1450   24.5620 O.2     1  UNL1       -0.1686
     22 O           7.6235   -5.7474   23.0798 O.2     1  UNL1       -0.1686
     23 C           0.5420    1.3777   24.1900 C.3     1  UNL1        0.0724
     24 C          -0.3397    2.5899   24.2447 C.3     1  UNL1        0.0217
     25 C          -1.1770    2.8541   25.4609 C.3     1  UNL1        0.0239
     26 C          -2.5920    3.3279   25.3088 C.ar    1  UNL1       -0.0180
     27 C          -3.2983    3.1714   23.9948 C.ar    1  UNL1        0.0255
     28 C          -4.7134    3.6453   23.8428 C.ar    1  UNL1        0.1421
     29 F          -5.4197    3.4887   22.5288 F       1  UNL1       -0.2041
     30 C          -5.4221    4.2757   25.0048 C.ar    1  UNL1        0.0592
     31 C          -4.7158    4.4323   26.3188 C.ar    1  UNL1        0.1421
     32 F          -5.4246    5.0628   27.4808 F       1  UNL1       -0.2041
     33 C          -3.3008    3.9584   26.4709 C.ar    1  UNL1        0.0255
     34 C          -0.5993    2.6443   26.8291 C.3     1  UNL1        0.0070
     35 C           0.2466    3.7117   27.4578 C.3     1  UNL1        0.0195
     36 C           0.8243    3.5020   28.8261 C.3     1  UNL1        0.0954
     37 N           0.5562    2.2249   29.5657 N.3     1  UNL1       -0.1594
     38 C          -0.2896    1.1575   28.9371 C.3     1  UNL1        0.0954
     39 C          -0.8674    1.3672   27.5688 C.3     1  UNL1        0.0195
     40 S           1.1340    2.0151   30.9340 S.O2    1  UNL1        0.0457
     41 C           1.7117    1.8053   32.3023 C.3     1  UNL1        0.1960
     42 O           0.9189    3.4662   31.2472 O.2     1  UNL1       -0.1572
     43 O           1.3490    0.5641   30.6208 O.2     1  UNL1       -0.1572
@<TRIPOS>BOND
     1    10    11    1
     2    11     7    1
     3     7     8   am
     4     8     9    2
     5     8    12    1
     6    12    13    1
     7    13    14   ar
     8    14    15   ar
     9    15    16   ar
    10    16    19    1
    11    19    20    1
    12    19    21    2
    13    19    22    2
    14    16    17   ar
    15    17    18   ar
    16     7     1    1
    17     1     2    1
    18     2     3    1
    19     3     4    1
    20     4    23    1
    21    23    24    1
    22    25    24    1
    23    25    26    1
    24    26    27   ar
    25    27    28   ar
    26    28    29    1
    27    28    30   ar
    28    30    31   ar
    29    31    32    1
    30    31    33   ar
    31    25    34    1
    32    34    35    1
    33    35    36    1
    34    36    37    1
    35    37    40    1
    36    40    41    1
    37    40    42    2
    38    40    43    2
    39    37    38    1
    40    38    39    1
    41     4     5    1
    42     5     6    1
    43    18    13   ar
    44     6     1    1
    45    33    26   ar
    46    39    34    1
@<TRIPOS>MOLECULE
*****
 43 46 0 0 0
SMALL
GASTEIGER

@<TRIPOS>ATOM
      1 C           2.7709    0.3447   20.3754 C.3     1  UNL1        0.0781
      2 C           3.5492    0.6295   21.6257 C.3     1  UNL1        0.0372
      3 C           2.8292    0.9841   22.8929 C.3     1  UNL1        0.0738
      4 N           1.3310    1.0539   22.9099 N.3     1  UNL1       -0.2726
      5 C           0.5526    0.7690   21.6597 C.3     1  UNL1        0.0738
      6 C           1.2726    0.4145   20.3924 C.3     1  UNL1        0.0372
      7 N           3.4909   -0.0099   19.1082 N.am    1  UNL1       -0.2808
      8 C           3.8635   -1.4363   18.8312 C.2     1  UNL1        0.2300
      9 O           4.5834   -1.7908   17.5640 O.2     1  UNL1       -0.2745
     10 C           5.2103    1.6680   18.1192 C.3     1  UNL1        0.0233
     11 C           3.8382    1.0619   18.1179 C.3     1  UNL1        0.0934
     12 C           3.5161   -2.5080   19.8215 C.3     1  UNL1        0.1116
     13 C           4.5409   -2.9737   20.8130 C.ar    1  UNL1       -0.0130
     14 C           4.2214   -2.9721   22.2786 C.ar    1  UNL1       -0.0025
     15 C           5.2461   -3.4378   23.2700 C.ar    1  UNL1        0.0180
     16 C           6.5903   -3.9051   22.7959 C.ar    1  UNL1        0.1057
     17 C           6.9098   -3.9066   21.3304 C.ar    1  UNL1        0.0180
     18 C           5.8851   -3.4409   20.3389 C.ar    1  UNL1       -0.0025
     19 S           7.6151   -4.3708   23.7875 S.O2    1  UNL1        0.0104
     20 C           8.6398   -4.8365   24.7789 C.3     1  UNL1        0.1816
     21 O           7.5847   -5.7400   23.1757 O.2     1  UNL1       -0.1686
     22 O           7.6454   -3.0016   24.3993 O.2     1  UNL1       -0.1686
     23 C           0.6110    1.4084   24.1772 C.3     1  UNL1        0.0724
     24 C          -0.3001    2.5994   24.2141 C.3     1  UNL1        0.0217
     25 C          -1.1520    2.8549   25.4219 C.3     1  UNL1        0.0239
     26 C          -2.5703    3.3142   25.2559 C.ar    1  UNL1       -0.0180
     27 C          -3.3075    3.9078   26.4195 C.ar    1  UNL1        0.0255
     28 C          -4.7258    4.3671   26.2534 C.ar    1  UNL1        0.1421
     29 F          -5.4631    4.9608   27.4170 F       1  UNL1       -0.2041
     30 C          -5.4068    4.2329   24.9237 C.ar    1  UNL1        0.0592
     31 C          -4.6695    3.6392   23.7600 C.ar    1  UNL1        0.1421
     32 F          -5.3506    3.5050   22.4302 F       1  UNL1       -0.2041
     33 C          -3.2513    3.1799   23.9261 C.ar    1  UNL1        0.0255
     34 C          -0.5858    2.6510   26.7959 C.3     1  UNL1        0.0070
     35 C          -0.8224    1.3591   27.5205 C.3     1  UNL1        0.0195
     36 C          -0.2561    1.1552   28.8944 C.3     1  UNL1        0.0954
     37 N           0.5468    2.2432   29.5438 N.3     1  UNL1       -0.1594
     38 C           0.7834    3.5351   28.8192 C.3     1  UNL1        0.0954
     39 C           0.2171    3.7390   27.4452 C.3     1  UNL1        0.0195
     40 S           1.1130    2.0393   30.9177 S.O2    1  UNL1        0.0457
     41 C           1.6793    1.8355   32.2917 C.3     1  UNL1        0.1960
     42 O           1.2703    0.5746   30.6356 O.2     1  UNL1       -0.1572
     43 O           0.9558    3.5041   31.1999 O.2     1  UNL1       -0.1572
@<TRIPOS>BOND
     1    10    11    1
     2    11     7    1
     3     7     8   am
     4     8     9    2
     5     8    12    1
     6    12    13    1
     7    13    14   ar
     8    14    15   ar
     9    15    16   ar
    10    16    19    1
    11    19    20    1
    12    19    21    2
    13    19    22    2
    14    16    17   ar
    15    17    18   ar
    16     7     1    1
    17     1     2    1
    18     2     3    1
    19     3     4    1
    20     4    23    1
    21    23    24    1
    22    25    24    1
    23    25    26    1
    24    26    27   ar
    25    27    28   ar
    26    28    29    1
    27    28    30   ar
    28    30    31   ar
    29    31    32    1
    30    31    33   ar
    31    25    34    1
    32    34    35    1
    33    35    36    1
    34    36    37    1
    35    37    40    1
    36    40    41    1
    37    40    42    2
    38    40    43    2
    39    37    38    1
    40    38    39    1
    41     4     5    1
    42     5     6    1
    43    18    13   ar
    44     6     1    1
    45    33    26   ar
    46    39    34    1
@<TRIPOS>MOLECULE
*****
 43 46 0 0 0
SMALL
GASTEIGER

@<TRIPOS>ATOM
      1 C           2.9015    0.3513   20.4149 C.3     1  UNL1        0.0781
      2 C           3.7285    0.6396   21.6326 C.3     1  UNL1        0.0372
      3 C           3.0582    0.9503   22.9381 C.3     1  UNL1        0.0738
      4 N           1.5609    0.9726   23.0258 N.3     1  UNL1       -0.2726
      5 C           0.7339    0.6842   21.8080 C.3     1  UNL1        0.0738
      6 C           1.4042    0.3736   20.5025 C.3     1  UNL1        0.0372
      7 N           3.5718    0.0407   19.1094 N.am    1  UNL1       -0.2808
      8 C           3.8937   -1.3799   18.7509 C.2     1  UNL1        0.2300
      9 O           4.5639   -1.6906   17.4455 O.2     1  UNL1       -0.2745
     10 C           5.3102    1.7142   18.1466 C.3     1  UNL1        0.0233
     11 C           3.9202    1.1505   18.1624 C.3     1  UNL1        0.0934
     12 C           3.5452   -2.4898   19.6979 C.3     1  UNL1        0.1116
     13 C           4.5518   -2.9592   20.7062 C.ar    1  UNL1       -0.0130
     14 C           4.1936   -2.9963   22.1623 C.ar    1  UNL1       -0.0025
     15 C           5.2001   -3.4657   23.1705 C.ar    1  UNL1        0.0180
     16 C           6.5649   -3.8979   22.7226 C.ar    1  UNL1        0.1057
     17 C           6.9231   -3.8608   21.2665 C.ar    1  UNL1        0.0180
     18 C           5.9166   -3.3914   20.2583 C.ar    1  UNL1       -0.0025
     19 S           7.5715   -4.3673   23.7308 S.O2    1  UNL1        0.0104
     20 C           8.5780   -4.8367   24.7391 C.3     1  UNL1        0.1816
     21 O           7.5761   -5.7253   23.0940 O.2     1  UNL1       -0.1686
     22 O           7.5669   -3.0093   24.3677 O.2     1  UNL1       -0.1686
     23 C           0.8906    1.2832   24.3312 C.3     1  UNL1        0.0724
     24 C           0.1011    2.5491   24.4864 C.3     1  UNL1        0.0217
     25 C          -0.8846    2.6855   25.6088 C.3     1  UNL1        0.0239
     26 C          -0.4927    2.2942   27.0028 C.ar    1  UNL1       -0.0180
     27 C          -0.8800    0.9488   27.5411 C.ar    1  UNL1        0.0255
     28 C          -0.4880    0.5576   28.9352 C.ar    1  UNL1        0.1421
     29 F          -0.8753   -0.7878   29.4735 F       1  UNL1       -0.2041
     30 C           0.2912    1.5118   29.7909 C.ar    1  UNL1        0.0592
     31 C           0.6785    2.8572   29.2526 C.ar    1  UNL1        0.1421
     32 F           1.4578    3.8115   30.1083 F       1  UNL1       -0.2041
     33 C           0.2866    3.2485   27.8586 C.ar    1  UNL1        0.0255
     34 C          -2.2622    3.2131   25.3372 C.3     1  UNL1        0.0070
     35 C          -3.1543    3.6033   26.4782 C.3     1  UNL1        0.0195
     36 C          -4.5320    4.1309   26.2067 C.3     1  UNL1        0.0954
     37 N          -5.0175    4.2683   24.7941 N.3     1  UNL1       -0.1594
     38 C          -4.1254    3.8781   23.6531 C.3     1  UNL1        0.0954
     39 C          -2.7477    3.3505   23.9246 C.3     1  UNL1        0.0195
     40 S          -6.3951    4.7959   24.5225 S.O2    1  UNL1        0.0457
     41 C          -7.7728    5.3235   24.2509 C.3     1  UNL1        0.1960
     42 O          -6.3711    5.5314   25.8295 O.2     1  UNL1       -0.1572
     43 O          -6.4191    4.0604   23.2154 O.2     1  UNL1       -0.1572
@<TRIPOS>BOND
     1    10    11    1
     2    11     7    1
     3     7     8   am
     4     8     9    2
     5     8    12    1
     6    12    13    1
     7    13    14   ar
     8    14    15   ar
     9    15    16   ar
    10    16    19    1
    11    19    20    1
    12    19    21    2
    13    19    22    2
    14    16    17   ar
    15    17    18   ar
    16     7     1    1
    17     1     2    1
    18     2     3    1
    19     3     4    1
    20     4    23    1
    21    23    24    1
    22    25    24    1
    23    25    26    1
    24    26    27   ar
    25    27    28   ar
    26    28    29    1
    27    28    30   ar
    28    30    31   ar
    29    31    32    1
    30    31    33   ar
    31    25    34    1
    32    34    35    1
    33    35    36    1
    34    36    37    1
    35    37    40    1
    36    40    41    1
    37    40    42    2
    38    40    43    2
    39    37    38    1
    40    38    39    1
    41     4     5    1
    42     5     6    1
    43    18    13   ar
    44     6     1    1
    45    33    26   ar
    46    39    34    1
@<TRIPOS>MOLECULE
*****
 43 46 0 0 0
SMALL
GASTEIGER

@<TRIPOS>ATOM
      1 C           3.2653    0.3985   27.7817 C.3     1  UNL1        0.0781
      2 C           3.4877   -1.0597   27.5097 C.3     1  UNL1        0.0372
      3 C           3.9143   -1.5114   26.1444 C.3     1  UNL1        0.0738
      4 N           4.1184   -0.5049   25.0512 N.3     1  UNL1       -0.2726
      5 C           3.8960    0.9534   25.3232 C.3     1  UNL1        0.0738
      6 C           3.4694    1.4051   26.6885 C.3     1  UNL1        0.0372
      7 N           2.8387    0.8502   29.1470 N.am    1  UNL1       -0.2808
      8 C           1.3996    0.7435   29.5567 C.2     1  UNL1        0.2300
      9 O           0.9730    1.1952   30.9220 O.2     1  UNL1       -0.2745
     10 C           4.8353    0.4952   30.7709 C.3     1  UNL1        0.0233
     11 C           3.8510    1.4087   30.1026 C.3     1  UNL1        0.0934
     12 C           0.3872    0.1851   28.6011 C.3     1  UNL1        0.1116
     13 C          -0.2290    1.0708   27.5590 C.ar    1  UNL1       -0.0130
     14 C           0.2100    0.9635   26.1287 C.ar    1  UNL1       -0.0025
     15 C          -0.4062    1.8491   25.0867 C.ar    1  UNL1        0.0180
     16 C          -1.4613    2.8421   25.4750 C.ar    1  UNL1        0.1057
     17 C          -1.9003    2.9494   26.9052 C.ar    1  UNL1        0.0180
     18 C          -1.2841    2.0637   27.9473 C.ar    1  UNL1       -0.0025
     19 S          -2.0775    3.7278   24.4328 S.O2    1  UNL1        0.0104
     20 C          -2.6937    4.6134   23.3908 C.3     1  UNL1        0.1816
     21 O          -3.3882    3.6715   25.1600 O.2     1  UNL1       -0.1686
     22 O          -0.7668    3.7841   23.7056 O.2     1  UNL1       -0.1686
     23 C           4.5450   -0.9566   23.6859 C.3     1  UNL1        0.0724
     24 C           3.5718   -1.6676   22.7931 C.3     1  UNL1        0.0217
     25 C           3.3788   -1.2087   21.3781 C.3     1  UNL1        0.0239
     26 C           4.1684   -1.8406   20.2703 C.ar    1  UNL1       -0.0180
     27 C           4.0091   -3.3027   19.9753 C.ar    1  UNL1        0.0255
     28 C           4.7988   -3.9346   18.8674 C.ar    1  UNL1        0.1421
     29 F           4.6395   -5.3966   18.5724 F       1  UNL1       -0.2041
     30 C           5.7477   -3.1044   18.0548 C.ar    1  UNL1        0.0592
     31 C           5.9069   -1.6424   18.3499 C.ar    1  UNL1        0.1421
     32 F           6.8559   -0.8122   17.5371 F       1  UNL1       -0.2041
     33 C           5.1173   -1.0105   19.4576 C.ar    1  UNL1        0.0255
     34 C           2.3961   -0.1179   21.0709 C.3     1  UNL1        0.0070
     35 C           2.6659    1.2852   21.5276 C.3     1  UNL1        0.0195
     36 C           1.6832    2.3760   21.2204 C.3     1  UNL1        0.0954
     37 N           0.4307    2.0638   20.4564 N.3     1  UNL1       -0.1594
     38 C           0.1608    0.6608   19.9997 C.3     1  UNL1        0.0954
     39 C           1.1435   -0.4301   20.3069 C.3     1  UNL1        0.0195
     40 S          -0.5520    3.1546   20.1492 S.O2    1  UNL1        0.0457
     41 C          -1.5348    4.2454   19.8419 C.3     1  UNL1        0.1960
     42 O           0.5242    3.9256   19.4441 O.2     1  UNL1       -0.1572
     43 O          -1.6283    2.3836   20.8543 O.2     1  UNL1       -0.1572
@<TRIPOS>BOND
     1    10    11    1
     2    11     7    1
     3     7     8   am
     4     8     9    2
     5     8    12    1
     6    12    13    1
     7    13    14   ar
     8    14    15   ar
     9    15    16   ar
    10    16    19    1
    11    19    20    1
    12    19    21    2
    13    19    22    2
    14    16    17   ar
    15    17    18   ar
    16     7     1    1
    17     1     2    1
    18     2     3    1
    19     3     4    1
    20     4    23    1
    21    23    24    1
    22    25    24    1
    23    25    26    1
    24    26    27   ar
    25    27    28   ar
    26    28    29    1
    27    28    30   ar
    28    30    31   ar
    29    31    32    1
    30    31    33   ar
    31    25    34    1
    32    34    35    1
    33    35    36    1
    34    36    37    1
    35    37    40    1
    36    40    41    1
    37    40    42    2
    38    40    43    2
    39    37    38    1
    40    38    39    1
    41     4     5    1
    42     5     6    1
    43    18    13   ar
    44     6     1    1
    45    33    26   ar
    46    39    34    1
@<TRIPOS>MOLECULE
*****
 43 46 0 0 0
SMALL
GASTEIGER

@<TRIPOS>ATOM
      1 C          -0.6669    3.6547   22.8801 C.3     1  UNL1        0.0781
      2 C           0.7380    4.1007   23.1580 C.3     1  UNL1        0.0372
      3 C           1.8386    3.7531   22.1999 C.3     1  UNL1        0.0738
      4 N           1.5343    2.9596   20.9640 N.3     1  UNL1       -0.2726
      5 C           0.1293    2.5136   20.6860 C.3     1  UNL1        0.0738
      6 C          -0.9713    2.8611   21.6441 C.3     1  UNL1        0.0372
      7 N          -1.7675    4.0023   23.8381 N.am    1  UNL1       -0.2808
      8 C          -1.8879    3.2678   25.1405 C.2     1  UNL1        0.2300
      9 O          -2.9885    3.6154   26.0986 O.2     1  UNL1       -0.2745
     10 C          -4.0252    4.7415   22.7864 C.3     1  UNL1        0.0233
     11 C          -2.7477    5.0843   23.4938 C.3     1  UNL1        0.0934
     12 C          -0.9078    2.1859   25.4848 C.3     1  UNL1        0.1116
     13 C          -0.3488    2.0944   26.8738 C.ar    1  UNL1       -0.0130
     14 C           0.3454    3.2767   27.4823 C.ar    1  UNL1       -0.0025
     15 C           0.9043    3.1852   28.8712 C.ar    1  UNL1        0.0180
     16 C           0.7690    1.9114   29.6517 C.ar    1  UNL1        0.1057
     17 C           0.0748    0.7291   29.0433 C.ar    1  UNL1        0.0180
     18 C          -0.4841    0.8206   27.6543 C.ar    1  UNL1       -0.0025
     19 S           1.3279    1.8199   31.0407 S.O2    1  UNL1        0.0104
     20 C           1.8868    1.7285   32.4297 C.3     1  UNL1        0.1816
     21 O           0.9750    3.2584   31.2774 O.2     1  UNL1       -0.1686
     22 O           1.6808    0.3814   30.8040 O.2     1  UNL1       -0.1686
     23 C           2.6349    2.6120   20.0059 C.3     1  UNL1        0.0724
     24 C           2.7770    1.2052   19.5053 C.3     1  UNL1        0.0217
     25 C           3.4091    0.1597   20.3755 C.3     1  UNL1        0.0239
     26 C           3.9381   -1.1044   19.7653 C.ar    1  UNL1       -0.0180
     27 C           3.1072   -2.3530   19.7879 C.ar    1  UNL1        0.0255
     28 C           3.6362   -3.6171   19.1777 C.ar    1  UNL1        0.1421
     29 F           2.8053   -4.8657   19.2002 F       1  UNL1       -0.2041
     30 C           4.9961   -3.6325   18.5449 C.ar    1  UNL1        0.0592
     31 C           5.8270   -2.3839   18.5223 C.ar    1  UNL1        0.1421
     32 F           7.1870   -2.3994   17.8896 F       1  UNL1       -0.2041
     33 C           5.2981   -1.1198   19.1325 C.ar    1  UNL1        0.0255
     34 C           3.5123    0.3782   21.8558 C.3     1  UNL1        0.0070
     35 C           2.3412    0.0736   22.7424 C.3     1  UNL1        0.0195
     36 C           2.4444    0.2921   24.2228 C.3     1  UNL1        0.0954
     37 N           3.7186    0.8152   24.8167 N.3     1  UNL1       -0.1594
     38 C           4.8897    1.1197   23.9302 C.3     1  UNL1        0.0954
     39 C           4.7865    0.9012   22.4498 C.3     1  UNL1        0.0195
     40 S           3.8218    1.0337   26.2971 S.O2    1  UNL1        0.0457
     41 C           3.9249    1.2522   27.7775 C.3     1  UNL1        0.1960
     42 O           4.8866    2.0655   26.0706 O.2     1  UNL1       -0.1572
     43 O           2.7569    0.0018   26.5236 O.2     1  UNL1       -0.1572
@<TRIPOS>BOND
     1    10    11    1
     2    11     7    1
     3     7     8   am
     4     8     9    2
     5     8    12    1
     6    12    13    1
     7    13    14   ar
     8    14    15   ar
     9    15    16   ar
    10    16    19    1
    11    19    20    1
    12    19    21    2
    13    19    22    2
    14    16    17   ar
    15    17    18   ar
    16     7     1    1
    17     1     2    1
    18     2     3    1
    19     3     4    1
    20     4    23    1
    21    23    24    1
    22    25    24    1
    23    25    26    1
    24    26    27   ar
    25    27    28   ar
    26    28    29    1
    27    28    30   ar
    28    30    31   ar
    29    31    32    1
    30    31    33   ar
    31    25    34    1
    32    34    35    1
    33    35    36    1
    34    36    37    1
    35    37    40    1
    36    40    41    1
    37    40    42    2
    38    40    43    2
    39    37    38    1
    40    38    39    1
    41     4     5    1
    42     5     6    1
    43    18    13   ar
    44     6     1    1
    45    33    26   ar
    46    39    34    1
@<TRIPOS>MOLECULE
*****
 43 46 0 0 0
SMALL
GASTEIGER

@<TRIPOS>ATOM
      1 C           2.6404    1.2190   24.7314 C.3     1  UNL1        0.0781
      2 C           3.5700    1.4999   25.8745 C.3     1  UNL1        0.0372
      3 C           4.4906    0.4261   26.3739 C.3     1  UNL1        0.0738
      4 N           4.4816   -0.9287   25.7302 N.3     1  UNL1       -0.2726
      5 C           3.5519   -1.2097   24.5870 C.3     1  UNL1        0.0738
      6 C           2.6313   -0.1359   24.0876 C.3     1  UNL1        0.0372
      7 N           1.7198    2.2928   24.2320 N.am    1  UNL1       -0.2808
      8 C           0.3170    2.3815   24.7560 C.2     1  UNL1        0.2300
      9 O          -0.6036    3.4553   24.2566 O.2     1  UNL1       -0.2745
     10 C           1.8290    3.1037   21.7662 C.3     1  UNL1        0.0233
     11 C           2.2018    3.2778   23.2086 C.3     1  UNL1        0.0934
     12 C          -0.1650    1.3965   25.7794 C.3     1  UNL1        0.1116
     13 C           0.1836    1.5866   27.2259 C.ar    1  UNL1       -0.0130
     14 C           0.1977    2.9641   27.8193 C.ar    1  UNL1       -0.0025
     15 C           0.5464    3.1541   29.2657 C.ar    1  UNL1        0.0180
     16 C           0.8809    1.9666   30.1188 C.ar    1  UNL1        0.1057
     17 C           0.8669    0.5890   29.5255 C.ar    1  UNL1        0.0180
     18 C           0.5182    0.3990   28.0790 C.ar    1  UNL1       -0.0025
     19 S           1.2296    2.1566   31.5654 S.O2    1  UNL1        0.0104
     20 C           1.5782    2.3467   33.0118 C.3     1  UNL1        0.1816
     21 O           0.5273    3.4820   31.5604 O.2     1  UNL1       -0.1686
     22 O           1.9319    0.8313   31.5703 O.2     1  UNL1       -0.1686
     23 C           5.4022   -2.0025   26.2296 C.3     1  UNL1        0.0724
     24 C           6.6680   -2.3107   25.4861 C.3     1  UNL1        0.0217
     25 C           6.6626   -3.3311   24.3867 C.3     1  UNL1        0.0239
     26 C           7.1614   -4.7208   24.6508 C.ar    1  UNL1       -0.0180
     27 C           7.0001   -5.3295   26.0123 C.ar    1  UNL1        0.0255
     28 C           7.4990   -6.7193   26.2764 C.ar    1  UNL1        0.1421
     29 F           7.3377   -7.3280   27.6378 F       1  UNL1       -0.2041
     30 C           8.1591   -7.5003   25.1791 C.ar    1  UNL1        0.0592
     31 C           8.3205   -6.8917   23.8176 C.ar    1  UNL1        0.1421
     32 F           8.9807   -7.6728   22.7203 F       1  UNL1       -0.2041
     33 C           7.8216   -5.5019   23.5535 C.ar    1  UNL1        0.0255
     34 C           6.1584   -2.9618   23.0232 C.3     1  UNL1        0.0070
     35 C           6.8949   -1.9463   22.2008 C.3     1  UNL1        0.0195
     36 C           6.3907   -1.5770   20.8372 C.3     1  UNL1        0.0954
     37 N           5.1499   -2.2231   20.2960 N.3     1  UNL1       -0.1594
     38 C           4.4134   -3.2386   21.1183 C.3     1  UNL1        0.0954
     39 C           4.9176   -3.6080   22.4819 C.3     1  UNL1        0.0195
     40 S           4.6457   -1.8538   18.9325 S.O2    1  UNL1        0.0457
     41 C           4.1414   -1.4845   17.5688 C.3     1  UNL1        0.1960
     42 O           3.4194   -1.2494   19.5496 O.2     1  UNL1       -0.1572
     43 O           5.8719   -2.4583   18.3153 O.2     1  UNL1       -0.1572
@<TRIPOS>BOND
     1    10    11    1
     2    11     7    1
     3     7     8   am
     4     8     9    2
     5     8    12    1
     6    12    13    1
     7    13    14   ar
     8    14    15   ar
     9    15    16   ar
    10    16    19    1
    11    19    20    1
    12    19    21    2
    13    19    22    2
    14    16    17   ar
    15    17    18   ar
    16     7     1    1
    17     1     2    1
    18     2     3    1
    19     3     4    1
    20     4    23    1
    21    23    24    1
    22    25    24    1
    23    25    26    1
    24    26    27   ar
    25    27    28   ar
    26    28    29    1
    27    28    30   ar
    28    30    31   ar
    29    31    32    1
    30    31    33   ar
    31    25    34    1
    32    34    35    1
    33    35    36    1
    34    36    37    1
    35    37    40    1
    36    40    41    1
    37    40    42    2
    38    40    43    2
    39    37    38    1
    40    38    39    1
    41     4     5    1
    42     5     6    1
    43    18    13   ar
    44     6     1    1
    45    33    26   ar
    46    39    34    1
@<TRIPOS>MOLECULE
*****
 43 46 0 0 0
SMALL
GASTEIGER

@<TRIPOS>ATOM
      1 C          -1.9304    4.1493   25.6061 C.3     1  UNL1        0.0781
      2 C          -1.6237    4.6445   24.2239 C.3     1  UNL1        0.0372
      3 C          -0.7493    3.8340   23.3136 C.3     1  UNL1        0.0738
      4 N          -0.1817    2.5283   23.7856 N.3     1  UNL1       -0.2726
      5 C          -0.4884    2.0330   25.1679 C.3     1  UNL1        0.0738
      6 C          -1.3628    2.8435   26.0782 C.3     1  UNL1        0.0372
      7 N          -2.8048    4.9598   26.5164 N.am    1  UNL1       -0.2808
      8 C          -4.2770    4.6808   26.5865 C.2     1  UNL1        0.2300
      9 O          -5.1514    5.4913   27.4968 O.2     1  UNL1       -0.2745
     10 C          -0.7167    6.1863   27.4572 C.3     1  UNL1        0.0233
     11 C          -2.2070    6.0491   27.3566 C.3     1  UNL1        0.0934
     12 C          -4.8748    3.5915   25.7464 C.3     1  UNL1        0.1116
     13 C          -5.3622    3.8950   24.3605 C.ar    1  UNL1       -0.0130
     14 C          -4.7118    3.2422   23.1770 C.ar    1  UNL1       -0.0025
     15 C          -5.1992    3.5457   21.7913 C.ar    1  UNL1        0.0180
     16 C          -6.3370    4.5020   21.5891 C.ar    1  UNL1        0.1057
     17 C          -6.9874    5.1548   22.7726 C.ar    1  UNL1        0.0180
     18 C          -6.5000    4.8512   24.1584 C.ar    1  UNL1       -0.0025
     19 S          -6.8244    4.8055   20.2033 S.O2    1  UNL1        0.0104
     20 C          -7.3119    5.1090   18.8176 C.3     1  UNL1        0.1816
     21 O          -7.8176    5.7787   20.7658 O.2     1  UNL1       -0.1686
     22 O          -5.8313    3.8323   19.6408 O.2     1  UNL1       -0.1686
     23 C           0.6927    1.7178   22.8753 C.3     1  UNL1        0.0724
     24 C           0.2193    1.3688   21.4955 C.3     1  UNL1        0.0217
     25 C           1.0287    1.7752   20.2997 C.3     1  UNL1        0.0239
     26 C           0.6516    2.9997   19.5198 C.ar    1  UNL1       -0.0180
     27 C           0.9175    4.3622   20.0879 C.ar    1  UNL1        0.0255
     28 C           0.5404    5.5867   19.3079 C.ar    1  UNL1        0.1421
     29 F           0.8063    6.9493   19.8761 F       1  UNL1       -0.2041
     30 C          -0.1026    5.4487   17.9598 C.ar    1  UNL1        0.0592
     31 C          -0.3685    4.0862   17.3916 C.ar    1  UNL1        0.1421
     32 F          -1.0115    3.9482   16.0434 F       1  UNL1       -0.2041
     33 C           0.0086    2.8617   18.1716 C.ar    1  UNL1        0.0255
     34 C           2.2151    0.9570   19.8839 C.3     1  UNL1        0.0070
     35 C           2.2417   -0.5179   20.1561 C.3     1  UNL1        0.0195
     36 C           3.4281   -1.3360   19.7404 C.3     1  UNL1        0.0954
     37 N           4.5880   -0.6794   19.0523 N.3     1  UNL1       -0.1594
     38 C           4.5615    0.7954   18.7801 C.3     1  UNL1        0.0954
     39 C           3.3750    1.6137   19.1959 C.3     1  UNL1        0.0195
     40 S           5.7745   -1.4975   18.6365 S.O2    1  UNL1        0.0457
     41 C           6.9610   -2.3157   18.2207 C.3     1  UNL1        0.1960
     42 O           6.5045   -1.0679   19.8744 O.2     1  UNL1       -0.1572
     43 O           5.0444   -1.9271   17.3986 O.2     1  UNL1       -0.1572
@<TRIPOS>BOND
     1    10    11    1
     2    11     7    1
     3     7     8   am
     4     8     9    2
     5     8    12    1
     6    12    13    1
     7    13    14   ar
     8    14    15   ar
     9    15    16   ar
    10    16    19    1
    11    19    20    1
    12    19    21    2
    13    19    22    2
    14    16    17   ar
    15    17    18   ar
    16     7     1    1
    17     1     2    1
    18     2     3    1
    19     3     4    1
    20     4    23    1
    21    23    24    1
    22    25    24    1
    23    25    26    1
    24    26    27   ar
    25    27    28   ar
    26    28    29    1
    27    28    30   ar
    28    30    31   ar
    29    31    32    1
    30    31    33   ar
    31    25    34    1
    32    34    35    1
    33    35    36    1
    34    36    37    1
    35    37    40    1
    36    40    41    1
    37    40    42    2
    38    40    43    2
    39    37    38    1
    40    38    39    1
    41     4     5    1
    42     5     6    1
    43    18    13   ar
    44     6     1    1
    45    33    26   ar
    46    39    34    1
@<TRIPOS>MOLECULE
*****
 43 46 0 0 0
SMALL
GASTEIGER

@<TRIPOS>ATOM
      1 C           0.2293    3.4672   23.1591 C.3     1  UNL1        0.0781
      2 C          -0.7007    3.3661   21.9865 C.3     1  UNL1        0.0372
      3 C          -0.6263    2.1808   21.0703 C.3     1  UNL1        0.0738
      4 N           0.3780    1.0966   21.3266 N.3     1  UNL1       -0.2726
      5 C           1.3081    1.1976   22.4992 C.3     1  UNL1        0.0738
      6 C           1.2337    2.3829   23.4154 C.3     1  UNL1        0.0372
      7 N           0.1549    4.6525   24.0753 N.am    1  UNL1       -0.2808
      8 C          -0.4597    4.5109   25.4364 C.2     1  UNL1        0.2300
      9 O          -0.5340    5.6963   26.3526 O.2     1  UNL1       -0.2745
     10 C           1.8051    6.0376   22.6235 C.3     1  UNL1        0.0233
     11 C           0.6951    5.9793   23.6306 C.3     1  UNL1        0.0934
     12 C          -0.9998    3.1842   25.8811 C.3     1  UNL1        0.1116
     13 C          -0.2354    2.3571   26.8720 C.ar    1  UNL1       -0.0130
     14 C           1.2226    2.6222   27.1038 C.ar    1  UNL1       -0.0025
     15 C           1.9869    1.7952   28.0946 C.ar    1  UNL1        0.0180
     16 C           1.2932    0.7031   28.8537 C.ar    1  UNL1        0.1057
     17 C          -0.1648    0.4380   28.6218 C.ar    1  UNL1        0.0180
     18 C          -0.9292    1.2650   27.6310 C.ar    1  UNL1       -0.0025
     19 S           2.0576   -0.1239   29.8445 S.O2    1  UNL1        0.0104
     20 C           2.8219   -0.9509   30.8354 C.3     1  UNL1        0.1816
     21 O           1.5574    0.7478   30.9580 O.2     1  UNL1       -0.1686
     22 O           2.5578   -0.9957   28.7311 O.2     1  UNL1       -0.1686
     23 C           0.4524   -0.0887   20.4103 C.3     1  UNL1        0.0724
     24 C           1.2885   -0.0241   19.1667 C.3     1  UNL1        0.0217
     25 C           2.7727   -0.2250   19.2495 C.3     1  UNL1        0.0239
     26 C           3.3272   -1.4712   19.8735 C.ar    1  UNL1       -0.0180
     27 C           3.6528   -1.4959   21.3376 C.ar    1  UNL1        0.0255
     28 C           4.2073   -2.7422   21.9616 C.ar    1  UNL1        0.1421
     29 F           4.5329   -2.7669   23.4256 F       1  UNL1       -0.2041
     30 C           4.4362   -3.9636   21.1217 C.ar    1  UNL1        0.0592
     31 C           4.1106   -3.9389   19.6576 C.ar    1  UNL1        0.1421
     32 F           4.3395   -5.1605   18.8177 F       1  UNL1       -0.2041
     33 C           3.5561   -2.6927   19.0336 C.ar    1  UNL1        0.0255
     34 C           3.7024    0.8203   18.7082 C.3     1  UNL1        0.0070
     35 C           3.3749    2.2746   18.8756 C.3     1  UNL1        0.0195
     36 C           4.3046    3.3198   18.3343 C.3     1  UNL1        0.0954
     37 N           5.5618    2.9109   17.6256 N.3     1  UNL1       -0.1594
     38 C           5.8893    1.4568   17.4582 C.3     1  UNL1        0.0954
     39 C           4.9596    0.4114   17.9995 C.3     1  UNL1        0.0195
     40 S           6.4915    3.9562   17.0843 S.O2    1  UNL1        0.0457
     41 C           7.4212    5.0016   16.5430 C.3     1  UNL1        0.1960
     42 O           7.4001    2.8805   16.5676 O.2     1  UNL1       -0.1572
     43 O           5.5828    5.0320   17.6010 O.2     1  UNL1       -0.1572
@<TRIPOS>BOND
     1    10    11    1
     2    11     7    1
     3     7     8   am
     4     8     9    2
     5     8    12    1
     6    12    13    1
     7    13    14   ar
     8    14    15   ar
     9    15    16   ar
    10    16    19    1
    11    19    20    1
    12    19    21    2
    13    19    22    2
    14    16    17   ar
    15    17    18   ar
    16     7     1    1
    17     1     2    1
    18     2     3    1
    19     3     4    1
    20     4    23    1
    21    23    24    1
    22    25    24    1
    23    25    26    1
    24    26    27   ar
    25    27    28   ar
    26    28    29    1
    27    28    30   ar
    28    30    31   ar
    29    31    32    1
    30    31    33   ar
    31    25    34    1
    32    34    35    1
    33    35    36    1
    34    36    37    1
    35    37    40    1
    36    40    41    1
    37    40    42    2
    38    40    43    2
    39    37    38    1
    40    38    39    1
    41     4     5    1
    42     5     6    1
    43    18    13   ar
    44     6     1    1
    45    33    26   ar
    46    39    34    1
@<TRIPOS>MOLECULE
*****
 43 46 0 0 0
SMALL
GASTEIGER

@<TRIPOS>ATOM
      1 C           4.8433   -0.5521   29.0949 C.3     1  UNL1        0.0781
      2 C           5.3743    0.8368   28.8981 C.3     1  UNL1        0.0372
      3 C           5.7664    1.3026   27.5272 C.3     1  UNL1        0.0738
      4 N           5.6274    0.3795   26.3532 N.3     1  UNL1       -0.2726
      5 C           5.0963   -1.0095   26.5499 C.3     1  UNL1        0.0738
      6 C           4.7042   -1.4753   27.9208 C.3     1  UNL1        0.0372
      7 N           4.4512   -1.0179   30.4658 N.am    1  UNL1       -0.2808
      8 C           5.4473   -1.7359   31.3274 C.2     1  UNL1        0.2300
      9 O           5.0552   -2.2017   32.6982 O.2     1  UNL1       -0.2745
     10 C           1.9803   -0.3467   30.0253 C.3     1  UNL1        0.0233
     11 C           3.0630   -0.7657   30.9751 C.3     1  UNL1        0.0934
     12 C           6.8354   -1.9881   30.8180 C.3     1  UNL1        0.1116
     13 C           7.1581   -3.2806   30.1284 C.ar    1  UNL1       -0.0130
     14 C           6.8864   -4.5857   30.8160 C.ar    1  UNL1       -0.0025
     15 C           7.2091   -5.8781   30.1264 C.ar    1  UNL1        0.0180
     16 C           7.8034   -5.8654   28.7492 C.ar    1  UNL1        0.1057
     17 C           8.0750   -4.5602   28.0617 C.ar    1  UNL1        0.0180
     18 C           7.7524   -3.2679   28.7513 C.ar    1  UNL1       -0.0025
     19 S           8.1260   -7.1578   28.0596 S.O2    1  UNL1        0.0104
     20 C           8.4486   -8.4502   27.3700 C.3     1  UNL1        0.1816
     21 O           7.1790   -6.8031   26.9519 O.2     1  UNL1       -0.1686
     22 O           9.0731   -7.5125   29.1674 O.2     1  UNL1       -0.1686
     23 C           6.0195    0.8453   24.9823 C.3     1  UNL1        0.0724
     24 C           5.0126    1.5297   24.1062 C.3     1  UNL1        0.0217
     25 C           3.7961    0.7863   23.6396 C.3     1  UNL1        0.0239
     26 C           2.4377    1.1841   24.1362 C.ar    1  UNL1       -0.0180
     27 C           2.0574    0.9303   25.5647 C.ar    1  UNL1        0.0255
     28 C           0.6989    1.3282   26.0612 C.ar    1  UNL1        0.1421
     29 F           0.3186    1.0743   27.4898 F       1  UNL1       -0.2041
     30 C          -0.2790    1.9799   25.1292 C.ar    1  UNL1        0.0592
     31 C           0.1013    2.2337   23.7006 C.ar    1  UNL1        0.1421
     32 F          -0.8767    2.8855   22.7685 F       1  UNL1       -0.2041
     33 C           1.4597    1.8359   23.2041 C.ar    1  UNL1        0.0255
     34 C           3.9380   -0.3549   22.6766 C.3     1  UNL1        0.0070
     35 C           3.9535   -0.0925   21.1997 C.3     1  UNL1        0.0195
     36 C           4.0954   -1.2337   20.2367 C.3     1  UNL1        0.0954
     37 N           4.2217   -2.6373   20.7504 N.3     1  UNL1       -0.1594
     38 C           4.2062   -2.8997   22.2271 C.3     1  UNL1        0.0954
     39 C           4.0643   -1.7585   23.1903 C.3     1  UNL1        0.0195
     40 S           4.3636   -3.7785   19.7873 S.O2    1  UNL1        0.0457
     41 C           4.5055   -4.9197   18.8242 C.3     1  UNL1        0.1960
     42 O           4.6205   -4.7128   20.9323 O.2     1  UNL1       -0.1572
     43 O           4.1067   -2.8442   18.6424 O.2     1  UNL1       -0.1572
@<TRIPOS>BOND
     1    10    11    1
     2    11     7    1
     3     7     8   am
     4     8     9    2
     5     8    12    1
     6    12    13    1
     7    13    14   ar
     8    14    15   ar
     9    15    16   ar
    10    16    19    1
    11    19    20    1
    12    19    21    2
    13    19    22    2
    14    16    17   ar
    15    17    18   ar
    16     7     1    1
    17     1     2    1
    18     2     3    1
    19     3     4    1
    20     4    23    1
    21    23    24    1
    22    25    24    1
    23    25    26    1
    24    26    27   ar
    25    27    28   ar
    26    28    29    1
    27    28    30   ar
    28    30    31   ar
    29    31    32    1
    30    31    33   ar
    31    25    34    1
    32    34    35    1
    33    35    36    1
    34    36    37    1
    35    37    40    1
    36    40    41    1
    37    40    42    2
    38    40    43    2
    39    37    38    1
    40    38    39    1
    41     4     5    1
    42     5     6    1
    43    18    13   ar
    44     6     1    1
    45    33    26   ar
    46    39    34    1
