@<TRIPOS>MOLECULE
*****
 34 37 0 0 0
SMALL
GASTEIGER

@<TRIPOS>ATOM
      1 N          -7.7298  -19.6340   21.4713 N.3     1  UNL1       -0.2641
      2 C          -8.5820  -19.1905   22.6233 C.3     1  UNL1        0.0981
      3 C          -9.6312  -20.1083   23.1770 C.3     1  UNL1        0.0224
      4 C         -10.4834  -19.6649   24.3290 C.3     1  UNL1        0.0065
      5 C         -10.2863  -18.3036   24.9274 C.3     1  UNL1        0.0277
      6 C          -9.2370  -17.3858   24.3737 C.ar    1  UNL1       -0.0073
      7 C          -9.0398  -16.0244   24.9720 C.ar    1  UNL1       -0.0015
      8 C          -7.9906  -15.1066   24.4183 C.ar    1  UNL1        0.0203
      9 C          -7.1384  -15.5501   23.2663 C.ar    1  UNL1        0.0985
     10 N          -7.3355  -16.9114   22.6679 N.ar    1  UNL1       -0.2471
     11 C          -8.3849  -17.8293   23.2216 C.ar    1  UNL1        0.0695
     12 C          -8.2150  -19.4479   20.0642 C.3     1  UNL1        0.0989
     13 C         -10.7319  -19.3637   19.4253 C.2     1  UNL1       -0.0081
     14 C          -9.4621  -20.1421   19.6028 C.2     1  UNL1       -0.0117
     15 C         -10.7547  -17.8910   19.7091 C.3     1  UNL1        0.1171
     16 N         -11.8568  -15.5545   22.7217 N.am    1  UNL1       -0.3133
     17 C         -11.0980  -16.0786   21.5387 C.2     1  UNL1        0.2979
     18 O          -9.9238  -15.3147   21.0024 O.2     1  UNL1       -0.2531
     19 N         -11.5134  -17.3668   20.8920 N.am    1  UNL1       -0.2851
     20 H         -11.5842  -14.7090   23.1462 H       1  UNL1        0.1465
     21 H         -12.6275  -16.0559   23.0737 H       1  UNL1        0.1465
     22 H         -12.2841  -17.8682   21.2441 H       1  UNL1        0.1513
     23 C          -6.3925  -20.2636   21.7263 C.3     1  UNL1        0.0889
     24 C          -5.1452  -19.4343   21.6449 C.3     1  UNL1        0.0764
     25 C          -4.3155  -19.4483   20.3954 C.3     1  UNL1        0.0626
     26 C          -3.0682  -18.6189   20.3140 C.ar    1  UNL1        0.0577
     27 N          -2.2385  -18.6329   19.0645 N.ar    1  UNL1       -0.2484
     28 C          -0.9913  -17.8036   18.9831 C.ar    1  UNL1        0.0984
     29 C          -0.5739  -16.9602   20.1512 C.ar    1  UNL1        0.0204
     30 C          -1.4036  -16.9462   21.4007 C.ar    1  UNL1       -0.0002
     31 C          -2.6508  -17.7755   21.4821 C.ar    1  UNL1        0.0073
     32 C          -3.4806  -17.7616   22.7316 C.3     1  UNL1        0.0968
     33 N          -4.7278  -18.5909   22.8130 N.3     1  UNL1       -0.2934
     34 H          -5.4969  -17.9482   23.0020 H       1  UNL1        0.1236
@<TRIPOS>BOND
     1    16    17   am
     2    17    18    2
     3    17    19   am
     4    19    15    1
     5    15    13    1
     6    13    14    2
     7    14    12    1
     8    12     1    1
     9     1    23    1
    10    24    23    1
    11    24    25    1
    12    25    26    1
    13    26    27   ar
    14    27    28   ar
    15    28    29   ar
    16    29    30   ar
    17    30    31   ar
    18    31    32    1
    19    32    33    1
    20     2     1    1
    21     2     3    1
    22     3     4    1
    23     4     5    1
    24     5     6    1
    25     6     7   ar
    26     7     8   ar
    27     8     9   ar
    28     9    10   ar
    29    10    11   ar
    30    33    24    1
    31    11     2    1
    32    31    26   ar
    33    11     6   ar
    34    16    20    1
    35    16    21    1
    36    19    22    1
    37    33    34    1
@<TRIPOS>MOLECULE
*****
 34 37 0 0 0
SMALL
GASTEIGER

@<TRIPOS>ATOM
      1 N          -9.4159  -18.8857   22.9954 N.3     1  UNL1       -0.2641
      2 C          -8.9083  -17.5040   23.2838 C.3     1  UNL1        0.0981
      3 C          -8.5526  -16.5845   22.1534 C.3     1  UNL1        0.0224
      4 C          -8.0451  -15.2027   22.4418 C.3     1  UNL1        0.0065
      5 C          -7.8932  -14.7405   23.8607 C.3     1  UNL1        0.0277
      6 C          -8.2489  -15.6600   24.9911 C.ar    1  UNL1       -0.0073
      7 C          -8.0970  -15.1978   26.4101 C.ar    1  UNL1       -0.0015
      8 C          -8.4527  -16.1173   27.5405 C.ar    1  UNL1        0.0203
      9 C          -8.9602  -17.4990   27.2521 C.ar    1  UNL1        0.0985
     10 N          -9.1121  -17.9612   25.8333 N.ar    1  UNL1       -0.2471
     11 C          -8.7564  -17.0417   24.7027 C.ar    1  UNL1        0.0695
     12 C         -10.8909  -19.1579   22.9947 C.3     1  UNL1        0.0989
     13 C         -12.8377  -17.4374   23.0020 C.2     1  UNL1       -0.0081
     14 C         -11.8212  -18.2519   23.7457 C.2     1  UNL1       -0.0117
     15 C         -12.9240  -17.5288   21.5072 C.3     1  UNL1        0.1171
     16 N         -10.9250  -15.2947   18.9067 N.am    1  UNL1       -0.3133
     17 C         -11.3289  -16.4646   19.7542 C.2     1  UNL1        0.2979
     18 O         -10.5417  -17.7401   19.6962 O.2     1  UNL1       -0.2531
     19 N         -12.5201  -16.3589   20.6598 N.am    1  UNL1       -0.2851
     20 H         -10.1432  -15.3640   18.3123 H       1  UNL1        0.1465
     21 H         -11.4417  -14.4575   18.9448 H       1  UNL1        0.1465
     22 H         -13.0367  -15.5218   20.6978 H       1  UNL1        0.1513
     23 C          -8.4483  -19.9952   22.7077 C.3     1  UNL1        0.0889
     24 C          -7.2379  -19.7342   21.8610 C.3     1  UNL1        0.0764
     25 C          -5.8801  -19.6656   22.4946 C.3     1  UNL1        0.0626
     26 C          -4.6696  -19.4046   21.6479 C.ar    1  UNL1        0.0577
     27 N          -3.3118  -19.3360   22.2815 N.ar    1  UNL1       -0.2484
     28 C          -2.1015  -19.0749   21.4348 C.ar    1  UNL1        0.0984
     29 C          -2.2490  -18.8825   19.9545 C.ar    1  UNL1        0.0204
     30 C          -3.6069  -18.9510   19.3210 C.ar    1  UNL1       -0.0002
     31 C          -4.8172  -19.2121   20.1676 C.ar    1  UNL1        0.0073
     32 C          -6.1751  -19.2806   19.5341 C.3     1  UNL1        0.0968
     33 N          -7.3855  -19.5417   20.3808 N.3     1  UNL1       -0.2934
     34 H          -7.8231  -20.3878   20.0160 H       1  UNL1        0.1236
@<TRIPOS>BOND
     1    16    17   am
     2    17    18    2
     3    17    19   am
     4    19    15    1
     5    15    13    1
     6    13    14    2
     7    14    12    1
     8    12     1    1
     9     1    23    1
    10    24    23    1
    11    24    25    1
    12    25    26    1
    13    26    27   ar
    14    27    28   ar
    15    28    29   ar
    16    29    30   ar
    17    30    31   ar
    18    31    32    1
    19    32    33    1
    20     2     1    1
    21     2     3    1
    22     3     4    1
    23     4     5    1
    24     5     6    1
    25     6     7   ar
    26     7     8   ar
    27     8     9   ar
    28     9    10   ar
    29    10    11   ar
    30    33    24    1
    31    11     2    1
    32    31    26   ar
    33    11     6   ar
    34    16    20    1
    35    16    21    1
    36    19    22    1
    37    33    34    1
@<TRIPOS>MOLECULE
*****
 34 37 0 0 0
SMALL
GASTEIGER

@<TRIPOS>ATOM
      1 N          -8.0677  -18.2979   22.6039 N.3     1  UNL1       -0.2641
      2 C          -9.5198  -18.3930   22.9678 C.3     1  UNL1        0.0981
      3 C          -9.9383  -19.1552   24.1900 C.3     1  UNL1        0.0224
      4 C         -11.3904  -19.2504   24.5539 C.3     1  UNL1        0.0065
      5 C         -12.4240  -18.5833   23.6956 C.3     1  UNL1        0.0277
      6 C         -12.0055  -17.8211   22.4734 C.ar    1  UNL1       -0.0073
      7 C         -13.0390  -17.1540   21.6150 C.ar    1  UNL1       -0.0015
      8 C         -12.6205  -16.3918   20.3928 C.ar    1  UNL1        0.0203
      9 C         -11.1684  -16.2967   20.0289 C.ar    1  UNL1        0.0985
     10 N         -10.1349  -16.9638   20.8872 N.ar    1  UNL1       -0.2471
     11 C         -10.5534  -17.7260   22.1095 C.ar    1  UNL1        0.0695
     12 C          -7.2663  -17.1013   23.0231 C.3     1  UNL1        0.0989
     13 C          -7.1249  -15.0537   24.6161 C.2     1  UNL1       -0.0081
     14 C          -7.9333  -15.9664   23.7423 C.2     1  UNL1       -0.0117
     15 C          -5.6496  -15.2759   24.7707 C.3     1  UNL1        0.1171
     16 N          -2.9170  -16.0278   21.9926 N.am    1  UNL1       -0.3133
     17 C          -3.8303  -16.2103   23.1685 C.2     1  UNL1        0.2979
     18 O          -3.8374  -17.5095   23.9181 O.2     1  UNL1       -0.2531
     19 N          -4.7363  -15.0935   23.5949 N.am    1  UNL1       -0.2851
     20 H          -2.3223  -16.7608   21.7128 H       1  UNL1        0.1465
     21 H          -2.9123  -15.1751   21.5006 H       1  UNL1        0.1465
     22 H          -4.7316  -14.2407   23.1029 H       1  UNL1        0.1513
     23 C          -7.4171  -19.3994   21.8208 C.3     1  UNL1        0.0889
     24 C          -5.9440  -19.3521   21.5416 C.3     1  UNL1        0.0764
     25 C          -5.4285  -18.5806   20.3630 C.3     1  UNL1        0.0626
     26 C          -3.9554  -18.5332   20.0838 C.ar    1  UNL1        0.0577
     27 N          -3.4399  -17.7617   18.9053 N.ar    1  UNL1       -0.2484
     28 C          -1.9669  -17.7144   18.6261 C.ar    1  UNL1        0.0984
     29 C          -1.0094  -18.4387   19.5254 C.ar    1  UNL1        0.0204
     30 C          -1.5249  -19.2102   20.7039 C.ar    1  UNL1       -0.0002
     31 C          -2.9979  -19.2575   20.9831 C.ar    1  UNL1        0.0073
     32 C          -3.5136  -20.0290   22.1617 C.3     1  UNL1        0.0968
     33 N          -4.9865  -20.0763   22.4409 N.3     1  UNL1       -0.2934
     34 H          -5.1207  -19.6987   23.3789 H       1  UNL1        0.1236
@<TRIPOS>BOND
     1    16    17   am
     2    17    18    2
     3    17    19   am
     4    19    15    1
     5    15    13    1
     6    13    14    2
     7    14    12    1
     8    12     1    1
     9     1    23    1
    10    24    23    1
    11    24    25    1
    12    25    26    1
    13    26    27   ar
    14    27    28   ar
    15    28    29   ar
    16    29    30   ar
    17    30    31   ar
    18    31    32    1
    19    32    33    1
    20     2     1    1
    21     2     3    1
    22     3     4    1
    23     4     5    1
    24     5     6    1
    25     6     7   ar
    26     7     8   ar
    27     8     9   ar
    28     9    10   ar
    29    10    11   ar
    30    33    24    1
    31    11     2    1
    32    31    26   ar
    33    11     6   ar
    34    16    20    1
    35    16    21    1
    36    19    22    1
    37    33    34    1
@<TRIPOS>MOLECULE
*****
 34 37 0 0 0
SMALL
GASTEIGER

@<TRIPOS>ATOM
      1 N          -7.7800  -18.3723   22.6156 N.3     1  UNL1       -0.2641
      2 C          -9.2093  -18.5888   23.0157 C.3     1  UNL1        0.0981
      3 C          -9.5332  -19.4268   24.2169 C.3     1  UNL1        0.0224
      4 C         -10.9625  -19.6433   24.6171 C.3     1  UNL1        0.0065
      5 C         -12.0680  -19.0219   23.8160 C.3     1  UNL1        0.0277
      6 C         -11.7441  -18.1840   22.6148 C.ar    1  UNL1       -0.0073
      7 C         -12.8496  -17.5625   21.8137 C.ar    1  UNL1       -0.0015
      8 C         -12.5257  -16.7246   20.6125 C.ar    1  UNL1        0.0203
      9 C         -11.0964  -16.5080   20.2123 C.ar    1  UNL1        0.0985
     10 N          -9.9909  -17.1294   21.0134 N.ar    1  UNL1       -0.2471
     11 C         -10.3148  -17.9674   22.2147 C.ar    1  UNL1        0.0695
     12 C          -7.0537  -17.1395   23.0656 C.3     1  UNL1        0.0989
     13 C          -8.4812  -15.1122   23.8417 C.2     1  UNL1       -0.0081
     14 C          -7.6390  -15.7845   22.7983 C.2     1  UNL1       -0.0117
     15 C          -8.7381  -15.7948   25.1524 C.3     1  UNL1        0.1171
     16 N          -6.6324  -14.3150   28.1734 N.am    1  UNL1       -0.3133
     17 C          -6.9711  -15.0089   26.8873 C.2     1  UNL1        0.2979
     18 O          -5.8815  -15.6105   26.0503 O.2     1  UNL1       -0.2531
     19 N          -8.3994  -15.1010   26.4384 N.am    1  UNL1       -0.2851
     20 H          -5.6950  -14.2545   28.4681 H       1  UNL1        0.1465
     21 H          -7.3476  -13.9201   28.7228 H       1  UNL1        0.1465
     22 H          -9.1145  -14.7061   26.9878 H       1  UNL1        0.1513
     23 C          -7.0769  -19.3886   21.7654 C.3     1  UNL1        0.0889
     24 C          -5.6105  -19.2456   21.4838 C.3     1  UNL1        0.0764
     25 C          -5.1508  -18.5826   20.2193 C.3     1  UNL1        0.0626
     26 C          -3.6843  -18.4396   19.9378 C.ar    1  UNL1        0.0577
     27 N          -3.2246  -17.7766   18.6733 N.ar    1  UNL1       -0.2484
     28 C          -1.7582  -17.6337   18.3918 C.ar    1  UNL1        0.0984
     29 C          -0.7516  -18.1538   19.3747 C.ar    1  UNL1        0.0204
     30 C          -1.2114  -18.8168   20.6392 C.ar    1  UNL1       -0.0002
     31 C          -2.6777  -18.9597   20.9207 C.ar    1  UNL1        0.0073
     32 C          -3.1375  -19.6228   22.1853 C.3     1  UNL1        0.0968
     33 N          -4.6039  -19.7657   22.4668 N.3     1  UNL1       -0.2934
     34 H          -4.7819  -19.2889   23.3507 H       1  UNL1        0.1236
@<TRIPOS>BOND
     1    16    17   am
     2    17    18    2
     3    17    19   am
     4    19    15    1
     5    15    13    1
     6    13    14    2
     7    14    12    1
     8    12     1    1
     9     1    23    1
    10    24    23    1
    11    24    25    1
    12    25    26    1
    13    26    27   ar
    14    27    28   ar
    15    28    29   ar
    16    29    30   ar
    17    30    31   ar
    18    31    32    1
    19    32    33    1
    20     2     1    1
    21     2     3    1
    22     3     4    1
    23     4     5    1
    24     5     6    1
    25     6     7   ar
    26     7     8   ar
    27     8     9   ar
    28     9    10   ar
    29    10    11   ar
    30    33    24    1
    31    11     2    1
    32    31    26   ar
    33    11     6   ar
    34    16    20    1
    35    16    21    1
    36    19    22    1
    37    33    34    1
@<TRIPOS>MOLECULE
*****
 34 37 0 0 0
SMALL
GASTEIGER

@<TRIPOS>ATOM
      1 N          -6.5526  -19.0267   22.2386 N.3     1  UNL1       -0.2641
      2 C          -5.3492  -19.3389   21.3994 C.3     1  UNL1        0.0981
      3 C          -5.3715  -20.5103   20.4627 C.3     1  UNL1        0.0224
      4 C          -4.1681  -20.8225   19.6234 C.3     1  UNL1        0.0065
      5 C          -2.9424  -19.9633   19.7208 C.3     1  UNL1        0.0277
      6 C          -2.9201  -18.7919   20.6575 C.ar    1  UNL1       -0.0073
      7 C          -1.6944  -17.9327   20.7549 C.ar    1  UNL1       -0.0015
      8 C          -1.6721  -16.7614   21.6916 C.ar    1  UNL1        0.0203
      9 C          -2.8755  -16.4492   22.5309 C.ar    1  UNL1        0.0985
     10 N          -4.1012  -17.3083   22.4335 N.ar    1  UNL1       -0.2471
     11 C          -4.1235  -18.4797   21.4968 C.ar    1  UNL1        0.0695
     12 C          -6.7364  -17.6492   22.8030 C.3     1  UNL1        0.0989
     13 C          -8.6218  -15.8657   22.9247 C.2     1  UNL1       -0.0081
     14 C          -7.6483  -16.6740   22.1192 C.2     1  UNL1       -0.0117
     15 C          -8.6835  -16.0326   24.4141 C.3     1  UNL1        0.1171
     16 N          -6.8405  -14.6467   27.6440 N.am    1  UNL1       -0.3133
     17 C          -7.6923  -15.5057   26.7571 C.2     1  UNL1        0.2979
     18 O          -8.4046  -16.6968   27.3264 O.2     1  UNL1       -0.2531
     19 N          -7.8318  -15.1737   25.3010 N.am    1  UNL1       -0.2851
     20 H          -6.7489  -14.8646   28.5997 H       1  UNL1        0.1465
     21 H          -6.3730  -13.8649   27.2704 H       1  UNL1        0.1465
     22 H          -7.3643  -14.3919   24.9274 H       1  UNL1        0.1513
     23 C          -7.5721  -20.0920   22.5135 C.3     1  UNL1        0.0889
     24 C          -8.9151  -19.7197   23.0685 C.3     1  UNL1        0.0764
     25 C          -9.9545  -19.1128   22.1734 C.3     1  UNL1        0.0626
     26 C         -11.2974  -18.7404   22.7284 C.ar    1  UNL1        0.0577
     27 N         -12.3368  -18.1335   21.8332 N.ar    1  UNL1       -0.2484
     28 C         -13.6796  -17.7611   22.3883 C.ar    1  UNL1        0.0984
     29 C         -13.9831  -17.9957   23.8384 C.ar    1  UNL1        0.0204
     30 C         -12.9437  -18.6026   24.7335 C.ar    1  UNL1       -0.0002
     31 C         -11.6008  -18.9750   24.1785 C.ar    1  UNL1        0.0073
     32 C         -10.5614  -19.5819   25.0736 C.3     1  UNL1        0.0968
     33 N          -9.2185  -19.9542   24.5186 N.3     1  UNL1       -0.2934
     34 H          -9.0969  -20.9528   24.6871 H       1  UNL1        0.1236
@<TRIPOS>BOND
     1    16    17   am
     2    17    18    2
     3    17    19   am
     4    19    15    1
     5    15    13    1
     6    13    14    2
     7    14    12    1
     8    12     1    1
     9     1    23    1
    10    24    23    1
    11    24    25    1
    12    25    26    1
    13    26    27   ar
    14    27    28   ar
    15    28    29   ar
    16    29    30   ar
    17    30    31   ar
    18    31    32    1
    19    32    33    1
    20     2     1    1
    21     2     3    1
    22     3     4    1
    23     4     5    1
    24     5     6    1
    25     6     7   ar
    26     7     8   ar
    27     8     9   ar
    28     9    10   ar
    29    10    11   ar
    30    33    24    1
    31    11     2    1
    32    31    26   ar
    33    11     6   ar
    34    16    20    1
    35    16    21    1
    36    19    22    1
    37    33    34    1
@<TRIPOS>MOLECULE
*****
 34 37 0 0 0
SMALL
GASTEIGER

@<TRIPOS>ATOM
      1 N          -7.5982  -18.6897   22.2190 N.3     1  UNL1       -0.2641
      2 C          -8.7896  -18.7081   21.3078 C.3     1  UNL1        0.0981
      3 C          -8.7587  -19.5235   20.0492 C.3     1  UNL1        0.0224
      4 C          -9.9501  -19.5419   19.1380 C.3     1  UNL1        0.0065
      5 C         -11.1723  -18.7448   19.4853 C.3     1  UNL1        0.0277
      6 C         -11.2032  -17.9293   20.7439 C.ar    1  UNL1       -0.0073
      7 C         -12.4255  -17.1321   21.0913 C.ar    1  UNL1       -0.0015
      8 C         -12.4564  -16.3167   22.3498 C.ar    1  UNL1        0.0203
      9 C         -11.2650  -16.2983   23.2611 C.ar    1  UNL1        0.0985
     10 N         -10.0428  -17.0954   22.9137 N.ar    1  UNL1       -0.2471
     11 C         -10.0118  -17.9109   21.6551 C.ar    1  UNL1        0.0695
     12 C          -7.4509  -17.5999   23.2390 C.3     1  UNL1        0.0989
     13 C          -6.2707  -15.3559   23.8062 C.2     1  UNL1       -0.0081
     14 C          -6.2150  -16.7499   23.2553 C.2     1  UNL1       -0.0117
     15 C          -7.5622  -14.8117   24.3408 C.3     1  UNL1        0.1171
     16 N          -8.5575  -16.5426   27.7707 N.am    1  UNL1       -0.3133
     17 C          -7.7830  -15.7663   26.7471 C.2     1  UNL1        0.2979
     18 O          -6.4550  -15.1685   27.1061 O.2     1  UNL1       -0.2531
     19 N          -8.3366  -15.5879   25.3644 N.am    1  UNL1       -0.2851
     20 H          -8.1942  -16.6597   28.6781 H       1  UNL1        0.1465
     21 H          -9.4291  -16.9350   27.5350 H       1  UNL1        0.1465
     22 H          -9.2083  -15.9803   25.1288 H       1  UNL1        0.1513
     23 C          -6.5542  -19.7612   22.1102 C.3     1  UNL1        0.0889
     24 C          -5.1410  -19.3988   21.7617 C.3     1  UNL1        0.0764
     25 C          -4.8071  -18.9278   20.3773 C.3     1  UNL1        0.0626
     26 C          -3.3938  -18.5653   20.0287 C.ar    1  UNL1        0.0577
     27 N          -3.0600  -18.0944   18.6443 N.ar    1  UNL1       -0.2484
     28 C          -1.6468  -17.7319   18.2959 C.ar    1  UNL1        0.0984
     29 C          -0.5674  -17.8405   19.3318 C.ar    1  UNL1        0.0204
     30 C          -0.9013  -18.3114   20.7163 C.ar    1  UNL1       -0.0002
     31 C          -2.3145  -18.6739   21.0647 C.ar    1  UNL1        0.0073
     32 C          -2.6484  -19.1449   22.4492 C.3     1  UNL1        0.0968
     33 N          -4.0616  -19.5073   22.7977 N.3     1  UNL1       -0.2934
     34 H          -4.3370  -18.9057   23.5740 H       1  UNL1        0.1236
@<TRIPOS>BOND
     1    16    17   am
     2    17    18    2
     3    17    19   am
     4    19    15    1
     5    15    13    1
     6    13    14    2
     7    14    12    1
     8    12     1    1
     9     1    23    1
    10    24    23    1
    11    24    25    1
    12    25    26    1
    13    26    27   ar
    14    27    28   ar
    15    28    29   ar
    16    29    30   ar
    17    30    31   ar
    18    31    32    1
    19    32    33    1
    20     2     1    1
    21     2     3    1
    22     3     4    1
    23     4     5    1
    24     5     6    1
    25     6     7   ar
    26     7     8   ar
    27     8     9   ar
    28     9    10   ar
    29    10    11   ar
    30    33    24    1
    31    11     2    1
    32    31    26   ar
    33    11     6   ar
    34    16    20    1
    35    16    21    1
    36    19    22    1
    37    33    34    1
