@<TRIPOS>MOLECULE
*****
 30 34 0 0 0
SMALL
GASTEIGER

@<TRIPOS>ATOM
      1 C         -13.9638   -4.8791   18.6499 C.2     1  UNL1        0.0020
      2 C         -15.0406   -5.9060   18.4592 C.2     1  UNL1        0.0130
      3 C         -14.6836   -7.3605   18.3767 C.3     1  UNL1        0.1542
      4 C         -16.1172   -6.9328   18.2685 C.3     1  UNL1        0.0614
      5 C         -17.1938   -7.9597   18.0779 C.3     1  UNL1        0.0725
      6 N         -16.8369   -9.4142   17.9954 N.3     1  UNL1       -0.2972
      7 C         -15.4032   -9.8419   18.1035 C.3     1  UNL1        0.0725
      8 C         -14.3266   -8.8151   18.2941 C.3     1  UNL1        0.0614
      9 O         -13.2499   -7.7882   18.4848 O.3     1  UNL1       -0.4785
     10 C         -12.1732   -6.7614   18.6755 C.ar    1  UNL1        0.1386
     11 C         -10.7395   -7.1891   18.7836 C.ar    1  UNL1        0.0369
     12 C          -9.6629   -6.1622   18.9743 C.ar    1  UNL1        0.0031
     13 C         -10.0199   -4.7077   19.0568 C.ar    1  UNL1        0.0002
     14 C         -11.4535   -4.2800   18.9487 C.ar    1  UNL1        0.0030
     15 C         -12.5302   -5.3068   18.7580 C.ar    1  UNL1        0.0338
     16 H         -17.1772   -9.7503   17.0945 H       1  UNL1        0.1233
     17 C         -15.0348   -0.5154   18.8974 C.ar    1  UNL1        0.0536
     18 C         -14.5940   -1.1065   17.5911 C.ar    1  UNL1        0.0045
     19 C         -14.2370   -2.5611   17.5086 C.ar    1  UNL1        0.0001
     20 C         -14.3208   -3.4245   18.7324 C.ar    1  UNL1       -0.0001
     21 C         -14.7616   -2.8334   20.0386 C.ar    1  UNL1        0.0001
     22 C         -15.1186   -1.3788   20.1211 C.ar    1  UNL1        0.0045
     23 O         -14.3108    1.9702   19.1163 O.2     1  UNL1       -0.2699
     24 C         -15.3918    0.9391   18.9799 C.2     1  UNL1        0.2490
     25 N         -16.8297    1.3627   18.9262 N.am    1  UNL1       -0.2761
     26 C         -17.9107    0.3317   18.7898 C.3     1  UNL1        0.0937
     27 C         -19.3486    0.7553   18.7360 C.3     1  UNL1        0.0216
     28 C         -19.7056    2.2099   18.8186 C.3     1  UNL1        0.0035
     29 C         -18.6247    3.2409   18.9549 C.3     1  UNL1        0.0216
     30 C         -17.1867    2.8173   19.0087 C.3     1  UNL1        0.0937
@<TRIPOS>BOND
     1    23    24    2
     2    24    17    1
     3    17    18   ar
     4    18    19   ar
     5    19    20   ar
     6    20     1    1
     7     1     2    2
     8     2     3    1
     9     3     4    1
    10     4     5    1
    11     5     6    1
    12     6     7    1
    13     7     8    1
    14     3     9    1
    15     9    10    1
    16    10    11   ar
    17    11    12   ar
    18    12    13   ar
    19    13    14   ar
    20    14    15   ar
    21    20    21   ar
    22    21    22   ar
    23    24    25   am
    24    25    26    1
    25    26    27    1
    26    27    28    1
    27    28    29    1
    28    29    30    1
    29    22    17   ar
    30    30    25    1
    31    15     1    1
    32     8     3    1
    33    15    10   ar
    34     6    16    1
@<TRIPOS>MOLECULE
*****
 30 34 0 0 0
SMALL
GASTEIGER

@<TRIPOS>ATOM
      1 C           6.8259   -4.0154   24.7022 C.2     1  UNL1        0.0020
      2 C           6.4982   -3.3979   26.0294 C.2     1  UNL1        0.0130
      3 C           7.0044   -4.0258   27.2941 C.3     1  UNL1        0.1542
      4 C           6.1705   -2.7805   27.3566 C.3     1  UNL1        0.0614
      5 C           5.8429   -2.1631   28.6837 C.3     1  UNL1        0.0725
      6 N           6.3491   -2.7909   29.9484 N.3     1  UNL1       -0.2972
      7 C           7.1830   -4.0362   29.8860 C.3     1  UNL1        0.0725
      8 C           7.5106   -4.6536   28.5589 C.3     1  UNL1        0.0614
      9 O           7.8383   -5.2711   27.2316 O.3     1  UNL1       -0.4785
     10 C           8.1660   -5.8885   25.9045 C.ar    1  UNL1        0.1386
     11 C           8.9999   -7.1338   25.8420 C.ar    1  UNL1        0.0369
     12 C           9.3275   -7.7512   24.5148 C.ar    1  UNL1        0.0031
     13 C           8.8213   -7.1234   23.2501 C.ar    1  UNL1        0.0002
     14 C           7.9874   -5.8781   23.3125 C.ar    1  UNL1        0.0030
     15 C           7.6597   -5.2607   24.6397 C.ar    1  UNL1        0.0338
     16 H           5.5306   -3.0128   30.5152 H       1  UNL1        0.1233
     17 C           5.3071   -2.1319   20.9080 C.ar    1  UNL1        0.0536
     18 C           6.5448   -1.5987   21.5668 C.ar    1  UNL1        0.0045
     19 C           7.0510   -2.2265   22.8315 C.ar    1  UNL1        0.0001
     20 C           6.3196   -3.3876   23.4375 C.ar    1  UNL1       -0.0001
     21 C           5.0820   -3.9207   22.7786 C.ar    1  UNL1        0.0001
     22 C           4.5758   -3.2929   21.5139 C.ar    1  UNL1        0.0045
     23 O           5.6278   -1.5637   18.3931 O.2     1  UNL1       -0.2699
     24 C           4.8009   -1.5040   19.6433 C.2     1  UNL1        0.2490
     25 N           3.4678   -0.8166   19.6286 N.am    1  UNL1       -0.2761
     26 C           2.6409   -0.7569   20.8787 C.3     1  UNL1        0.0937
     27 C           1.3079   -0.0694   20.8641 C.3     1  UNL1        0.0216
     28 C           0.8016    0.5584   19.5994 C.3     1  UNL1        0.0035
     29 C           1.6285    0.4988   18.3493 C.3     1  UNL1        0.0216
     30 C           2.9616   -0.1887   18.3639 C.3     1  UNL1        0.0937
@<TRIPOS>BOND
     1    23    24    2
     2    24    17    1
     3    17    18   ar
     4    18    19   ar
     5    19    20   ar
     6    20     1    1
     7     1     2    2
     8     2     3    1
     9     3     4    1
    10     4     5    1
    11     5     6    1
    12     6     7    1
    13     7     8    1
    14     3     9    1
    15     9    10    1
    16    10    11   ar
    17    11    12   ar
    18    12    13   ar
    19    13    14   ar
    20    14    15   ar
    21    20    21   ar
    22    21    22   ar
    23    24    25   am
    24    25    26    1
    25    26    27    1
    26    27    28    1
    27    28    29    1
    28    29    30    1
    29    22    17   ar
    30    30    25    1
    31    15     1    1
    32     8     3    1
    33    15    10   ar
    34     6    16    1
@<TRIPOS>MOLECULE
*****
 30 34 0 0 0
SMALL
GASTEIGER

@<TRIPOS>ATOM
      1 C         -14.3146   -5.1629   18.8144 C.2     1  UNL1        0.0020
      2 C         -15.3589   -6.2256   18.6397 C.2     1  UNL1        0.0130
      3 C         -14.9495   -7.6588   18.4712 C.3     1  UNL1        0.1542
      4 C         -16.4030   -7.2882   18.4651 C.3     1  UNL1        0.0614
      5 C         -17.4471   -8.3509   18.2904 C.3     1  UNL1        0.0725
      6 N         -17.0378   -9.7841   18.1219 N.3     1  UNL1       -0.2972
      7 C         -15.5843  -10.1546   18.1280 C.3     1  UNL1        0.0725
      8 C         -14.5402   -9.0920   18.3027 C.3     1  UNL1        0.0614
      9 O         -13.4960   -8.0293   18.4773 O.3     1  UNL1       -0.4785
     10 C         -12.4518   -6.9667   18.6520 C.ar    1  UNL1        0.1386
     11 C         -10.9983   -7.3372   18.6581 C.ar    1  UNL1        0.0369
     12 C          -9.9541   -6.2746   18.8327 C.ar    1  UNL1        0.0031
     13 C         -10.3635   -4.8414   19.0013 C.ar    1  UNL1        0.0002
     14 C         -11.8169   -4.4709   18.9952 C.ar    1  UNL1        0.0030
     15 C         -12.8612   -5.5335   18.8205 C.ar    1  UNL1        0.0338
     16 H         -17.4173  -10.0955   17.2278 H       1  UNL1        0.1233
     17 C         -15.5426   -0.8634   19.3200 C.ar    1  UNL1        0.0536
     18 C         -14.8587   -1.5851   20.4432 C.ar    1  UNL1        0.0045
     19 C         -14.4494   -3.0183   20.2746 C.ar    1  UNL1        0.0001
     20 C         -14.7239   -3.7298   18.9829 C.ar    1  UNL1       -0.0001
     21 C         -15.4078   -3.0080   17.8598 C.ar    1  UNL1        0.0001
     22 C         -15.8172   -1.5748   18.0284 C.ar    1  UNL1        0.0045
     23 O         -17.0504    0.9286   20.4450 O.2     1  UNL1       -0.2699
     24 C         -15.9519    0.5698   19.4885 C.2     1  UNL1        0.2490
     25 N         -15.2628    1.6442   18.7007 N.am    1  UNL1       -0.2761
     26 C         -14.1644    1.2855   17.7442 C.3     1  UNL1        0.0937
     27 C         -13.4753    2.3599   16.9564 C.3     1  UNL1        0.0216
     28 C         -13.8846    3.7931   17.1249 C.3     1  UNL1        0.0035
     29 C         -14.9830    4.1519   18.0813 C.3     1  UNL1        0.0216
     30 C         -15.6722    3.0774   18.8692 C.3     1  UNL1        0.0937
@<TRIPOS>BOND
     1    23    24    2
     2    24    17    1
     3    17    18   ar
     4    18    19   ar
     5    19    20   ar
     6    20     1    1
     7     1     2    2
     8     2     3    1
     9     3     4    1
    10     4     5    1
    11     5     6    1
    12     6     7    1
    13     7     8    1
    14     3     9    1
    15     9    10    1
    16    10    11   ar
    17    11    12   ar
    18    12    13   ar
    19    13    14   ar
    20    14    15   ar
    21    20    21   ar
    22    21    22   ar
    23    24    25   am
    24    25    26    1
    25    26    27    1
    26    27    28    1
    27    28    29    1
    28    29    30    1
    29    22    17   ar
    30    30    25    1
    31    15     1    1
    32     8     3    1
    33    15    10   ar
    34     6    16    1
@<TRIPOS>MOLECULE
*****
 30 34 0 0 0
SMALL
GASTEIGER

@<TRIPOS>ATOM
      1 C           1.6506    1.7880   31.0835 C.2     1  UNL1        0.0020
      2 C           2.5553    0.6140   31.3143 C.2     1  UNL1        0.0130
      3 C           3.2234    0.4322   32.6450 C.3     1  UNL1        0.1542
      4 C           3.4600   -0.5600   31.5453 C.3     1  UNL1        0.0614
      5 C           4.3647   -1.7339   31.7762 C.3     1  UNL1        0.0725
      6 N           5.0328   -1.9157   33.1068 N.3     1  UNL1       -0.2972
      7 C           4.7962   -0.9234   34.2066 C.3     1  UNL1        0.0725
      8 C           3.8915    0.2505   33.9756 C.3     1  UNL1        0.0614
      9 O           2.9868    1.4245   33.7448 O.3     1  UNL1       -0.4785
     10 C           2.0821    2.5985   33.5139 C.ar    1  UNL1        0.1386
     11 C           1.8455    3.5908   34.6136 C.ar    1  UNL1        0.0369
     12 C           0.9408    4.7647   34.3827 C.ar    1  UNL1        0.0031
     13 C           0.2727    4.9465   33.0521 C.ar    1  UNL1        0.0002
     14 C           0.5093    3.9542   31.9523 C.ar    1  UNL1        0.0030
     15 C           1.4140    2.7802   32.1832 C.ar    1  UNL1        0.0338
     16 H           6.0377   -1.9280   32.9325 H       1  UNL1        0.1233
     17 C          -0.3537    2.3331   27.0915 C.ar    1  UNL1        0.0536
     18 C          -0.7981    1.2335   28.0100 C.ar    1  UNL1        0.0045
     19 C          -0.1300    1.0518   29.3406 C.ar    1  UNL1        0.0001
     20 C           0.9825    1.9697   29.7528 C.ar    1  UNL1       -0.0001
     21 C           1.4269    3.0692   28.8344 C.ar    1  UNL1        0.0001
     22 C           0.7588    3.2509   27.5038 C.ar    1  UNL1        0.0045
     23 O          -0.3463    2.0344   24.5107 O.2     1  UNL1       -0.2699
     24 C          -1.0218    2.5149   25.7609 C.2     1  UNL1        0.2490
     25 N          -2.3653    3.1770   25.6804 N.am    1  UNL1       -0.2761
     26 C          -3.0408    3.6574   26.9306 C.3     1  UNL1        0.0937
     27 C          -4.3843    4.3195   26.8502 C.3     1  UNL1        0.0216
     28 C          -5.0524    4.5013   25.5195 C.3     1  UNL1        0.0035
     29 C          -4.3770    4.0209   24.2693 C.3     1  UNL1        0.0216
     30 C          -3.0334    3.3587   24.3498 C.3     1  UNL1        0.0937
@<TRIPOS>BOND
     1    23    24    2
     2    24    17    1
     3    17    18   ar
     4    18    19   ar
     5    19    20   ar
     6    20     1    1
     7     1     2    2
     8     2     3    1
     9     3     4    1
    10     4     5    1
    11     5     6    1
    12     6     7    1
    13     7     8    1
    14     3     9    1
    15     9    10    1
    16    10    11   ar
    17    11    12   ar
    18    12    13   ar
    19    13    14   ar
    20    14    15   ar
    21    20    21   ar
    22    21    22   ar
    23    24    25   am
    24    25    26    1
    25    26    27    1
    26    27    28    1
    27    28    29    1
    28    29    30    1
    29    22    17   ar
    30    30    25    1
    31    15     1    1
    32     8     3    1
    33    15    10   ar
    34     6    16    1
@<TRIPOS>MOLECULE
*****
 30 34 0 0 0
SMALL
GASTEIGER

@<TRIPOS>ATOM
      1 C         -14.0828   -3.6596   19.1411 C.2     1  UNL1        0.0020
      2 C         -12.6269   -4.0063   19.0389 C.2     1  UNL1        0.0130
      3 C         -12.1966   -5.4433   19.0354 C.3     1  UNL1        0.1542
      4 C         -11.1711   -4.3531   18.9368 C.3     1  UNL1        0.0614
      5 C          -9.7154   -4.6998   18.8347 C.3     1  UNL1        0.0725
      6 N          -9.2851   -6.1368   18.8311 N.3     1  UNL1       -0.2972
      7 C         -10.3106   -7.2270   18.9297 C.3     1  UNL1        0.0725
      8 C         -11.7664   -6.8803   19.0318 C.3     1  UNL1        0.0614
      9 O         -13.2222   -6.5335   19.1340 O.3     1  UNL1       -0.4785
     10 C         -14.6780   -6.1868   19.2361 C.ar    1  UNL1        0.1386
     11 C         -15.7036   -7.2770   19.3347 C.ar    1  UNL1        0.0369
     12 C         -17.1593   -6.9302   19.4368 C.ar    1  UNL1        0.0031
     13 C         -17.5896   -5.4933   19.4404 C.ar    1  UNL1        0.0002
     14 C         -16.5641   -4.4031   19.3418 C.ar    1  UNL1        0.0030
     15 C         -15.1082   -4.7498   19.2396 C.ar    1  UNL1        0.0338
     16 H          -8.6514   -6.2564   19.6213 H       1  UNL1        0.1233
     17 C         -15.3735    0.6513   19.1517 C.ar    1  UNL1        0.0536
     18 C         -14.3545    0.1760   18.1589 C.ar    1  UNL1        0.0045
     19 C         -13.9242   -1.2610   18.1553 C.ar    1  UNL1        0.0001
     20 C         -14.5130   -2.2226   19.1446 C.ar    1  UNL1       -0.0001
     21 C         -15.5320   -1.7473   20.1374 C.ar    1  UNL1        0.0001
     22 C         -15.9623   -0.3104   20.1409 C.ar    1  UNL1        0.0045
     23 O         -14.9948    3.1116   19.8958 O.2     1  UNL1       -0.2699
     24 C         -15.8038    2.0882   19.1553 C.2     1  UNL1        0.2490
     25 N         -17.0431    2.5019   18.4183 N.am    1  UNL1       -0.2761
     26 C         -17.8521    1.4786   17.6778 C.3     1  UNL1        0.0937
     27 C         -19.0914    1.8922   16.9409 C.3     1  UNL1        0.0216
     28 C         -19.5216    3.3292   16.9444 C.3     1  UNL1        0.0035
     29 C         -18.7126    4.3525   17.6849 C.3     1  UNL1        0.0216
     30 C         -17.4733    3.9389   18.4219 C.3     1  UNL1        0.0937
@<TRIPOS>BOND
     1    23    24    2
     2    24    17    1
     3    17    18   ar
     4    18    19   ar
     5    19    20   ar
     6    20     1    1
     7     1     2    2
     8     2     3    1
     9     3     4    1
    10     4     5    1
    11     5     6    1
    12     6     7    1
    13     7     8    1
    14     3     9    1
    15     9    10    1
    16    10    11   ar
    17    11    12   ar
    18    12    13   ar
    19    13    14   ar
    20    14    15   ar
    21    20    21   ar
    22    21    22   ar
    23    24    25   am
    24    25    26    1
    25    26    27    1
    26    27    28    1
    27    28    29    1
    28    29    30    1
    29    22    17   ar
    30    30    25    1
    31    15     1    1
    32     8     3    1
    33    15    10   ar
    34     6    16    1
@<TRIPOS>MOLECULE
*****
 30 34 0 0 0
SMALL
GASTEIGER

@<TRIPOS>ATOM
      1 C           6.9934   -4.0804   25.0682 C.2     1  UNL1        0.0020
      2 C           7.2143   -5.4704   25.5871 C.2     1  UNL1        0.0130
      3 C           7.7312   -5.6776   26.9799 C.3     1  UNL1        0.1542
      4 C           7.4353   -6.8603   26.1060 C.3     1  UNL1        0.0614
      5 C           7.6562   -8.2502   26.6250 C.3     1  UNL1        0.0725
      6 N           8.1731   -8.4574   28.0178 N.3     1  UNL1       -0.2972
      7 C           8.4690   -7.2748   28.8917 C.3     1  UNL1        0.0725
      8 C           8.2480   -5.8849   28.3727 C.3     1  UNL1        0.0614
      9 O           8.0271   -4.4949   27.8538 O.3     1  UNL1       -0.4785
     10 C           7.8061   -3.1050   27.3348 C.ar    1  UNL1        0.1386
     11 C           8.1020   -1.9222   28.2087 C.ar    1  UNL1        0.0369
     12 C           7.8811   -0.5324   27.6898 C.ar    1  UNL1        0.0031
     13 C           7.3642   -0.3251   26.2970 C.ar    1  UNL1        0.0002
     14 C           7.0683   -1.5078   25.4231 C.ar    1  UNL1        0.0030
     15 C           7.2893   -2.8978   25.9420 C.ar    1  UNL1        0.0338
     16 H           9.0413   -8.9862   27.9340 H       1  UNL1        0.1233
     17 C           5.4428   -3.4588   20.8897 C.ar    1  UNL1        0.0536
     18 C           4.5240   -3.2904   22.0634 C.ar    1  UNL1        0.0045
     19 C           5.0409   -3.4977   23.4563 C.ar    1  UNL1        0.0001
     20 C           6.4765   -3.8732   23.6753 C.ar    1  UNL1       -0.0001
     21 C           7.3953   -4.0415   22.5017 C.ar    1  UNL1        0.0001
     22 C           6.8784   -3.8343   21.1089 C.ar    1  UNL1        0.0045
     23 O           4.5758   -4.4342   18.6432 O.2     1  UNL1       -0.2699
     24 C           4.9260   -3.2515   19.4969 C.2     1  UNL1        0.2490
     25 N           4.7594   -1.8618   18.9578 N.am    1  UNL1       -0.2761
     26 C           5.1096   -0.6791   19.8115 C.3     1  UNL1        0.0937
     27 C           4.9430    0.7107   19.2724 C.3     1  UNL1        0.0216
     28 C           4.4261    0.9179   17.8796 C.3     1  UNL1        0.0035
     29 C           4.0759   -0.2647   17.0259 C.3     1  UNL1        0.0216
     30 C           4.2425   -1.6545   17.5650 C.3     1  UNL1        0.0937
@<TRIPOS>BOND
     1    23    24    2
     2    24    17    1
     3    17    18   ar
     4    18    19   ar
     5    19    20   ar
     6    20     1    1
     7     1     2    2
     8     2     3    1
     9     3     4    1
    10     4     5    1
    11     5     6    1
    12     6     7    1
    13     7     8    1
    14     3     9    1
    15     9    10    1
    16    10    11   ar
    17    11    12   ar
    18    12    13   ar
    19    13    14   ar
    20    14    15   ar
    21    20    21   ar
    22    21    22   ar
    23    24    25   am
    24    25    26    1
    25    26    27    1
    26    27    28    1
    27    28    29    1
    28    29    30    1
    29    22    17   ar
    30    30    25    1
    31    15     1    1
    32     8     3    1
    33    15    10   ar
    34     6    16    1
@<TRIPOS>MOLECULE
*****
 30 34 0 0 0
SMALL
GASTEIGER

@<TRIPOS>ATOM
      1 C           2.2578    0.3025   22.4551 C.2     1  UNL1        0.0020
      2 C           3.0966   -0.9365   22.5618 C.2     1  UNL1        0.0130
      3 C           3.4416   -1.7171   21.3283 C.3     1  UNL1        0.1542
      4 C           3.9354   -2.1754   22.6684 C.3     1  UNL1        0.0614
      5 C           4.7742   -3.4144   22.7751 C.3     1  UNL1        0.0725
      6 N           5.1192   -4.1950   21.5416 N.3     1  UNL1       -0.2972
      7 C           4.6254   -3.7367   20.2014 C.3     1  UNL1        0.0725
      8 C           3.7866   -2.4978   20.0948 C.3     1  UNL1        0.0614
      9 O           2.9478   -1.2588   19.9881 O.3     1  UNL1       -0.4785
     10 C           2.1090   -0.0198   19.8814 C.ar    1  UNL1        0.1386
     11 C           1.6152    0.4385   18.5412 C.ar    1  UNL1        0.0369
     12 C           0.7764    1.6775   18.4346 C.ar    1  UNL1        0.0031
     13 C           0.4314    2.4581   19.6681 C.ar    1  UNL1        0.0002
     14 C           0.9252    1.9998   21.0083 C.ar    1  UNL1        0.0030
     15 C           1.7640    0.7608   21.1149 C.ar    1  UNL1        0.0338
     16 H           4.7597   -5.1394   21.6806 H       1  UNL1        0.1233
     17 C           1.2228    2.6445   26.1557 C.ar    1  UNL1        0.0536
     18 C           2.5666    2.8154   25.5113 C.ar    1  UNL1        0.0045
     19 C           2.9116    2.0348   24.2778 C.ar    1  UNL1        0.0001
     20 C           1.9128    1.0832   23.6886 C.ar    1  UNL1       -0.0001
     21 C           0.5691    0.9123   24.3330 C.ar    1  UNL1        0.0001
     22 C           0.2242    1.6929   25.5665 C.ar    1  UNL1        0.0045
     23 O           0.2864    4.7982   27.2668 O.2     1  UNL1       -0.2699
     24 C           0.8779    3.4251   27.3892 C.2     1  UNL1        0.2490
     25 N           1.1243    2.8328   28.7450 N.am    1  UNL1       -0.2761
     26 C           1.7158    1.4597   28.8674 C.3     1  UNL1        0.0937
     27 C           1.9623    0.8673   30.2232 C.3     1  UNL1        0.0216
     28 C           1.6173    1.6480   31.4567 C.3     1  UNL1        0.0035
     29 C           1.0258    3.0210   31.3344 C.3     1  UNL1        0.0216
     30 C           0.7793    3.6134   29.9785 C.3     1  UNL1        0.0937
@<TRIPOS>BOND
     1    23    24    2
     2    24    17    1
     3    17    18   ar
     4    18    19   ar
     5    19    20   ar
     6    20     1    1
     7     1     2    2
     8     2     3    1
     9     3     4    1
    10     4     5    1
    11     5     6    1
    12     6     7    1
    13     7     8    1
    14     3     9    1
    15     9    10    1
    16    10    11   ar
    17    11    12   ar
    18    12    13   ar
    19    13    14   ar
    20    14    15   ar
    21    20    21   ar
    22    21    22   ar
    23    24    25   am
    24    25    26    1
    25    26    27    1
    26    27    28    1
    27    28    29    1
    28    29    30    1
    29    22    17   ar
    30    30    25    1
    31    15     1    1
    32     8     3    1
    33    15    10   ar
    34     6    16    1
@<TRIPOS>MOLECULE
*****
 30 34 0 0 0
SMALL
GASTEIGER

@<TRIPOS>ATOM
      1 C          -1.2496    2.8984   25.5420 C.2     1  UNL1        0.0020
      2 C          -0.5372    2.6486   24.2457 C.2     1  UNL1        0.0130
      3 C          -1.1831    3.0352   22.9483 C.3     1  UNL1        0.1542
      4 C           0.1751    2.3989   22.9495 C.3     1  UNL1        0.0614
      5 C           0.8875    2.1491   21.6534 C.3     1  UNL1        0.0725
      6 N           0.2415    2.5357   20.3559 N.3     1  UNL1       -0.2972
      7 C          -1.1168    3.1721   20.3547 C.3     1  UNL1        0.0725
      8 C          -1.8291    3.4218   21.6509 C.3     1  UNL1        0.0614
      9 O          -2.5415    3.6716   22.9472 O.3     1  UNL1       -0.4785
     10 C          -3.2538    3.9214   24.2433 C.ar    1  UNL1        0.1386
     11 C          -4.6122    4.5578   24.2422 C.ar    1  UNL1        0.0369
     12 C          -5.3245    4.8076   25.5384 C.ar    1  UNL1        0.0031
     13 C          -4.6786    4.4209   26.8358 C.ar    1  UNL1        0.0002
     14 C          -3.3203    3.7846   26.8370 C.ar    1  UNL1        0.0030
     15 C          -2.6079    3.5348   25.5408 C.ar    1  UNL1        0.0338
     16 H           0.1685    1.6848   19.7983 H       1  UNL1        0.1233
     17 C           0.6883    1.7386   29.4342 C.ar    1  UNL1        0.0536
     18 C          -0.2808    0.8050   28.7714 C.ar    1  UNL1        0.0045
     19 C          -0.9267    1.1916   27.4740 C.ar    1  UNL1        0.0001
     20 C          -0.6036    2.5118   26.8394 C.ar    1  UNL1       -0.0001
     21 C           0.3654    3.4454   27.5022 C.ar    1  UNL1        0.0001
     22 C           1.0113    3.0588   28.7996 C.ar    1  UNL1        0.0045
     23 O           0.7345    1.8011   32.0312 O.2     1  UNL1       -0.2699
     24 C           1.3342    1.3520   30.7316 C.2     1  UNL1        0.2490
     25 N           2.5798    0.5163   30.7295 N.am    1  UNL1       -0.2761
     26 C           3.1795    0.0672   29.4300 C.3     1  UNL1        0.0937
     27 C           4.4251   -0.7685   29.4279 C.3     1  UNL1        0.0216
     28 C           5.0711   -1.1552   30.7254 C.3     1  UNL1        0.0035
     29 C           4.4715   -0.7061   32.0248 C.3     1  UNL1        0.0216
     30 C           3.2258    0.1297   32.0270 C.3     1  UNL1        0.0937
@<TRIPOS>BOND
     1    23    24    2
     2    24    17    1
     3    17    18   ar
     4    18    19   ar
     5    19    20   ar
     6    20     1    1
     7     1     2    2
     8     2     3    1
     9     3     4    1
    10     4     5    1
    11     5     6    1
    12     6     7    1
    13     7     8    1
    14     3     9    1
    15     9    10    1
    16    10    11   ar
    17    11    12   ar
    18    12    13   ar
    19    13    14   ar
    20    14    15   ar
    21    20    21   ar
    22    21    22   ar
    23    24    25   am
    24    25    26    1
    25    26    27    1
    26    27    28    1
    27    28    29    1
    28    29    30    1
    29    22    17   ar
    30    30    25    1
    31    15     1    1
    32     8     3    1
    33    15    10   ar
    34     6    16    1
@<TRIPOS>MOLECULE
*****
 30 34 0 0 0
SMALL
GASTEIGER

@<TRIPOS>ATOM
      1 C         -14.9654   -5.3699   18.7494 C.2     1  UNL1        0.0020
      2 C         -13.5115   -5.0169   18.8583 C.2     1  UNL1        0.0130
      3 C         -12.4695   -6.0913   18.7596 C.3     1  UNL1        0.1542
      4 C         -12.0578   -4.6639   18.9673 C.3     1  UNL1        0.0614
      5 C         -10.6040   -4.3110   19.0762 C.3     1  UNL1        0.0725
      6 N          -9.5619   -5.3854   18.9775 N.3     1  UNL1       -0.2972
      7 C          -9.9736   -6.8127   18.7698 C.3     1  UNL1        0.0725
      8 C         -11.4274   -7.1657   18.6608 C.3     1  UNL1        0.0614
      9 O         -12.8812   -7.5187   18.5519 O.3     1  UNL1       -0.4785
     10 C         -14.3350   -7.8716   18.4429 C.ar    1  UNL1        0.1386
     11 C         -14.7468   -9.2990   18.2352 C.ar    1  UNL1        0.0369
     12 C         -16.2006   -9.6519   18.1263 C.ar    1  UNL1        0.0031
     13 C         -17.2426   -8.5775   18.2250 C.ar    1  UNL1        0.0002
     14 C         -16.8309   -7.1502   18.4327 C.ar    1  UNL1        0.0030
     15 C         -15.3771   -6.7972   18.5417 C.ar    1  UNL1        0.0338
     16 H          -9.0263   -5.3567   19.8450 H       1  UNL1        0.1233
     17 C         -18.0916   -2.1467   19.0456 C.ar    1  UNL1        0.0536
     18 C         -17.1905   -2.2097   17.8480 C.ar    1  UNL1        0.0045
     19 C         -16.1484   -3.2841   17.7493 C.ar    1  UNL1        0.0001
     20 C         -16.0075   -4.2955   18.8481 C.ar    1  UNL1       -0.0001
     21 C         -16.9086   -4.2324   20.0456 C.ar    1  UNL1        0.0001
     22 C         -17.9507   -3.1580   20.1443 C.ar    1  UNL1        0.0045
     23 O         -20.4638   -1.2537   18.4749 O.2     1  UNL1       -0.2699
     24 C         -19.1337   -1.0723   19.1443 C.2     1  UNL1        0.2490
     25 N         -18.8458    0.1835   19.9125 N.am    1  UNL1       -0.2761
     26 C         -17.5157    0.3649   20.5819 C.3     1  UNL1        0.0937
     27 C         -17.2278    1.6207   21.3501 C.3     1  UNL1        0.0216
     28 C         -18.2699    2.6951   21.4488 C.3     1  UNL1        0.0035
     29 C         -19.5999    2.5137   20.7794 C.3     1  UNL1        0.0216
     30 C         -19.8879    1.2579   20.0112 C.3     1  UNL1        0.0937
@<TRIPOS>BOND
     1    23    24    2
     2    24    17    1
     3    17    18   ar
     4    18    19   ar
     5    19    20   ar
     6    20     1    1
     7     1     2    2
     8     2     3    1
     9     3     4    1
    10     4     5    1
    11     5     6    1
    12     6     7    1
    13     7     8    1
    14     3     9    1
    15     9    10    1
    16    10    11   ar
    17    11    12   ar
    18    12    13   ar
    19    13    14   ar
    20    14    15   ar
    21    20    21   ar
    22    21    22   ar
    23    24    25   am
    24    25    26    1
    25    26    27    1
    26    27    28    1
    27    28    29    1
    28    29    30    1
    29    22    17   ar
    30    30    25    1
    31    15     1    1
    32     8     3    1
    33    15    10   ar
    34     6    16    1
