@<TRIPOS>MOLECULE
*****
 35 38 0 0 0
SMALL
GASTEIGER

@<TRIPOS>ATOM
      1 N           2.5157    0.8652   22.9019 N.ar    1  UNL1       -0.2459
      2 C           2.8881    0.4438   24.2925 C.ar    1  UNL1        0.1116
      3 C           1.7204    0.7261   25.1908 C.ar    1  UNL1        0.0908
      4 C           0.6264    1.3221   24.3553 C.ar    1  UNL1        0.1363
      5 N           1.1179    1.4080   22.9408 N.ar    1  UNL1       -0.1661
      6 N           1.6578    0.4593   26.6655 N.am    1  UNL1       -0.2766
      7 C           2.1883    1.4741   27.6344 C.2     1  UNL1        0.2706
      8 O           2.7815    2.7556   27.1286 O.2     1  UNL1       -0.2680
      9 H           1.2684   -0.3818   26.9975 H       1  UNL1        0.1553
     10 C           2.1257    1.2073   29.1092 C.ar    1  UNL1        0.1765
     11 C           3.1504    0.4656   29.9153 C.ar    1  UNL1        0.0704
     12 C           2.6853    0.4353   31.3411 C.ar    1  UNL1        0.2113
     13 O           1.3732    1.1583   31.4161 O.2     1  UNL1       -0.3501
     14 N           1.0273    1.6354   30.0367 N.ar    1  UNL1       -0.0722
     15 C           3.4059   -0.2055   32.4901 C.ar    1  UNL1        0.1824
     16 C           3.9696    0.5058   33.6843 C.ar    1  UNL1        0.0440
     17 C           4.6014   -0.5191   34.5788 C.ar    1  UNL1        0.0439
     18 C           4.4281   -1.8640   33.9374 C.ar    1  UNL1        0.1798
     19 O           3.6893   -1.6701   32.6465 O.2     1  UNL1       -0.4472
     20 C           3.9848    1.9994   21.0838 C.3     1  UNL1        0.0312
     21 C           3.3880    0.7620   21.6860 C.3     1  UNL1        0.1274
     22 C           3.6636   -0.5787   21.0723 C.ar    1  UNL1        0.0038
     23 C           4.8226   -1.4001   21.5540 C.ar    1  UNL1       -0.0025
     24 C           5.0981   -2.7408   20.9403 C.ar    1  UNL1        0.0036
     25 C           4.2146   -3.2601   19.8449 C.ar    1  UNL1        0.0714
     26 C           3.0556   -2.4387   19.3633 C.ar    1  UNL1        0.0074
     27 C           2.7801   -1.0980   19.9770 C.ar    1  UNL1        0.0692
     28 C           4.4902   -4.6008   19.2312 C.3     1  UNL1        0.4186
     29 F           4.7657   -5.9415   18.6175 F       1  UNL1       -0.1659
     30 F           5.9109   -4.5265   19.7066 F       1  UNL1       -0.1659
     31 F           3.0695   -4.6751   18.7558 F       1  UNL1       -0.1659
     32 C           1.6211   -0.2766   19.4953 C.3     1  UNL1        0.4183
     33 F           0.4621    0.5448   19.0137 F       1  UNL1       -0.1659
     34 F           0.7362   -0.9256   20.5179 F       1  UNL1       -0.1659
     35 F           2.5059    0.3725   18.4727 F       1  UNL1       -0.1659
@<TRIPOS>BOND
     1    21    20    1
     2    21    22    1
     3    22    23   ar
     4    23    24   ar
     5    24    25   ar
     6    25    28    1
     7    28    29    1
     8    28    30    1
     9    28    31    1
    10    25    26   ar
    11    26    27   ar
    12    27    32    1
    13    32    33    1
    14    32    34    1
    15    32    35    1
    16    21     1    1
    17     1     2   ar
    18     2     3   ar
    19     3     6    1
    20     6     7   am
    21     7     8    2
    22     7    10    1
    23    10    11   ar
    24    11    12   ar
    25    12    15    1
    26    15    16   ar
    27    16    17   ar
    28    17    18   ar
    29    18    19   ar
    30    12    13   ar
    31    13    14   ar
    32     3     4   ar
    33     4     5   ar
    34    27    22   ar
    35     5     1   ar
    36    14    10   ar
    37    19    15   ar
    38     6     9    1
@<TRIPOS>MOLECULE
*****
 35 38 0 0 0
SMALL
GASTEIGER

@<TRIPOS>ATOM
      1 N           4.6029   -2.3067   20.8961 N.ar    1  UNL1       -0.2459
      2 C           4.4137   -3.0440   22.1886 C.ar    1  UNL1        0.1116
      3 C           5.6294   -2.8132   23.0363 C.ar    1  UNL1        0.0908
      4 C           6.5701   -1.9332   22.2677 C.ar    1  UNL1        0.1363
      5 N           5.9357   -1.6202   20.9450 N.ar    1  UNL1       -0.1661
      6 N           5.8634   -3.3655   24.4112 N.am    1  UNL1       -0.2766
      7 C           6.6986   -4.5982   24.5921 C.2     1  UNL1        0.2706
      8 O           7.2999   -5.2787   23.3982 O.2     1  UNL1       -0.2680
      9 H           5.4688   -2.9188   25.1948 H       1  UNL1        0.1553
     10 C           6.9326   -5.1504   25.9670 C.ar    1  UNL1        0.1765
     11 C           6.6371   -4.4505   27.2604 C.ar    1  UNL1        0.0704
     12 C           7.0251   -5.3671   28.3826 C.ar    1  UNL1        0.2113
     13 O           7.5603   -6.6335   27.7828 O.2     1  UNL1       -0.3501
     14 N           7.5032   -6.4996   26.2898 N.ar    1  UNL1       -0.0722
     15 C           6.8997   -5.0694   29.8474 C.ar    1  UNL1        0.1824
     16 C           6.7541   -3.7087   30.4613 C.ar    1  UNL1        0.0440
     17 C           6.6624   -3.8786   31.9488 C.ar    1  UNL1        0.0439
     18 C           6.7514   -5.3445   32.2543 C.ar    1  UNL1        0.1798
     19 O           6.8981   -6.0805   30.9555 O.2     1  UNL1       -0.4472
     20 C           3.5492   -3.4128   18.7946 C.3     1  UNL1        0.0312
     21 C           3.6302   -2.2635   19.7550 C.3     1  UNL1        0.1274
     22 C           2.7385   -1.0708   19.5744 C.ar    1  UNL1        0.0038
     23 C           1.5204   -0.9080   20.4345 C.ar    1  UNL1       -0.0025
     24 C           0.6288    0.2846   20.2538 C.ar    1  UNL1        0.0036
     25 C           0.9553    1.3144   19.2132 C.ar    1  UNL1        0.0714
     26 C           2.1734    1.1516   18.3531 C.ar    1  UNL1        0.0074
     27 C           3.0650   -0.0410   18.5338 C.ar    1  UNL1        0.0692
     28 C           0.0636    2.5070   19.0325 C.3     1  UNL1        0.4186
     29 F          -0.8280    3.6996   18.8519 F       1  UNL1       -0.1659
     30 F          -0.7648    2.0648   20.2021 F       1  UNL1       -0.1659
     31 F           0.8921    2.9493   17.8629 F       1  UNL1       -0.1659
     32 C           4.2832   -0.2039   17.6737 C.3     1  UNL1        0.4183
     33 F           5.5013   -0.3668   16.8137 F       1  UNL1       -0.1659
     34 F           3.4519   -0.8807   16.6245 F       1  UNL1       -0.1659
     35 F           5.1145    0.4728   18.7229 F       1  UNL1       -0.1659
@<TRIPOS>BOND
     1    21    20    1
     2    21    22    1
     3    22    23   ar
     4    23    24   ar
     5    24    25   ar
     6    25    28    1
     7    28    29    1
     8    28    30    1
     9    28    31    1
    10    25    26   ar
    11    26    27   ar
    12    27    32    1
    13    32    33    1
    14    32    34    1
    15    32    35    1
    16    21     1    1
    17     1     2   ar
    18     2     3   ar
    19     3     6    1
    20     6     7   am
    21     7     8    2
    22     7    10    1
    23    10    11   ar
    24    11    12   ar
    25    12    15    1
    26    15    16   ar
    27    16    17   ar
    28    17    18   ar
    29    18    19   ar
    30    12    13   ar
    31    13    14   ar
    32     3     4   ar
    33     4     5   ar
    34    27    22   ar
    35     5     1   ar
    36    14    10   ar
    37    19    15   ar
    38     6     9    1
@<TRIPOS>MOLECULE
*****
 35 38 0 0 0
SMALL
GASTEIGER

@<TRIPOS>ATOM
      1 N           6.9411   -3.7702   22.1903 N.ar    1  UNL1       -0.2459
      2 C           6.3467   -3.4246   23.5234 C.ar    1  UNL1        0.1116
      3 C           6.7964   -4.4579   24.5134 C.ar    1  UNL1        0.0908
      4 C           7.6688   -5.4421   23.7922 C.ar    1  UNL1        0.1363
      5 N           7.7582   -5.0171   22.3564 N.ar    1  UNL1       -0.1661
      6 N           6.4368   -4.4996   25.9691 N.am    1  UNL1       -0.2766
      7 C           7.4667   -4.1616   27.0059 C.2     1  UNL1        0.2706
      8 O           8.8561   -3.7819   26.5871 O.2     1  UNL1       -0.2680
      9 H           5.5249   -4.7488   26.2439 H       1  UNL1        0.1553
     10 C           7.1072   -4.2033   28.4616 C.ar    1  UNL1        0.1765
     11 C           6.7471   -3.0235   29.3150 C.ar    1  UNL1        0.0704
     12 C           6.4619   -3.5232   30.7003 C.ar    1  UNL1        0.2113
     13 O           6.6458   -5.0119   30.7031 O.2     1  UNL1       -0.3501
     14 N           7.0445   -5.4323   29.3194 N.ar    1  UNL1       -0.0722
     15 C           6.0630   -2.6819   31.8763 C.ar    1  UNL1        0.1824
     16 C           6.8262   -1.5121   32.4230 C.ar    1  UNL1        0.0440
     17 C           6.0657   -0.9699   33.5967 C.ar    1  UNL1        0.0439
     18 C           4.8324   -1.8047   33.7755 C.ar    1  UNL1        0.1798
     19 O           4.8307   -2.8628   32.7122 O.2     1  UNL1       -0.4472
     20 C           7.8427   -2.9784   19.8859 C.3     1  UNL1        0.0312
     21 C           6.7517   -3.0036   20.9150 C.3     1  UNL1        0.1274
     22 C           5.4712   -2.2621   20.6688 C.ar    1  UNL1        0.0038
     23 C           5.2984   -0.8683   21.1956 C.ar    1  UNL1       -0.0025
     24 C           4.0179   -0.1269   20.9494 C.ar    1  UNL1        0.0036
     25 C           2.9102   -0.7793   20.1764 C.ar    1  UNL1        0.0714
     26 C           3.0830   -2.1730   19.6496 C.ar    1  UNL1        0.0074
     27 C           4.3635   -2.9145   19.8958 C.ar    1  UNL1        0.0692
     28 C           1.6297   -0.0378   19.9302 C.3     1  UNL1        0.4186
     29 F           0.3492    0.7036   19.6840 F       1  UNL1       -0.1659
     30 F           2.4029    1.2325   19.7339 F       1  UNL1       -0.1659
     31 F           0.8565   -1.3080   20.1265 F       1  UNL1       -0.1659
     32 C           4.5363   -4.3083   19.3691 C.3     1  UNL1        0.4183
     33 F           4.7091   -5.7021   18.8424 F       1  UNL1       -0.1659
     34 F           3.9289   -4.8584   20.6254 F       1  UNL1       -0.1659
     35 F           5.1437   -3.7582   18.1127 F       1  UNL1       -0.1659
@<TRIPOS>BOND
     1    21    20    1
     2    21    22    1
     3    22    23   ar
     4    23    24   ar
     5    24    25   ar
     6    25    28    1
     7    28    29    1
     8    28    30    1
     9    28    31    1
    10    25    26   ar
    11    26    27   ar
    12    27    32    1
    13    32    33    1
    14    32    34    1
    15    32    35    1
    16    21     1    1
    17     1     2   ar
    18     2     3   ar
    19     3     6    1
    20     6     7   am
    21     7     8    2
    22     7    10    1
    23    10    11   ar
    24    11    12   ar
    25    12    15    1
    26    15    16   ar
    27    16    17   ar
    28    17    18   ar
    29    18    19   ar
    30    12    13   ar
    31    13    14   ar
    32     3     4   ar
    33     4     5   ar
    34    27    22   ar
    35     5     1   ar
    36    14    10   ar
    37    19    15   ar
    38     6     9    1
@<TRIPOS>MOLECULE
*****
 35 38 0 0 0
SMALL
GASTEIGER

@<TRIPOS>ATOM
      1 N           2.2553    0.9519   22.9421 N.ar    1  UNL1       -0.2459
      2 C           2.5082    0.7055   24.3999 C.ar    1  UNL1        0.1116
      3 C           1.2350    0.9795   25.1441 C.ar    1  UNL1        0.0908
      4 C           0.1951    1.3952   24.1462 C.ar    1  UNL1        0.1363
      5 N           0.8257    1.3781   22.7853 N.ar    1  UNL1       -0.1661
      6 N           1.0366    0.8589   26.6260 N.am    1  UNL1       -0.2766
      7 C           0.8092    2.0883   27.4547 C.2     1  UNL1        0.2706
      8 O           0.7803    3.4383   26.8015 O.2     1  UNL1       -0.2680
      9 H           1.0556   -0.0272   27.0547 H       1  UNL1        0.1553
     10 C           0.6108    1.9677   28.9367 C.ar    1  UNL1        0.1765
     11 C           1.3194    2.7678   29.9891 C.ar    1  UNL1        0.0704
     12 C           0.8154    2.3204   31.3292 C.ar    1  UNL1        0.2113
     13 O          -0.2047    1.2438   31.1050 O.2     1  UNL1       -0.3501
     14 N          -0.3312    1.0258   29.6262 N.ar    1  UNL1       -0.0722
     15 C           1.2544    2.8556   32.6599 C.ar    1  UNL1        0.1824
     16 C           0.9117    4.2020   33.2253 C.ar    1  UNL1        0.0440
     17 C           1.5587    4.3169   34.5736 C.ar    1  UNL1        0.0439
     18 C           2.3015    3.0416   34.8416 C.ar    1  UNL1        0.1798
     19 O           2.1134    2.1384   33.6588 O.2     1  UNL1       -0.4472
     20 C           4.0098    1.9954   21.3350 C.3     1  UNL1        0.0312
     21 C           3.2561    0.7989   21.8353 C.3     1  UNL1        0.1274
     22 C           3.5033   -0.5507   21.2289 C.ar    1  UNL1        0.0038
     23 C           4.5390   -1.4603   21.8204 C.ar    1  UNL1       -0.0025
     24 C           4.7861   -2.8098   21.2140 C.ar    1  UNL1        0.0036
     25 C           3.9977   -3.2496   20.0162 C.ar    1  UNL1        0.0714
     26 C           2.9620   -2.3399   19.4247 C.ar    1  UNL1        0.0074
     27 C           2.7149   -0.9904   20.0311 C.ar    1  UNL1        0.0692
     28 C           4.2449   -4.5992   19.4098 C.3     1  UNL1        0.4186
     29 F           4.4921   -5.9487   18.8034 F       1  UNL1       -0.1659
     30 F           2.7767   -4.7470   19.1402 F       1  UNL1       -0.1659
     31 F           5.7130   -4.4514   19.6794 F       1  UNL1       -0.1659
     32 C           1.6792   -0.0807   19.4396 C.3     1  UNL1        0.4183
     33 F           0.6436    0.8291   18.8481 F       1  UNL1       -0.1659
     34 F           2.7261    0.5418   18.5641 F       1  UNL1       -0.1659
     35 F           0.6323   -0.7031   20.3151 F       1  UNL1       -0.1659
@<TRIPOS>BOND
     1    21    20    1
     2    21    22    1
     3    22    23   ar
     4    23    24   ar
     5    24    25   ar
     6    25    28    1
     7    28    29    1
     8    28    30    1
     9    28    31    1
    10    25    26   ar
    11    26    27   ar
    12    27    32    1
    13    32    33    1
    14    32    34    1
    15    32    35    1
    16    21     1    1
    17     1     2   ar
    18     2     3   ar
    19     3     6    1
    20     6     7   am
    21     7     8    2
    22     7    10    1
    23    10    11   ar
    24    11    12   ar
    25    12    15    1
    26    15    16   ar
    27    16    17   ar
    28    17    18   ar
    29    18    19   ar
    30    12    13   ar
    31    13    14   ar
    32     3     4   ar
    33     4     5   ar
    34    27    22   ar
    35     5     1   ar
    36    14    10   ar
    37    19    15   ar
    38     6     9    1
@<TRIPOS>MOLECULE
*****
 35 38 0 0 0
SMALL
GASTEIGER

@<TRIPOS>ATOM
      1 N           5.3306   -3.8071   21.4585 N.ar    1  UNL1       -0.2459
      2 C           4.9210   -3.5608   22.8803 C.ar    1  UNL1        0.1116
      3 C           6.1019   -3.8485   23.7594 C.ar    1  UNL1        0.0908
      4 C           7.2413   -4.2727   22.8809 C.ar    1  UNL1        0.1363
      5 N           6.7647   -4.2471   21.4588 N.ar    1  UNL1       -0.1661
      6 N           6.1371   -3.7325   25.2545 N.am    1  UNL1       -0.2766
      7 C           6.7087   -4.8469   26.0799 C.2     1  UNL1        0.2706
      8 O           7.2451   -6.0773   25.4103 O.2     1  UNL1       -0.2680
      9 H           5.7850   -2.9250   25.6939 H       1  UNL1        0.1553
     10 C           6.7439   -4.7308   27.5750 C.ar    1  UNL1        0.1765
     11 C           6.5021   -3.4809   28.3683 C.ar    1  UNL1        0.0704
     12 C           6.6359   -3.8220   29.8229 C.ar    1  UNL1        0.2113
     13 O           6.9603   -5.2827   29.9286 O.2     1  UNL1       -0.3501
     14 N           7.0271   -5.8444   28.5393 N.ar    1  UNL1       -0.0722
     15 C           6.4737   -2.8696   30.9703 C.ar    1  UNL1        0.1824
     16 C           7.4212   -2.7066   32.1216 C.ar    1  UNL1        0.0440
     17 C           6.8686   -1.6492   33.0306 C.ar    1  UNL1        0.0439
     18 C           5.5794   -1.1586   32.4412 C.ar    1  UNL1        0.1798
     19 O           5.3354   -1.9129   31.1678 O.2     1  UNL1       -0.4472
     20 C           3.9816   -4.8502   19.4984 C.3     1  UNL1        0.0312
     21 C           4.4592   -3.6424   20.2487 C.3     1  UNL1        0.1274
     22 C           4.0655   -2.2698   19.7893 C.ar    1  UNL1        0.0038
     23 C           2.6980   -1.7380   20.1011 C.ar    1  UNL1       -0.0025
     24 C           2.3043   -0.3655   19.6418 C.ar    1  UNL1        0.0036
     25 C           3.2781    0.4753   18.8705 C.ar    1  UNL1        0.0714
     26 C           4.6455   -0.0564   18.5587 C.ar    1  UNL1        0.0074
     27 C           5.0392   -1.4289   19.0181 C.ar    1  UNL1        0.0692
     28 C           2.8843    1.8479   18.4111 C.3     1  UNL1        0.4186
     29 F           2.4905    3.2205   17.9518 F       1  UNL1       -0.1659
     30 F           4.3104    2.1346   18.0451 F       1  UNL1       -0.1659
     31 F           1.4582    1.5613   18.7771 F       1  UNL1       -0.1659
     32 C           6.4068   -1.9607   18.7062 C.3     1  UNL1        0.4183
     33 F           7.7742   -2.4925   18.3945 F       1  UNL1       -0.1659
     34 F           6.9597   -1.2380   19.8986 F       1  UNL1       -0.1659
     35 F           5.8539   -2.6835   17.5138 F       1  UNL1       -0.1659
@<TRIPOS>BOND
     1    21    20    1
     2    21    22    1
     3    22    23   ar
     4    23    24   ar
     5    24    25   ar
     6    25    28    1
     7    28    29    1
     8    28    30    1
     9    28    31    1
    10    25    26   ar
    11    26    27   ar
    12    27    32    1
    13    32    33    1
    14    32    34    1
    15    32    35    1
    16    21     1    1
    17     1     2   ar
    18     2     3   ar
    19     3     6    1
    20     6     7   am
    21     7     8    2
    22     7    10    1
    23    10    11   ar
    24    11    12   ar
    25    12    15    1
    26    15    16   ar
    27    16    17   ar
    28    17    18   ar
    29    18    19   ar
    30    12    13   ar
    31    13    14   ar
    32     3     4   ar
    33     4     5   ar
    34    27    22   ar
    35     5     1   ar
    36    14    10   ar
    37    19    15   ar
    38     6     9    1
@<TRIPOS>MOLECULE
*****
 35 38 0 0 0
SMALL
GASTEIGER

@<TRIPOS>ATOM
      1 N           2.6309    0.9589   22.7846 N.ar    1  UNL1       -0.2459
      2 C           1.1908    1.3776   22.7588 C.ar    1  UNL1        0.1116
      3 C           0.6864    1.3907   24.1714 C.ar    1  UNL1        0.0908
      4 C           1.8148    0.9799   25.0703 C.ar    1  UNL1        0.1363
      5 N           3.0165    0.7130   24.2132 N.ar    1  UNL1       -0.1661
      6 N          -0.7026    1.7511   24.6083 N.am    1  UNL1       -0.2766
      7 C          -0.9964    3.1348   25.1073 C.2     1  UNL1        0.2706
      8 O           0.0987    4.1580   25.1694 O.2     1  UNL1       -0.2680
      9 H          -1.4213    1.0796   24.5676 H       1  UNL1        0.1553
     10 C          -2.3853    3.4953   25.5443 C.ar    1  UNL1        0.1765
     11 C          -3.4970    3.9624   24.6521 C.ar    1  UNL1        0.0704
     12 C          -4.7051    4.2077   25.5066 C.ar    1  UNL1        0.2113
     13 O          -4.3402    3.8923   26.9269 O.2     1  UNL1       -0.3501
     14 N          -2.9064    3.4519   26.9502 N.ar    1  UNL1       -0.0722
     15 C          -6.0433    4.6848   25.0252 C.ar    1  UNL1        0.1824
     16 C          -6.7353    4.2478   23.7682 C.ar    1  UNL1        0.0440
     17 C          -8.0440    4.9756   23.6825 C.ar    1  UNL1        0.0439
     18 C          -8.1610    5.8624   24.8866 C.ar    1  UNL1        0.1798
     19 O          -6.9245    5.6827   25.7165 O.2     1  UNL1       -0.4472
     20 C           4.1694    2.0226   20.9815 C.3     1  UNL1        0.0312
     21 C           3.5279    0.8117   21.5914 C.3     1  UNL1        0.1274
     22 C           3.7834   -0.5465   21.0081 C.ar    1  UNL1        0.0038
     23 C           4.9346   -1.3708   21.5030 C.ar    1  UNL1       -0.0025
     24 C           5.1900   -2.7289   20.9197 C.ar    1  UNL1        0.0036
     25 C           4.2942   -3.2627   19.8415 C.ar    1  UNL1        0.0714
     26 C           3.1429   -2.4383   19.3466 C.ar    1  UNL1        0.0074
     27 C           2.8875   -1.0802   19.9299 C.ar    1  UNL1        0.0692
     28 C           4.5496   -4.6208   19.2582 C.3     1  UNL1        0.4186
     29 F           4.8050   -5.9789   18.6749 F       1  UNL1       -0.1659
     30 F           5.9481   -4.5904   19.7997 F       1  UNL1       -0.1659
     31 F           3.1511   -4.6513   18.7167 F       1  UNL1       -0.1659
     32 C           1.7361   -0.2558   19.4351 C.3     1  UNL1        0.4183
     33 F           0.5849    0.5686   18.9402 F       1  UNL1       -0.1659
     34 F           2.6368    0.3984   18.4297 F       1  UNL1       -0.1659
     35 F           0.8355   -0.9100   20.4404 F       1  UNL1       -0.1659
@<TRIPOS>BOND
     1    21    20    1
     2    21    22    1
     3    22    23   ar
     4    23    24   ar
     5    24    25   ar
     6    25    28    1
     7    28    29    1
     8    28    30    1
     9    28    31    1
    10    25    26   ar
    11    26    27   ar
    12    27    32    1
    13    32    33    1
    14    32    34    1
    15    32    35    1
    16    21     1    1
    17     1     2   ar
    18     2     3   ar
    19     3     6    1
    20     6     7   am
    21     7     8    2
    22     7    10    1
    23    10    11   ar
    24    11    12   ar
    25    12    15    1
    26    15    16   ar
    27    16    17   ar
    28    17    18   ar
    29    18    19   ar
    30    12    13   ar
    31    13    14   ar
    32     3     4   ar
    33     4     5   ar
    34    27    22   ar
    35     5     1   ar
    36    14    10   ar
    37    19    15   ar
    38     6     9    1
@<TRIPOS>MOLECULE
*****
 35 38 0 0 0
SMALL
GASTEIGER

@<TRIPOS>ATOM
      1 N           7.4483   -3.5608   27.7615 N.ar    1  UNL1       -0.2459
      2 C           6.7435   -2.8236   26.6616 C.ar    1  UNL1        0.1116
      3 C           6.2985   -3.8286   25.6408 C.ar    1  UNL1        0.0908
      4 C           6.7283   -5.1871   26.1099 C.ar    1  UNL1        0.1363
      5 N           7.4389   -5.0215   27.4205 N.ar    1  UNL1       -0.1661
      6 N           5.5545   -3.5280   24.3736 N.am    1  UNL1       -0.2766
      7 C           6.0333   -4.0953   23.0702 C.2     1  UNL1        0.2706
      8 O           7.2562   -4.9631   23.0340 O.2     1  UNL1       -0.2680
      9 H           4.7518   -2.9584   24.3973 H       1  UNL1        0.1553
     10 C           5.2892   -3.7946   21.8029 C.ar    1  UNL1        0.1765
     11 C           5.3284   -2.5020   21.0429 C.ar    1  UNL1        0.0704
     12 C           4.4387   -2.6424   19.8434 C.ar    1  UNL1        0.2113
     13 O           3.8496   -4.0218   19.8621 O.2     1  UNL1       -0.3501
     14 N           4.3753   -4.7340   21.0732 N.ar    1  UNL1       -0.0722
     15 C           4.1830   -1.5884   18.8072 C.ar    1  UNL1        0.1824
     16 C           3.4912   -0.2772   19.0353 C.ar    1  UNL1        0.0440
     17 C           3.4548    0.4610   17.7301 C.ar    1  UNL1        0.0439
     18 C           4.1241   -0.3941   16.6952 C.ar    1  UNL1        0.1798
     19 O           4.5741   -1.6607   17.3609 O.2     1  UNL1       -0.4472
     20 C           9.5117   -2.5849   29.0024 C.3     1  UNL1        0.0312
     21 C           8.0558   -2.9454   28.9871 C.3     1  UNL1        0.1274
     22 C           7.2073   -2.6906   30.1976 C.ar    1  UNL1        0.0038
     23 C           6.5024   -1.3760   30.3562 C.ar    1  UNL1       -0.0025
     24 C           5.6540   -1.1212   31.5666 C.ar    1  UNL1        0.0036
     25 C           5.5104   -2.1809   32.6184 C.ar    1  UNL1        0.0714
     26 C           6.2152   -3.4954   32.4599 C.ar    1  UNL1        0.0074
     27 C           7.0636   -3.7503   31.2495 C.ar    1  UNL1        0.0692
     28 C           4.6619   -1.9260   33.8289 C.3     1  UNL1        0.4186
     29 F           3.8134   -1.6712   35.0393 F       1  UNL1       -0.1659
     30 F           5.2731   -0.5636   33.9705 F       1  UNL1       -0.1659
     31 F           4.0507   -3.2885   33.6873 F       1  UNL1       -0.1659
     32 C           7.7685   -5.0648   31.0909 C.3     1  UNL1        0.4183
     33 F           8.4734   -6.3793   30.9323 F       1  UNL1       -0.1659
     34 F           8.9830   -4.4945   31.7615 F       1  UNL1       -0.1659
     35 F           6.5541   -5.6352   30.4202 F       1  UNL1       -0.1659
@<TRIPOS>BOND
     1    21    20    1
     2    21    22    1
     3    22    23   ar
     4    23    24   ar
     5    24    25   ar
     6    25    28    1
     7    28    29    1
     8    28    30    1
     9    28    31    1
    10    25    26   ar
    11    26    27   ar
    12    27    32    1
    13    32    33    1
    14    32    34    1
    15    32    35    1
    16    21     1    1
    17     1     2   ar
    18     2     3   ar
    19     3     6    1
    20     6     7   am
    21     7     8    2
    22     7    10    1
    23    10    11   ar
    24    11    12   ar
    25    12    15    1
    26    15    16   ar
    27    16    17   ar
    28    17    18   ar
    29    18    19   ar
    30    12    13   ar
    31    13    14   ar
    32     3     4   ar
    33     4     5   ar
    34    27    22   ar
    35     5     1   ar
    36    14    10   ar
    37    19    15   ar
    38     6     9    1
@<TRIPOS>MOLECULE
*****
 35 38 0 0 0
SMALL
GASTEIGER

@<TRIPOS>ATOM
      1 N          -0.4639    2.1425   27.9108 N.ar    1  UNL1       -0.2459
      2 C           0.9038    1.7834   28.4113 C.ar    1  UNL1        0.1116
      3 C           0.8612    0.3660   28.9003 C.ar    1  UNL1        0.0908
      4 C          -0.5329   -0.1510   28.7020 C.ar    1  UNL1        0.1363
      5 N          -1.3518    0.9469   28.0905 N.ar    1  UNL1       -0.1661
      6 N           2.0108   -0.4000   29.4849 N.am    1  UNL1       -0.2766
      7 C           2.4833   -0.0977   30.8760 C.2     1  UNL1        0.2706
      8 O           1.8062    0.9706   31.6826 O.2     1  UNL1       -0.2680
      9 H           2.4551   -1.1011   28.9555 H       1  UNL1        0.1553
     10 C           3.6329   -0.8636   31.4606 C.ar    1  UNL1        0.1765
     11 C           4.8832   -1.2664   30.7365 C.ar    1  UNL1        0.0704
     12 C           5.7570   -2.0130   31.7004 C.ar    1  UNL1        0.2113
     13 O           5.0468   -2.0716   33.0203 O.2     1  UNL1       -0.3501
     14 N           3.7339   -1.3612   32.8721 N.ar    1  UNL1       -0.0722
     15 C           7.1046   -2.5982   31.3975 C.ar    1  UNL1        0.1824
     16 C           7.6940   -2.7944   30.0323 C.ar    1  UNL1        0.0440
     17 C           9.0529   -3.4074   30.1977 C.ar    1  UNL1        0.0439
     18 C           9.3034   -3.5901   31.6653 C.ar    1  UNL1        0.1798
     19 O           8.0992   -3.0900   32.4069 O.2     1  UNL1       -0.4472
     20 C          -0.1399    4.7136   27.7255 C.3     1  UNL1        0.0312
     21 C          -0.8720    3.4649   27.3323 C.3     1  UNL1        0.1274
     22 C          -2.0123    3.5385   26.3604 C.ar    1  UNL1        0.0038
     23 C          -3.4019    3.8126   26.8540 C.ar    1  UNL1       -0.0025
     24 C          -4.5421    3.8862   25.8822 C.ar    1  UNL1        0.0036
     25 C          -4.2926    3.6857   24.4167 C.ar    1  UNL1        0.0714
     26 C          -2.9030    3.4116   23.9231 C.ar    1  UNL1        0.0074
     27 C          -1.7628    3.3380   24.8950 C.ar    1  UNL1        0.0692
     28 C          -5.4329    3.7594   23.4448 C.3     1  UNL1        0.4186
     29 F          -6.5731    3.8329   22.4730 F       1  UNL1       -0.1659
     30 F          -5.8399    5.0824   24.0225 F       1  UNL1       -0.1659
     31 F          -5.0259    2.4363   22.8672 F       1  UNL1       -0.1659
     32 C          -0.3730    3.0639   24.4014 C.3     1  UNL1        0.4183
     33 F           1.0166    2.7898   23.9078 F       1  UNL1       -0.1659
     34 F          -0.5565    1.6045   24.6954 F       1  UNL1       -0.1659
     35 F          -0.1896    4.5233   24.1073 F       1  UNL1       -0.1659
@<TRIPOS>BOND
     1    21    20    1
     2    21    22    1
     3    22    23   ar
     4    23    24   ar
     5    24    25   ar
     6    25    28    1
     7    28    29    1
     8    28    30    1
     9    28    31    1
    10    25    26   ar
    11    26    27   ar
    12    27    32    1
    13    32    33    1
    14    32    34    1
    15    32    35    1
    16    21     1    1
    17     1     2   ar
    18     2     3   ar
    19     3     6    1
    20     6     7   am
    21     7     8    2
    22     7    10    1
    23    10    11   ar
    24    11    12   ar
    25    12    15    1
    26    15    16   ar
    27    16    17   ar
    28    17    18   ar
    29    18    19   ar
    30    12    13   ar
    31    13    14   ar
    32     3     4   ar
    33     4     5   ar
    34    27    22   ar
    35     5     1   ar
    36    14    10   ar
    37    19    15   ar
    38     6     9    1
@<TRIPOS>MOLECULE
*****
 35 38 0 0 0
SMALL
GASTEIGER

@<TRIPOS>ATOM
      1 N           4.7219    2.4694   34.1493 N.ar    1  UNL1       -0.2459
      2 C           3.4683    2.6815   33.3535 C.ar    1  UNL1        0.1116
      3 C           3.6692    2.0678   31.9995 C.ar    1  UNL1        0.0908
      4 C           5.0471    1.4764   31.9586 C.ar    1  UNL1        0.1363
      5 N           5.6977    1.7246   33.2872 N.ar    1  UNL1       -0.1661
      6 N           2.6681    2.0489   30.8827 N.am    1  UNL1       -0.2766
      7 C           1.9973    0.7634   30.4985 C.2     1  UNL1        0.2706
      8 O           2.3277   -0.5031   31.2312 O.2     1  UNL1       -0.2680
      9 H           2.4513    2.8801   30.4018 H       1  UNL1        0.1553
     10 C           0.9962    0.7445   29.3817 C.ar    1  UNL1        0.1765
     11 C           0.9950    1.6466   28.1833 C.ar    1  UNL1        0.0704
     12 C          -0.1815    1.2797   27.3281 C.ar    1  UNL1        0.2113
     13 O          -0.9075    0.1509   27.9980 O.2     1  UNL1       -0.3501
     14 N          -0.1796   -0.1800   29.2673 N.ar    1  UNL1       -0.0722
     15 C          -0.5648    1.9279   26.0308 C.ar    1  UNL1        0.1824
     16 C           0.1706    1.7993   24.7299 C.ar    1  UNL1        0.0440
     17 C          -0.5608    2.6104   23.7018 C.ar    1  UNL1        0.0439
     18 C          -1.7483    3.2403   24.3673 C.ar    1  UNL1        0.1798
     19 O          -1.7508    2.8185   25.8068 O.2     1  UNL1       -0.4472
     20 C           6.1355    3.7951   35.8796 C.3     1  UNL1        0.0312
     21 C           4.9583    2.9225   35.5595 C.3     1  UNL1        0.1274
     22 C           4.0173    2.5029   36.6498 C.ar    1  UNL1        0.0038
     23 C           2.8775    3.3957   37.0416 C.ar    1  UNL1       -0.0025
     24 C           1.9366    2.9761   38.1318 C.ar    1  UNL1        0.0036
     25 C           2.1355    1.6636   38.8302 C.ar    1  UNL1        0.0714
     26 C           3.2753    0.7707   38.4384 C.ar    1  UNL1        0.0074
     27 C           4.2162    1.1904   37.3482 C.ar    1  UNL1        0.0692
     28 C           1.1945    1.2440   39.9204 C.3     1  UNL1        0.4186
     29 F           0.2536    0.8243   41.0106 F       1  UNL1       -0.1659
     30 F           1.0518    2.6746   40.3480 F       1  UNL1       -0.1659
     31 F           1.3372   -0.1867   39.4929 F       1  UNL1       -0.1659
     32 C           5.3561    0.2975   36.9564 C.3     1  UNL1        0.4183
     33 F           6.4960   -0.5953   36.5646 F       1  UNL1       -0.1659
     34 F           6.2775    1.0869   37.8382 F       1  UNL1       -0.1659
     35 F           4.4347   -0.4919   36.0745 F       1  UNL1       -0.1659
@<TRIPOS>BOND
     1    21    20    1
     2    21    22    1
     3    22    23   ar
     4    23    24   ar
     5    24    25   ar
     6    25    28    1
     7    28    29    1
     8    28    30    1
     9    28    31    1
    10    25    26   ar
    11    26    27   ar
    12    27    32    1
    13    32    33    1
    14    32    34    1
    15    32    35    1
    16    21     1    1
    17     1     2   ar
    18     2     3   ar
    19     3     6    1
    20     6     7   am
    21     7     8    2
    22     7    10    1
    23    10    11   ar
    24    11    12   ar
    25    12    15    1
    26    15    16   ar
    27    16    17   ar
    28    17    18   ar
    29    18    19   ar
    30    12    13   ar
    31    13    14   ar
    32     3     4   ar
    33     4     5   ar
    34    27    22   ar
    35     5     1   ar
    36    14    10   ar
    37    19    15   ar
    38     6     9    1
