@<TRIPOS>MOLECULE
*****
 27 29 0 0 0
SMALL
GASTEIGER

@<TRIPOS>ATOM
      1 C          -1.9789  -17.6713   22.3037 C.3     1  UNL1        0.1382
      2 N          -3.4337  -18.0357   22.2759 N.ar    1  UNL1       -0.2466
      3 C          -3.8531  -19.4181   21.8722 C.ar    1  UNL1        0.2671
      4 O          -2.8176  -20.4362   21.4962 O.2     1  UNL1       -0.2668
      5 C          -5.3079  -19.7824   21.8444 C.ar    1  UNL1        0.0935
      6 C          -6.3433  -18.7644   22.2203 C.ar    1  UNL1        0.1208
      7 N          -5.9240  -17.3820   22.6241 N.ar    1  UNL1       -0.2651
      8 C          -4.4692  -17.0176   22.6519 C.ar    1  UNL1        0.3350
      9 O          -4.0498  -15.6351   23.0556 O.2     1  UNL1       -0.2461
     10 N          -7.7981  -19.1287   22.1926 N.pl3   1  UNL1       -0.2930
     11 C          -8.5777  -19.0064   20.9169 C.3     1  UNL1        0.0922
     12 C         -10.0325  -19.3708   20.8891 C.3     1  UNL1        0.0229
     13 C         -10.7078  -19.8574   22.1370 C.3     1  UNL1        0.0190
     14 C          -9.9282  -19.9797   23.4126 C.3     1  UNL1        0.0709
     15 N         -10.6035  -20.4663   24.6606 N.3     1  UNL1       -0.3208
     16 C          -8.4734  -19.6153   23.4404 C.3     1  UNL1        0.1075
     17 H          -9.9295  -20.4870   25.4259 H       1  UNL1        0.1189
     18 H         -10.9699  -21.4054   24.5048 H       1  UNL1        0.1189
     19 C          -6.9594  -16.3638   23.0001 C.3     1  UNL1        0.1391
     20 C          -7.2142  -16.0515   24.4449 C.ar    1  UNL1        0.0102
     21 C          -6.0627  -15.7917   25.3704 C.ar    1  UNL1       -0.0017
     22 C          -6.3176  -15.4794   26.8153 C.ar    1  UNL1       -0.0002
     23 C          -7.7238  -15.4268   27.3345 C.ar    1  UNL1        0.0007
     24 C          -8.8753  -15.6866   26.4090 C.ar    1  UNL1        0.0100
     25 C          -8.6205  -15.9989   24.9642 C.ar    1  UNL1        0.0663
     26 C          -9.7720  -16.2587   24.0386 C.1     1  UNL1        0.1002
     27 N         -10.9234  -16.5184   23.1131 N.1     1  UNL1       -0.1908
@<TRIPOS>BOND
     1     1     2    1
     2     2     3   ar
     3     3     4    2
     4     3     5   ar
     5     5     6   ar
     6     6    10    1
     7    10    11    1
     8    11    12    1
     9    12    13    1
    10    13    14    1
    11    14    15    1
    12    14    16    1
    13     6     7   ar
    14     7    19    1
    15    19    20    1
    16    20    21   ar
    17    21    22   ar
    18    22    23   ar
    19    23    24   ar
    20    24    25   ar
    21    25    26    1
    22    26    27    3
    23     7     8   ar
    24     8     9    2
    25     8     2   ar
    26    16    10    1
    27    25    20   ar
    28    15    17    1
    29    15    18    1
@<TRIPOS>MOLECULE
*****
 27 29 0 0 0
SMALL
GASTEIGER

@<TRIPOS>ATOM
      1 C          -4.0787  -19.8675   21.4706 C.3     1  UNL1        0.1382
      2 N          -5.5242  -19.4783   21.5660 N.ar    1  UNL1       -0.2466
      3 C          -6.5847  -20.3962   21.0342 C.ar    1  UNL1        0.2671
      4 O          -6.1997  -21.7033   20.4070 O.2     1  UNL1       -0.2668
      5 C          -8.0302  -20.0071   21.1295 C.ar    1  UNL1        0.0935
      6 C          -8.4153  -18.7001   21.7567 C.ar    1  UNL1        0.1208
      7 N          -7.3548  -17.7822   22.2885 N.ar    1  UNL1       -0.2651
      8 C          -5.9093  -18.1713   22.1931 C.ar    1  UNL1        0.3350
      9 O          -4.8488  -17.2533   22.7250 O.2     1  UNL1       -0.2461
     10 N          -9.8608  -18.3109   21.8520 N.pl3   1  UNL1       -0.2930
     11 C         -10.6924  -18.7915   23.0042 C.3     1  UNL1        0.0922
     12 C         -12.1379  -18.4023   23.0995 C.3     1  UNL1        0.0229
     13 C         -12.7518  -17.5327   22.0427 C.3     1  UNL1        0.0190
     14 C         -11.9201  -17.0522   20.8906 C.3     1  UNL1        0.0709
     15 N         -12.5340  -16.1825   19.8337 N.3     1  UNL1       -0.3208
     16 C         -10.4746  -17.4413   20.7952 C.3     1  UNL1        0.1075
     17 H         -11.8303  -15.9515   19.1324 H       1  UNL1        0.1189
     18 H         -12.8834  -15.3243   20.2603 H       1  UNL1        0.1189
     19 C          -7.7398  -16.4751   22.9157 C.3     1  UNL1        0.1391
     20 C          -7.5951  -16.2821   24.3961 C.ar    1  UNL1        0.0102
     21 C          -8.6342  -16.8298   25.3290 C.ar    1  UNL1       -0.0017
     22 C          -8.4895  -16.6368   26.8095 C.ar    1  UNL1       -0.0002
     23 C          -7.3056  -15.8962   27.3571 C.ar    1  UNL1        0.0007
     24 C          -6.2665  -15.3485   26.4242 C.ar    1  UNL1        0.0100
     25 C          -6.4112  -15.5414   24.9438 C.ar    1  UNL1        0.0663
     26 C          -5.3721  -14.9937   24.0109 C.1     1  UNL1        0.1002
     27 N          -4.3330  -14.4460   23.0781 N.1     1  UNL1       -0.1908
@<TRIPOS>BOND
     1     1     2    1
     2     2     3   ar
     3     3     4    2
     4     3     5   ar
     5     5     6   ar
     6     6    10    1
     7    10    11    1
     8    11    12    1
     9    12    13    1
    10    13    14    1
    11    14    15    1
    12    14    16    1
    13     6     7   ar
    14     7    19    1
    15    19    20    1
    16    20    21   ar
    17    21    22   ar
    18    22    23   ar
    19    23    24   ar
    20    24    25   ar
    21    25    26    1
    22    26    27    3
    23     7     8   ar
    24     8     9    2
    25     8     2   ar
    26    16    10    1
    27    25    20   ar
    28    15    17    1
    29    15    18    1
@<TRIPOS>MOLECULE
*****
 27 29 0 0 0
SMALL
GASTEIGER

@<TRIPOS>ATOM
      1 C          -5.6532  -14.8175   26.3187 C.3     1  UNL1        0.1382
      2 N          -6.6885  -15.5890   25.5552 N.ar    1  UNL1       -0.2466
      3 C          -7.9788  -15.9714   26.2178 C.ar    1  UNL1        0.2671
      4 O          -8.2338  -15.5821   27.6438 O.2     1  UNL1       -0.2668
      5 C          -9.0141  -16.7429   25.4543 C.ar    1  UNL1        0.0935
      6 C          -8.7591  -17.1321   24.0284 C.ar    1  UNL1        0.1208
      7 N          -7.4689  -16.7498   23.3658 N.ar    1  UNL1       -0.2651
      8 C          -6.4336  -15.9783   24.1293 C.ar    1  UNL1        0.3350
      9 O          -5.1432  -15.5960   23.4666 O.2     1  UNL1       -0.2461
     10 N          -9.7945  -17.9037   23.2649 N.pl3   1  UNL1       -0.2930
     11 C          -9.8017  -19.4028   23.3162 C.3     1  UNL1        0.0922
     12 C         -10.8370  -20.1743   22.5527 C.3     1  UNL1        0.0229
     13 C         -11.8651  -19.4468   21.7381 C.3     1  UNL1        0.0190
     14 C         -11.8579  -17.9477   21.6868 C.3     1  UNL1        0.0709
     15 N         -12.8860  -17.2201   20.8722 N.3     1  UNL1       -0.3208
     16 C         -10.8225  -17.1762   22.4503 C.3     1  UNL1        0.1075
     17 H         -12.7331  -16.2147   20.9511 H       1  UNL1        0.1189
     18 H         -13.8180  -17.4504   21.2167 H       1  UNL1        0.1189
     19 C          -7.2139  -17.1391   21.9398 C.3     1  UNL1        0.1391
     20 C          -6.4110  -18.3675   21.6297 C.ar    1  UNL1        0.0102
     21 C          -5.0935  -18.5939   22.3102 C.ar    1  UNL1       -0.0017
     22 C          -4.2906  -19.8225   22.0001 C.ar    1  UNL1       -0.0002
     23 C          -4.8051  -20.8245   21.0096 C.ar    1  UNL1        0.0007
     24 C          -6.1226  -20.5981   20.3292 C.ar    1  UNL1        0.0100
     25 C          -6.9255  -19.3696   20.6392 C.ar    1  UNL1        0.0663
     26 C          -8.2430  -19.1432   19.9587 C.1     1  UNL1        0.1002
     27 N          -9.5604  -18.9168   19.2783 N.1     1  UNL1       -0.1908
@<TRIPOS>BOND
     1     1     2    1
     2     2     3   ar
     3     3     4    2
     4     3     5   ar
     5     5     6   ar
     6     6    10    1
     7    10    11    1
     8    11    12    1
     9    12    13    1
    10    13    14    1
    11    14    15    1
    12    14    16    1
    13     6     7   ar
    14     7    19    1
    15    19    20    1
    16    20    21   ar
    17    21    22   ar
    18    22    23   ar
    19    23    24   ar
    20    24    25   ar
    21    25    26    1
    22    26    27    3
    23     7     8   ar
    24     8     9    2
    25     8     2   ar
    26    16    10    1
    27    25    20   ar
    28    15    17    1
    29    15    18    1
@<TRIPOS>MOLECULE
*****
 27 29 0 0 0
SMALL
GASTEIGER

@<TRIPOS>ATOM
      1 C          -5.8303  -14.8436   26.5105 C.3     1  UNL1        0.1382
      2 N          -6.7914  -15.6016   25.6435 N.ar    1  UNL1       -0.2466
      3 C          -8.0630  -16.1416   26.2277 C.ar    1  UNL1        0.2671
      4 O          -8.3736  -15.9236   27.6790 O.2     1  UNL1       -0.2668
      5 C          -9.0241  -16.8997   25.3608 C.ar    1  UNL1        0.0935
      6 C          -8.7135  -17.1178   23.9096 C.ar    1  UNL1        0.1208
      7 N          -7.4419  -16.5778   23.3254 N.ar    1  UNL1       -0.2651
      8 C          -6.4808  -15.8197   24.1924 C.ar    1  UNL1        0.3350
      9 O          -5.2092  -15.2797   23.6081 O.2     1  UNL1       -0.2461
     10 N          -9.6746  -17.8758   23.0426 N.pl3   1  UNL1       -0.2930
     11 C          -9.8101  -19.3619   23.1945 C.3     1  UNL1        0.0922
     12 C         -10.7711  -20.1200   22.3276 C.3     1  UNL1        0.0229
     13 C         -11.5968  -19.3920   21.3086 C.3     1  UNL1        0.0190
     14 C         -11.4613  -17.9059   21.1567 C.3     1  UNL1        0.0709
     15 N         -12.2870  -17.1778   20.1377 N.3     1  UNL1       -0.3208
     16 C         -10.5002  -17.1478   22.0237 C.3     1  UNL1        0.1075
     17 H         -12.0682  -16.1821   20.1714 H       1  UNL1        0.1189
     18 H         -13.2770  -17.3155   20.3410 H       1  UNL1        0.1189
     19 C          -7.1313  -16.7958   21.8741 C.3     1  UNL1        0.1391
     20 C          -6.9279  -18.1870   21.3515 C.ar    1  UNL1        0.0102
     21 C          -7.9168  -18.7798   20.3920 C.ar    1  UNL1       -0.0017
     22 C          -7.7134  -20.1710   19.8693 C.ar    1  UNL1       -0.0002
     23 C          -6.5211  -20.9694   20.3061 C.ar    1  UNL1        0.0007
     24 C          -5.5321  -20.3766   21.2656 C.ar    1  UNL1        0.0100
     25 C          -5.7355  -18.9855   21.7883 C.ar    1  UNL1        0.0663
     26 C          -4.7466  -18.3927   22.7478 C.1     1  UNL1        0.1002
     27 N          -3.7577  -17.7999   23.7073 N.1     1  UNL1       -0.1908
@<TRIPOS>BOND
     1     1     2    1
     2     2     3   ar
     3     3     4    2
     4     3     5   ar
     5     5     6   ar
     6     6    10    1
     7    10    11    1
     8    11    12    1
     9    12    13    1
    10    13    14    1
    11    14    15    1
    12    14    16    1
    13     6     7   ar
    14     7    19    1
    15    19    20    1
    16    20    21   ar
    17    21    22   ar
    18    22    23   ar
    19    23    24   ar
    20    24    25   ar
    21    25    26    1
    22    26    27    3
    23     7     8   ar
    24     8     9    2
    25     8     2   ar
    26    16    10    1
    27    25    20   ar
    28    15    17    1
    29    15    18    1
@<TRIPOS>MOLECULE
*****
 27 29 0 0 0
SMALL
GASTEIGER

@<TRIPOS>ATOM
      1 C         -10.0054  -19.6944   19.0447 C.3     1  UNL1        0.1382
      2 N          -9.3943  -18.9300   20.1815 N.ar    1  UNL1       -0.2466
      3 C         -10.1160  -17.7529   20.7675 C.ar    1  UNL1        0.2671
      4 O         -11.4489  -17.3401   20.2168 O.2     1  UNL1       -0.2668
      5 C          -9.5050  -16.9884   21.9043 C.ar    1  UNL1        0.0935
      6 C          -8.1722  -17.4011   22.4550 C.ar    1  UNL1        0.1208
      7 N          -7.4505  -18.5782   21.8690 N.ar    1  UNL1       -0.2651
      8 C          -8.0615  -19.3427   20.7322 C.ar    1  UNL1        0.3350
      9 O          -7.3398  -20.5198   20.1462 O.2     1  UNL1       -0.2461
     10 N          -7.5611  -16.6367   23.5918 N.pl3   1  UNL1       -0.2930
     11 C          -6.2812  -15.8822   23.3861 C.3     1  UNL1        0.0922
     12 C          -5.6701  -15.1178   24.5228 C.3     1  UNL1        0.0229
     13 C          -6.3390  -15.1078   25.8654 C.3     1  UNL1        0.0190
     14 C          -7.6190  -15.8623   26.0711 C.3     1  UNL1        0.0709
     15 N          -8.2880  -15.8524   27.4137 N.3     1  UNL1       -0.3208
     16 C          -8.2300  -16.6268   24.9343 C.3     1  UNL1        0.1075
     17 H          -9.1395  -16.4124   27.3734 H       1  UNL1        0.1189
     18 H          -8.5234  -14.8934   27.6692 H       1  UNL1        0.1189
     19 C          -6.1176  -18.9910   22.4197 C.3     1  UNL1        0.1391
     20 C          -4.8690  -18.7432   21.6264 C.ar    1  UNL1        0.0102
     21 C          -4.8698  -18.9539   20.1413 C.ar    1  UNL1       -0.0017
     22 C          -3.6211  -18.7061   19.3479 C.ar    1  UNL1       -0.0002
     23 C          -2.3716  -18.2476   20.0396 C.ar    1  UNL1        0.0007
     24 C          -2.3708  -18.0369   21.5248 C.ar    1  UNL1        0.0100
     25 C          -3.6194  -18.2847   22.3181 C.ar    1  UNL1        0.0663
     26 C          -3.6186  -18.0740   23.8033 C.1     1  UNL1        0.1002
     27 N          -3.6178  -17.8633   25.2884 N.1     1  UNL1       -0.1908
@<TRIPOS>BOND
     1     1     2    1
     2     2     3   ar
     3     3     4    2
     4     3     5   ar
     5     5     6   ar
     6     6    10    1
     7    10    11    1
     8    11    12    1
     9    12    13    1
    10    13    14    1
    11    14    15    1
    12    14    16    1
    13     6     7   ar
    14     7    19    1
    15    19    20    1
    16    20    21   ar
    17    21    22   ar
    18    22    23   ar
    19    23    24   ar
    20    24    25   ar
    21    25    26    1
    22    26    27    3
    23     7     8   ar
    24     8     9    2
    25     8     2   ar
    26    16    10    1
    27    25    20   ar
    28    15    17    1
    29    15    18    1
@<TRIPOS>MOLECULE
*****
 27 29 0 0 0
SMALL
GASTEIGER

@<TRIPOS>ATOM
      1 C          -9.7994   -8.0373   18.2320 C.3     1  UNL1        0.1382
      2 N         -10.6942   -6.8419   18.3742 N.ar    1  UNL1       -0.2466
      3 C         -10.2140   -5.6295   19.1155 C.ar    1  UNL1        0.2671
      4 O          -8.8390   -5.6126   19.7147 O.2     1  UNL1       -0.2668
      5 C         -11.1089   -4.4341   19.2576 C.ar    1  UNL1        0.0935
      6 C         -12.4839   -4.4510   18.6585 C.ar    1  UNL1        0.1208
      7 N         -12.9640   -5.6633   17.9172 N.ar    1  UNL1       -0.2651
      8 C         -12.0692   -6.8588   17.7750 C.ar    1  UNL1        0.3350
      9 O         -12.5495   -8.0711   17.0336 O.2     1  UNL1       -0.2461
     10 N         -13.3787   -3.2555   18.8006 N.pl3   1  UNL1       -0.2930
     11 C         -14.3193   -3.1570   19.9648 C.3     1  UNL1        0.0922
     12 C         -15.2141   -1.9615   20.1070 C.3     1  UNL1        0.0229
     13 C         -15.1683   -0.8646   19.0850 C.3     1  UNL1        0.0190
     14 C         -14.2277   -0.9632   17.9208 C.3     1  UNL1        0.0709
     15 N         -14.1818    0.1338   16.8986 N.3     1  UNL1       -0.3208
     16 C         -13.3328   -2.1586   17.7786 C.3     1  UNL1        0.1075
     17 H         -13.4920   -0.0965   16.1834 H       1  UNL1        0.1189
     18 H         -13.9222    1.0100   17.3517 H       1  UNL1        0.1189
     19 C         -14.3391   -5.6803   17.3180 C.3     1  UNL1        0.1391
     20 C         -15.5018   -6.1808   18.1227 C.ar    1  UNL1        0.0102
     21 C         -15.3879   -7.4680   18.8845 C.ar    1  UNL1       -0.0017
     22 C         -16.5507   -7.9685   19.6892 C.ar    1  UNL1       -0.0002
     23 C         -17.8272   -7.1820   19.7321 C.ar    1  UNL1        0.0007
     24 C         -17.9410   -5.8949   18.9703 C.ar    1  UNL1        0.0100
     25 C         -16.7784   -5.3943   18.1656 C.ar    1  UNL1        0.0663
     26 C         -16.8922   -4.1072   17.4037 C.1     1  UNL1        0.1002
     27 N         -17.0061   -2.8201   16.6419 N.1     1  UNL1       -0.1908
@<TRIPOS>BOND
     1     1     2    1
     2     2     3   ar
     3     3     4    2
     4     3     5   ar
     5     5     6   ar
     6     6    10    1
     7    10    11    1
     8    11    12    1
     9    12    13    1
    10    13    14    1
    11    14    15    1
    12    14    16    1
    13     6     7   ar
    14     7    19    1
    15    19    20    1
    16    20    21   ar
    17    21    22   ar
    18    22    23   ar
    19    23    24   ar
    20    24    25   ar
    21    25    26    1
    22    26    27    3
    23     7     8   ar
    24     8     9    2
    25     8     2   ar
    26    16    10    1
    27    25    20   ar
    28    15    17    1
    29    15    18    1
@<TRIPOS>MOLECULE
*****
 27 29 0 0 0
SMALL
GASTEIGER

@<TRIPOS>ATOM
      1 C          -0.0283    2.7683   19.3285 C.3     1  UNL1        0.1382
      2 N           1.2429    1.9741   19.2707 N.ar    1  UNL1       -0.2466
      3 C           2.4622    2.5564   18.6195 C.ar    1  UNL1        0.2671
      4 O           2.4103    3.9331   18.0261 O.2     1  UNL1       -0.2668
      5 C           3.7333    1.7622   18.5618 C.ar    1  UNL1        0.0935
      6 C           3.7852    0.3856   19.1552 C.ar    1  UNL1        0.1208
      7 N           2.5659   -0.1968   19.8064 N.ar    1  UNL1       -0.2651
      8 C           1.2947    0.5974   19.8642 C.ar    1  UNL1        0.3350
      9 O           0.0754    0.0150   20.5154 O.2     1  UNL1       -0.2461
     10 N           5.0564   -0.4086   19.0974 N.pl3   1  UNL1       -0.2930
     11 C           5.2623   -1.4161   18.0054 C.3     1  UNL1        0.0922
     12 C           6.5334   -2.2103   17.9476 C.3     1  UNL1        0.0229
     13 C           7.5987   -1.9971   18.9818 C.3     1  UNL1        0.0190
     14 C           7.3928   -0.9896   20.0739 C.3     1  UNL1        0.0709
     15 N           8.4581   -0.7764   21.1082 N.3     1  UNL1       -0.3208
     16 C           6.1216   -0.1954   20.1316 C.3     1  UNL1        0.1075
     17 H           8.1528   -0.0611   21.7682 H       1  UNL1        0.1189
     18 H           9.3187   -0.4732   20.6524 H       1  UNL1        0.1189
     19 C           2.6177   -1.5735   20.3999 C.3     1  UNL1        0.1391
     20 C           3.3401   -1.8057   21.6938 C.ar    1  UNL1        0.0102
     21 C           3.1359   -0.8669   22.8457 C.ar    1  UNL1       -0.0017
     22 C           3.8583   -1.0991   24.1397 C.ar    1  UNL1       -0.0002
     23 C           4.7848   -2.2702   24.2816 C.ar    1  UNL1        0.0007
     24 C           4.9890   -3.2090   23.1297 C.ar    1  UNL1        0.0100
     25 C           4.2667   -2.9768   21.8358 C.ar    1  UNL1        0.0663
     26 C           4.4708   -3.9156   20.6839 C.1     1  UNL1        0.1002
     27 N           4.6750   -4.8544   19.5319 N.1     1  UNL1       -0.1908
@<TRIPOS>BOND
     1     1     2    1
     2     2     3   ar
     3     3     4    2
     4     3     5   ar
     5     5     6   ar
     6     6    10    1
     7    10    11    1
     8    11    12    1
     9    12    13    1
    10    13    14    1
    11    14    15    1
    12    14    16    1
    13     6     7   ar
    14     7    19    1
    15    19    20    1
    16    20    21   ar
    17    21    22   ar
    18    22    23   ar
    19    23    24   ar
    20    24    25   ar
    21    25    26    1
    22    26    27    3
    23     7     8   ar
    24     8     9    2
    25     8     2   ar
    26    16    10    1
    27    25    20   ar
    28    15    17    1
    29    15    18    1
@<TRIPOS>MOLECULE
*****
 27 29 0 0 0
SMALL
GASTEIGER

@<TRIPOS>ATOM
      1 C         -10.6170   -4.5661   18.9852 C.3     1  UNL1        0.1382
      2 N         -11.9017   -3.7919   18.9884 N.ar    1  UNL1       -0.2466
      3 C         -11.9384   -2.3975   18.4369 C.ar    1  UNL1        0.2671
      4 O         -10.6903   -1.7772   17.8821 O.2     1  UNL1       -0.2668
      5 C         -13.2231   -1.6232   18.4402 C.ar    1  UNL1        0.0935
      6 C         -14.4712   -2.2433   18.9949 C.ar    1  UNL1        0.1208
      7 N         -14.4345   -3.6378   19.5465 N.ar    1  UNL1       -0.2651
      8 C         -13.1497   -4.4120   19.5432 C.ar    1  UNL1        0.3350
      9 O         -13.1131   -5.8065   20.0948 O.2     1  UNL1       -0.2461
     10 N         -15.7559   -1.4691   18.9982 N.pl3   1  UNL1       -0.2930
     11 C         -16.6814   -1.5469   17.8204 C.3     1  UNL1        0.0922
     12 C         -17.9661   -0.7726   17.8236 C.3     1  UNL1        0.0229
     13 C         -18.3253    0.0795   19.0047 C.3     1  UNL1        0.0190
     14 C         -17.3997    0.1573   20.1825 C.3     1  UNL1        0.0709
     15 N         -17.7589    1.0094   21.3636 N.3     1  UNL1       -0.3208
     16 C         -16.1150   -0.6170   20.1792 C.3     1  UNL1        0.1075
     17 H         -17.0221    0.9448   22.0660 H       1  UNL1        0.1189
     18 H         -18.6390    0.6835   21.7630 H       1  UNL1        0.1189
     19 C         -15.6825   -4.2580   20.1013 C.3     1  UNL1        0.1391
     20 C         -16.6093   -5.0156   19.1973 C.ar    1  UNL1        0.0102
     21 C         -16.0606   -6.0401   18.2490 C.ar    1  UNL1       -0.0017
     22 C         -16.9874   -6.7978   17.3450 C.ar    1  UNL1       -0.0002
     23 C         -18.4628   -6.5309   17.3895 C.ar    1  UNL1        0.0007
     24 C         -19.0114   -5.5064   18.3378 C.ar    1  UNL1        0.0100
     25 C         -18.0847   -4.7488   19.2417 C.ar    1  UNL1        0.0663
     26 C         -18.6334   -3.7243   20.1901 C.1     1  UNL1        0.1002
     27 N         -19.1820   -2.6998   21.1384 N.1     1  UNL1       -0.1908
@<TRIPOS>BOND
     1     1     2    1
     2     2     3   ar
     3     3     4    2
     4     3     5   ar
     5     5     6   ar
     6     6    10    1
     7    10    11    1
     8    11    12    1
     9    12    13    1
    10    13    14    1
    11    14    15    1
    12    14    16    1
    13     6     7   ar
    14     7    19    1
    15    19    20    1
    16    20    21   ar
    17    21    22   ar
    18    22    23   ar
    19    23    24   ar
    20    24    25   ar
    21    25    26    1
    22    26    27    3
    23     7     8   ar
    24     8     9    2
    25     8     2   ar
    26    16    10    1
    27    25    20   ar
    28    15    17    1
    29    15    18    1
@<TRIPOS>MOLECULE
*****
 27 29 0 0 0
SMALL
GASTEIGER

@<TRIPOS>ATOM
      1 C           1.9713    2.9940   34.2767 C.3     1  UNL1        0.1382
      2 N           2.9044    1.9352   33.7685 N.ar    1  UNL1       -0.2466
      3 C           4.1843    1.6510   34.4972 C.ar    1  UNL1        0.2671
      4 O           4.5311    2.4255   35.7341 O.2     1  UNL1       -0.2668
      5 C           5.1175    0.5922   33.9890 C.ar    1  UNL1        0.0935
      6 C           4.7707   -0.1823   32.7522 C.ar    1  UNL1        0.1208
      7 N           3.4908    0.1019   32.0235 N.ar    1  UNL1       -0.2651
      8 C           2.5577    1.1607   32.5317 C.ar    1  UNL1        0.3350
      9 O           1.2777    1.4450   31.8029 O.2     1  UNL1       -0.2461
     10 N           5.7039   -1.2411   32.2440 N.pl3   1  UNL1       -0.2930
     11 C           6.8248   -0.8714   31.3184 C.3     1  UNL1        0.0922
     12 C           7.7580   -1.9302   30.8102 C.3     1  UNL1        0.0229
     13 C           7.5702   -3.3586   31.2276 C.3     1  UNL1        0.0190
     14 C           6.4492   -3.7283   32.1532 C.3     1  UNL1        0.0709
     15 N           6.2614   -5.1568   32.5707 N.3     1  UNL1       -0.3208
     16 C           5.5161   -2.6695   32.6614 C.3     1  UNL1        0.1075
     17 H           5.4585   -5.2255   33.1960 H       1  UNL1        0.1189
     18 H           7.0981   -5.4824   33.0547 H       1  UNL1        0.1189
     19 C           3.1440   -0.6726   30.7866 C.3     1  UNL1        0.1391
     20 C           3.3716   -0.0663   29.4336 C.ar    1  UNL1        0.0102
     21 C           4.7618    0.2859   28.9938 C.ar    1  UNL1       -0.0017
     22 C           4.9893    0.8922   27.6407 C.ar    1  UNL1       -0.0002
     23 C           3.8268    1.1462   26.7275 C.ar    1  UNL1        0.0007
     24 C           2.4366    0.7940   27.1674 C.ar    1  UNL1        0.0100
     25 C           2.2090    0.1878   28.5203 C.ar    1  UNL1        0.0663
     26 C           0.8189   -0.1644   28.9602 C.1     1  UNL1        0.1002
     27 N          -0.5713   -0.5166   29.4000 N.1     1  UNL1       -0.1908
@<TRIPOS>BOND
     1     1     2    1
     2     2     3   ar
     3     3     4    2
     4     3     5   ar
     5     5     6   ar
     6     6    10    1
     7    10    11    1
     8    11    12    1
     9    12    13    1
    10    13    14    1
    11    14    15    1
    12    14    16    1
    13     6     7   ar
    14     7    19    1
    15    19    20    1
    16    20    21   ar
    17    21    22   ar
    18    22    23   ar
    19    23    24   ar
    20    24    25   ar
    21    25    26    1
    22    26    27    3
    23     7     8   ar
    24     8     9    2
    25     8     2   ar
    26    16    10    1
    27    25    20   ar
    28    15    17    1
    29    15    18    1
