@<TRIPOS>MOLECULE
*****
 23 26 0 0 0
SMALL
GASTEIGER

@<TRIPOS>ATOM
      1 C          -2.8644  -19.3352   20.8886 C.2     1  UNL1        0.2293
      2 O          -3.4554  -20.4660   20.0999 O.2     1  UNL1       -0.2745
      3 N          -3.7361  -18.5155   21.7931 N.am    1  UNL1       -0.2586
      4 C          -3.2892  -17.3602   22.6390 C.3     1  UNL1        0.1029
      5 C          -4.4847  -16.8379   23.3792 C.3     1  UNL1        0.0495
      6 C          -5.6705  -17.6704   22.9908 C.ar    1  UNL1       -0.0068
      7 C          -7.1118  -17.6182   23.4031 C.ar    1  UNL1       -0.0029
      8 C          -8.0904  -18.6029   22.8351 C.ar    1  UNL1        0.0013
      9 C          -7.6278  -19.6398   21.8548 C.ar    1  UNL1        0.0013
     10 C          -6.1865  -19.6919   21.4425 C.ar    1  UNL1        0.0146
     11 C          -5.2078  -18.7072   22.0106 C.ar    1  UNL1        0.0499
     12 C          -9.5317  -18.5508   23.2474 C.ar    1  UNL1        0.0192
     13 C          -9.9769  -19.2344   24.5061 C.ar    1  UNL1        0.0988
     14 N         -11.4182  -19.1823   24.9184 N.ar    1  UNL1       -0.2423
     15 C         -12.4143  -18.4465   24.0720 C.ar    1  UNL1        0.0988
     16 C         -11.9691  -17.7628   22.8132 C.ar    1  UNL1        0.0192
     17 C         -12.9651  -17.0271   21.9668 C.ar    1  UNL1        0.0015
     18 C         -12.5199  -16.3434   20.7081 C.ar    1  UNL1        0.0000
     19 C         -11.0786  -16.3956   20.2958 C.ar    1  UNL1        0.0000
     20 C         -10.0826  -17.1313   21.1422 C.ar    1  UNL1        0.0001
     21 C         -10.5278  -17.8149   22.4009 C.ar    1  UNL1        0.0030
     22 C          -0.9186  -18.0715   19.7195 C.3     1  UNL1        0.0101
     23 C          -1.4016  -19.0241   20.7727 C.3     1  UNL1        0.0856
@<TRIPOS>BOND
     1    22    23    1
     2    23     1    1
     3     1     2    2
     4     1     3   am
     5     3     4    1
     6     4     5    1
     7     5     6    1
     8     6     7   ar
     9     7     8   ar
    10     8    12    1
    11    12    13   ar
    12    13    14   ar
    13    14    15   ar
    14    15    16   ar
    15    16    17   ar
    16    17    18   ar
    17    18    19   ar
    18    19    20   ar
    19    20    21   ar
    20     8     9   ar
    21     9    10   ar
    22    10    11   ar
    23    11     3    1
    24    11     6   ar
    25    21    12   ar
    26    21    16   ar
@<TRIPOS>MOLECULE
*****
 23 26 0 0 0
SMALL
GASTEIGER

@<TRIPOS>ATOM
      1 C          -3.6039  -19.9134   20.8533 C.2     1  UNL1        0.2293
      2 O          -4.1376  -20.7824   19.7533 O.2     1  UNL1       -0.2745
      3 N          -4.5281  -19.0005   21.6032 N.am    1  UNL1       -0.2586
      4 C          -4.1410  -18.0785   22.7214 C.3     1  UNL1        0.1029
      5 C          -5.3752  -17.3574   23.1759 C.3     1  UNL1        0.0495
      6 C          -6.5251  -17.8337   22.3388 C.ar    1  UNL1       -0.0068
      7 C          -7.9814  -17.4740   22.3359 C.ar    1  UNL1       -0.0029
      8 C          -8.9140  -18.1297   21.3612 C.ar    1  UNL1        0.0013
      9 C          -8.3904  -19.1452   20.3892 C.ar    1  UNL1        0.0013
     10 C          -6.9342  -19.5049   20.3920 C.ar    1  UNL1        0.0146
     11 C          -6.0015  -18.8492   21.3668 C.ar    1  UNL1        0.0499
     12 C         -10.3702  -17.7699   21.3583 C.ar    1  UNL1        0.0192
     13 C         -10.9718  -17.0873   20.1659 C.ar    1  UNL1        0.0988
     14 N         -12.4280  -16.7276   20.1630 N.ar    1  UNL1       -0.2423
     15 C         -13.2826  -17.0505   21.3527 C.ar    1  UNL1        0.0988
     16 C         -12.6811  -17.7331   22.5452 C.ar    1  UNL1        0.0192
     17 C         -13.5357  -18.0560   23.7349 C.ar    1  UNL1        0.0015
     18 C         -12.9341  -18.7387   24.9274 C.ar    1  UNL1        0.0000
     19 C         -11.4779  -19.0984   24.9302 C.ar    1  UNL1        0.0000
     20 C         -10.6233  -18.7755   23.7405 C.ar    1  UNL1        0.0001
     21 C         -11.2248  -18.0929   22.5481 C.ar    1  UNL1        0.0030
     22 C          -1.2174  -18.9009   20.6821 C.3     1  UNL1        0.0101
     23 C          -2.1460  -19.9573   21.2033 C.3     1  UNL1        0.0856
@<TRIPOS>BOND
     1    22    23    1
     2    23     1    1
     3     1     2    2
     4     1     3   am
     5     3     4    1
     6     4     5    1
     7     5     6    1
     8     6     7   ar
     9     7     8   ar
    10     8    12    1
    11    12    13   ar
    12    13    14   ar
    13    14    15   ar
    14    15    16   ar
    15    16    17   ar
    16    17    18   ar
    17    18    19   ar
    18    19    20   ar
    19    20    21   ar
    20     8     9   ar
    21     9    10   ar
    22    10    11   ar
    23    11     3    1
    24    11     6   ar
    25    21    12   ar
    26    21    16   ar
@<TRIPOS>MOLECULE
*****
 23 26 0 0 0
SMALL
GASTEIGER

@<TRIPOS>ATOM
      1 C         -18.6441   -8.7802   19.5379 C.2     1  UNL1        0.2293
      2 O         -19.0214   -7.4935   20.2102 O.2     1  UNL1       -0.2745
      3 N         -17.2490   -8.9764   19.0229 N.am    1  UNL1       -0.2586
      4 C         -16.7282  -10.2021   18.3327 C.3     1  UNL1        0.1029
      5 C         -15.2871   -9.9646   17.9909 C.3     1  UNL1        0.0495
      6 C         -14.9173   -8.5921   18.4698 C.ar    1  UNL1       -0.0068
      7 C         -13.6330   -7.8195   18.4076 C.ar    1  UNL1       -0.0029
      8 C         -13.5613   -6.4362   18.9831 C.ar    1  UNL1        0.0013
      9 C         -14.7739   -5.8254   19.6210 C.ar    1  UNL1        0.0013
     10 C         -16.0581   -6.5980   19.6832 C.ar    1  UNL1        0.0146
     11 C         -16.1298   -7.9814   19.1076 C.ar    1  UNL1        0.0499
     12 C         -12.2771   -5.6636   18.9209 C.ar    1  UNL1        0.0192
     13 C         -10.9640   -6.3827   19.0131 C.ar    1  UNL1        0.0988
     14 N          -9.6798   -5.6101   18.9508 N.ar    1  UNL1       -0.2423
     15 C          -9.7087   -4.1184   18.7964 C.ar    1  UNL1        0.0988
     16 C         -11.0218   -3.3992   18.7042 C.ar    1  UNL1        0.0192
     17 C         -11.0507   -1.9075   18.5498 C.ar    1  UNL1        0.0015
     18 C         -12.3638   -1.1883   18.4576 C.ar    1  UNL1        0.0000
     19 C         -13.6481   -1.9609   18.5199 C.ar    1  UNL1        0.0000
     20 C         -13.6192   -3.4527   18.6743 C.ar    1  UNL1        0.0001
     21 C         -12.3060   -4.1718   18.7665 C.ar    1  UNL1        0.0030
     22 C         -20.3797  -10.0440   18.0749 C.3     1  UNL1        0.0101
     23 C         -19.6619   -9.8708   19.3806 C.3     1  UNL1        0.0856
@<TRIPOS>BOND
     1    22    23    1
     2    23     1    1
     3     1     2    2
     4     1     3   am
     5     3     4    1
     6     4     5    1
     7     5     6    1
     8     6     7   ar
     9     7     8   ar
    10     8    12    1
    11    12    13   ar
    12    13    14   ar
    13    14    15   ar
    14    15    16   ar
    15    16    17   ar
    16    17    18   ar
    17    18    19   ar
    18    19    20   ar
    19    20    21   ar
    20     8     9   ar
    21     9    10   ar
    22    10    11   ar
    23    11     3    1
    24    11     6   ar
    25    21    12   ar
    26    21    16   ar
@<TRIPOS>MOLECULE
*****
 23 26 0 0 0
SMALL
GASTEIGER

@<TRIPOS>ATOM
      1 C          -1.3179  -18.5398   19.8141 C.2     1  UNL1        0.2293
      2 O          -1.7327  -18.6138   18.3745 O.2     1  UNL1       -0.2745
      3 N          -2.3558  -18.5737   20.8965 N.am    1  UNL1       -0.2586
      4 C          -2.0934  -18.5086   22.3719 C.3     1  UNL1        0.1029
      5 C          -3.4138  -18.5733   23.0808 C.3     1  UNL1        0.0495
      6 C          -4.4921  -18.6783   22.0435 C.ar    1  UNL1       -0.0068
      7 C          -5.9850  -18.7737   22.1537 C.ar    1  UNL1       -0.0029
      8 C          -6.8241  -18.8693   20.9140 C.ar    1  UNL1        0.0013
      9 C          -6.1702  -18.8695   19.5640 C.ar    1  UNL1        0.0013
     10 C          -4.6773  -18.7741   19.4537 C.ar    1  UNL1        0.0146
     11 C          -3.8383  -18.6785   20.6935 C.ar    1  UNL1        0.0499
     12 C          -8.3169  -18.9647   21.0243 C.ar    1  UNL1        0.0192
     13 C          -9.0716  -19.9379   20.1679 C.ar    1  UNL1        0.0988
     14 N         -10.5645  -20.0333   20.2781 N.ar    1  UNL1       -0.2423
     15 C         -11.3027  -19.1555   21.2448 C.ar    1  UNL1        0.0988
     16 C         -10.5481  -18.1823   22.1012 C.ar    1  UNL1        0.0192
     17 C         -11.2864  -17.3045   23.0679 C.ar    1  UNL1        0.0015
     18 C         -10.5318  -16.3314   23.9243 C.ar    1  UNL1        0.0000
     19 C          -9.0389  -16.2360   23.8140 C.ar    1  UNL1        0.0000
     20 C          -8.3006  -17.1137   22.8474 C.ar    1  UNL1        0.0001
     21 C          -9.0552  -18.0869   21.9910 C.ar    1  UNL1        0.0030
     22 C           0.8202  -17.0982   20.1310 C.3     1  UNL1        0.0101
     23 C           0.1350  -18.4319   20.1713 C.3     1  UNL1        0.0856
@<TRIPOS>BOND
     1    22    23    1
     2    23     1    1
     3     1     2    2
     4     1     3   am
     5     3     4    1
     6     4     5    1
     7     5     6    1
     8     6     7   ar
     9     7     8   ar
    10     8    12    1
    11    12    13   ar
    12    13    14   ar
    13    14    15   ar
    14    15    16   ar
    15    16    17   ar
    16    17    18   ar
    17    18    19   ar
    18    19    20   ar
    19    20    21   ar
    20     8     9   ar
    21     9    10   ar
    22    10    11   ar
    23    11     3    1
    24    11     6   ar
    25    21    12   ar
    26    21    16   ar
@<TRIPOS>MOLECULE
*****
 23 26 0 0 0
SMALL
GASTEIGER

@<TRIPOS>ATOM
      1 C          -1.4746    3.5411   19.7493 C.2     1  UNL1        0.2293
      2 O          -2.3031    2.5438   20.5034 O.2     1  UNL1       -0.2745
      3 N          -0.0830    3.1858   19.3166 N.am    1  UNL1       -0.2586
      4 C           0.8590    4.0747   18.5598 C.3     1  UNL1        0.1029
      5 C           2.1351    3.3176   18.3402 C.3     1  UNL1        0.0495
      6 C           1.9819    1.9608   18.9613 C.ar    1  UNL1       -0.0068
      7 C           2.9135    0.7890   19.0553 C.ar    1  UNL1       -0.0029
      8 C           2.4743   -0.4643   19.7527 C.ar    1  UNL1        0.0013
      9 C           1.1034   -0.5457   20.3561 C.ar    1  UNL1        0.0013
     10 C           0.1717    0.6261   20.2621 C.ar    1  UNL1        0.0146
     11 C           0.6110    1.8794   19.5647 C.ar    1  UNL1        0.0499
     12 C           3.4059   -1.6361   19.8467 C.ar    1  UNL1        0.0192
     13 C           3.7854   -2.3938   18.6090 C.ar    1  UNL1        0.0988
     14 N           4.7170   -3.5656   18.7030 N.ar    1  UNL1       -0.2423
     15 C           5.2691   -3.9799   20.0347 C.ar    1  UNL1        0.0988
     16 C           4.8896   -3.2222   21.2725 C.ar    1  UNL1        0.0192
     17 C           5.4418   -3.6365   22.6042 C.ar    1  UNL1        0.0015
     18 C           5.0623   -2.8788   23.8419 C.ar    1  UNL1        0.0000
     19 C           4.1307   -1.7070   23.7479 C.ar    1  UNL1        0.0000
     20 C           3.5785   -1.2927   22.4162 C.ar    1  UNL1        0.0001
     21 C           3.9580   -2.0504   21.1785 C.ar    1  UNL1        0.0030
     22 C          -2.9531    5.0648   18.2519 C.3     1  UNL1        0.0101
     23 C          -2.0376    4.8937   19.4277 C.3     1  UNL1        0.0856
@<TRIPOS>BOND
     1    22    23    1
     2    23     1    1
     3     1     2    2
     4     1     3   am
     5     3     4    1
     6     4     5    1
     7     5     6    1
     8     6     7   ar
     9     7     8   ar
    10     8    12    1
    11    12    13   ar
    12    13    14   ar
    13    14    15   ar
    14    15    16   ar
    15    16    17   ar
    16    17    18   ar
    17    18    19   ar
    18    19    20   ar
    19    20    21   ar
    20     8     9   ar
    21     9    10   ar
    22    10    11   ar
    23    11     3    1
    24    11     6   ar
    25    21    12   ar
    26    21    16   ar
@<TRIPOS>MOLECULE
*****
 23 26 0 0 0
SMALL
GASTEIGER

@<TRIPOS>ATOM
      1 C         -18.9190   -9.3451   18.3737 C.2     1  UNL1        0.2293
      2 O         -18.3034   -9.8254   19.6544 O.2     1  UNL1       -0.2745
      3 N         -18.3224   -8.1764   17.6468 N.am    1  UNL1       -0.2586
      4 C         -18.8255   -7.5867   16.3627 C.3     1  UNL1        0.1029
      5 C         -17.9320   -6.4381   15.9987 C.3     1  UNL1        0.0495
      6 C         -16.8767   -6.3180   17.0578 C.ar    1  UNL1       -0.0068
      7 C         -15.7272   -5.3692   17.2264 C.ar    1  UNL1       -0.0029
      8 C         -14.8190   -5.4947   18.4135 C.ar    1  UNL1        0.0013
      9 C         -15.0603   -6.5691   19.4322 C.ar    1  UNL1        0.0013
     10 C         -16.2097   -7.5179   19.2637 C.ar    1  UNL1        0.0146
     11 C         -17.1180   -7.3924   18.0764 C.ar    1  UNL1        0.0499
     12 C         -13.6695   -4.5459   18.5821 C.ar    1  UNL1        0.0192
     13 C         -13.9198   -3.0683   18.6458 C.ar    1  UNL1        0.0988
     14 N         -12.7703   -2.1195   18.8143 N.ar    1  UNL1       -0.2423
     15 C         -11.3705   -2.6483   18.9192 C.ar    1  UNL1        0.0988
     16 C         -11.1202   -4.1259   18.8555 C.ar    1  UNL1        0.0192
     17 C          -9.7204   -4.6547   18.9603 C.ar    1  UNL1        0.0015
     18 C          -9.4702   -6.1322   18.8966 C.ar    1  UNL1        0.0000
     19 C         -10.6197   -7.0810   18.7281 C.ar    1  UNL1        0.0000
     20 C         -12.0194   -6.5523   18.6232 C.ar    1  UNL1        0.0001
     21 C         -12.2697   -5.0747   18.6869 C.ar    1  UNL1        0.0030
     22 C         -20.0225  -10.8510   16.5670 C.3     1  UNL1        0.0101
     23 C         -20.1312  -10.0334   17.8198 C.3     1  UNL1        0.0856
@<TRIPOS>BOND
     1    22    23    1
     2    23     1    1
     3     1     2    2
     4     1     3   am
     5     3     4    1
     6     4     5    1
     7     5     6    1
     8     6     7   ar
     9     7     8   ar
    10     8    12    1
    11    12    13   ar
    12    13    14   ar
    13    14    15   ar
    14    15    16   ar
    15    16    17   ar
    16    17    18   ar
    17    18    19   ar
    18    19    20   ar
    19    20    21   ar
    20     8     9   ar
    21     9    10   ar
    22    10    11   ar
    23    11     3    1
    24    11     6   ar
    25    21    12   ar
    26    21    16   ar
@<TRIPOS>MOLECULE
*****
 23 26 0 0 0
SMALL
GASTEIGER

@<TRIPOS>ATOM
      1 C         -16.0072    0.8297   19.6153 C.2     1  UNL1        0.2293
      2 O         -16.7202   -0.1786   20.4667 O.2     1  UNL1       -0.2745
      3 N         -14.7313    0.4566   18.9205 N.am    1  UNL1       -0.2586
      4 C         -13.9113    1.3535   18.0412 C.3     1  UNL1        0.1029
      5 C         -12.7246    0.5723   17.5602 C.3     1  UNL1        0.0495
      6 C         -12.8112   -0.8075   18.1422 C.ar    1  UNL1       -0.0068
      7 C         -11.9209   -2.0081   18.0152 C.ar    1  UNL1       -0.0029
      8 C         -12.2709   -3.2801   18.7289 C.ar    1  UNL1        0.0013
      9 C         -13.5112   -3.3516   19.5696 C.ar    1  UNL1        0.0013
     10 C         -14.4014   -2.1511   19.6966 C.ar    1  UNL1        0.0146
     11 C         -14.0514   -0.8790   18.9828 C.ar    1  UNL1        0.0499
     12 C         -11.3806   -4.4807   18.6019 C.ar    1  UNL1        0.0192
     13 C         -10.0805   -4.5326   19.3482 C.ar    1  UNL1        0.0988
     14 N          -9.1903   -5.7331   19.2212 N.ar    1  UNL1       -0.2423
     15 C          -9.6001   -6.8818   18.3480 C.ar    1  UNL1        0.0988
     16 C         -10.9003   -6.8299   17.6017 C.ar    1  UNL1        0.0192
     17 C         -11.3102   -7.9785   16.7284 C.ar    1  UNL1        0.0015
     18 C         -12.6103   -7.9266   15.9822 C.ar    1  UNL1        0.0000
     19 C         -13.5005   -6.7261   16.1091 C.ar    1  UNL1        0.0000
     20 C         -13.0907   -5.5774   16.9824 C.ar    1  UNL1        0.0001
     21 C         -11.7906   -5.6293   17.7286 C.ar    1  UNL1        0.0030
     22 C         -16.1050    3.3171   20.3591 C.3     1  UNL1        0.0101
     23 C         -16.5702    2.2112   19.4587 C.3     1  UNL1        0.0856
@<TRIPOS>BOND
     1    22    23    1
     2    23     1    1
     3     1     2    2
     4     1     3   am
     5     3     4    1
     6     4     5    1
     7     5     6    1
     8     6     7   ar
     9     7     8   ar
    10     8    12    1
    11    12    13   ar
    12    13    14   ar
    13    14    15   ar
    14    15    16   ar
    15    16    17   ar
    16    17    18   ar
    17    18    19   ar
    18    19    20   ar
    19    20    21   ar
    20     8     9   ar
    21     9    10   ar
    22    10    11   ar
    23    11     3    1
    24    11     6   ar
    25    21    12   ar
    26    21    16   ar
@<TRIPOS>MOLECULE
*****
 23 26 0 0 0
SMALL
GASTEIGER

@<TRIPOS>ATOM
      1 C         -15.9418    1.9046   19.7502 C.2     1  UNL1        0.2293
      2 O         -16.7510    1.2893   20.8531 O.2     1  UNL1       -0.2745
      3 N         -15.0750    1.0399   18.8837 N.am    1  UNL1       -0.2586
      4 C         -14.2144    1.5105   17.7488 C.3     1  UNL1        0.1029
      5 C         -13.5240    0.3143   17.1636 C.3     1  UNL1        0.0495
      6 C         -13.9579   -0.8956   17.9369 C.ar    1  UNL1       -0.0068
      7 C         -13.6040   -2.3478   17.8104 C.ar    1  UNL1       -0.0029
      8 C         -14.2087   -3.3514   18.7469 C.ar    1  UNL1        0.0013
      9 C         -15.1672   -2.9029   19.8100 C.ar    1  UNL1        0.0013
     10 C         -15.5211   -1.4507   19.9365 C.ar    1  UNL1        0.0146
     11 C         -14.9164   -0.4471   18.9999 C.ar    1  UNL1        0.0499
     12 C         -13.8548   -4.8036   18.6204 C.ar    1  UNL1        0.0192
     13 C         -14.9302   -5.8184   18.3682 C.ar    1  UNL1        0.0988
     14 N         -14.5763   -7.2705   18.2417 N.ar    1  UNL1       -0.2423
     15 C         -13.1470   -7.7079   18.3673 C.ar    1  UNL1        0.0988
     16 C         -12.0715   -6.6930   18.6195 C.ar    1  UNL1        0.0192
     17 C         -10.6422   -7.1304   18.7452 C.ar    1  UNL1        0.0015
     18 C          -9.5668   -6.1156   18.9973 C.ar    1  UNL1        0.0000
     19 C          -9.9207   -4.6634   19.1239 C.ar    1  UNL1        0.0000
     20 C         -11.3500   -4.2261   18.9982 C.ar    1  UNL1        0.0001
     21 C         -12.4254   -5.2409   18.7460 C.ar    1  UNL1        0.0030
     22 C         -15.5279    4.3329   20.5761 C.3     1  UNL1        0.0101
     23 C         -15.9995    3.3848   19.5137 C.3     1  UNL1        0.0856
@<TRIPOS>BOND
     1    22    23    1
     2    23     1    1
     3     1     2    2
     4     1     3   am
     5     3     4    1
     6     4     5    1
     7     5     6    1
     8     6     7   ar
     9     7     8   ar
    10     8    12    1
    11    12    13   ar
    12    13    14   ar
    13    14    15   ar
    14    15    16   ar
    15    16    17   ar
    16    17    18   ar
    17    18    19   ar
    18    19    20   ar
    19    20    21   ar
    20     8     9   ar
    21     9    10   ar
    22    10    11   ar
    23    11     3    1
    24    11     6   ar
    25    21    12   ar
    26    21    16   ar
@<TRIPOS>MOLECULE
*****
 23 26 0 0 0
SMALL
GASTEIGER

@<TRIPOS>ATOM
      1 C           3.7106   -1.0707   19.3462 C.2     1  UNL1        0.2293
      2 O           2.5280   -1.8258   19.8763 O.2     1  UNL1       -0.2745
      3 N           5.0365   -1.1697   20.0406 N.am    1  UNL1       -0.2586
      4 C           6.3013   -0.4762   19.6292 C.3     1  UNL1        0.1029
      5 C           7.3768   -0.8575   20.6027 C.3     1  UNL1        0.0495
      6 C           6.7767   -1.7867   21.6159 C.ar    1  UNL1       -0.0068
      7 C           7.3605   -2.4821   22.8099 C.ar    1  UNL1       -0.0029
      8 C           6.4979   -3.3703   23.6565 C.ar    1  UNL1        0.0013
      9 C           5.0514   -3.5633   23.3092 C.ar    1  UNL1        0.0013
     10 C           4.4677   -2.8679   22.1151 C.ar    1  UNL1        0.0146
     11 C           5.3304   -1.9796   21.2685 C.ar    1  UNL1        0.0499
     12 C           7.0816   -4.0657   24.8506 C.ar    1  UNL1        0.0192
     13 C           6.8669   -3.5041   26.2248 C.ar    1  UNL1        0.0988
     14 N           7.4507   -4.1994   27.4188 N.ar    1  UNL1       -0.2423
     15 C           8.2492   -5.4564   27.2386 C.ar    1  UNL1        0.0988
     16 C           8.4639   -6.0180   25.8644 C.ar    1  UNL1        0.0192
     17 C           9.2624   -7.2749   25.6842 C.ar    1  UNL1        0.0015
     18 C           9.4771   -7.8365   24.3100 C.ar    1  UNL1        0.0000
     19 C           8.8934   -7.1412   23.1160 C.ar    1  UNL1        0.0000
     20 C           8.0949   -5.8842   23.2962 C.ar    1  UNL1        0.0001
     21 C           7.8802   -5.3227   24.6704 C.ar    1  UNL1        0.0030
     22 C           3.8236   -0.8021   16.7645 C.3     1  UNL1        0.0101
     23 C           3.5674   -0.2164   18.1215 C.3     1  UNL1        0.0856
@<TRIPOS>BOND
     1    22    23    1
     2    23     1    1
     3     1     2    2
     4     1     3   am
     5     3     4    1
     6     4     5    1
     7     5     6    1
     8     6     7   ar
     9     7     8   ar
    10     8    12    1
    11    12    13   ar
    12    13    14   ar
    13    14    15   ar
    14    15    16   ar
    15    16    17   ar
    16    17    18   ar
    17    18    19   ar
    18    19    20   ar
    19    20    21   ar
    20     8     9   ar
    21     9    10   ar
    22    10    11   ar
    23    11     3    1
    24    11     6   ar
    25    21    12   ar
    26    21    16   ar
