@<TRIPOS>MOLECULE
*****
 40 45 0 0 0
SMALL
GASTEIGER

@<TRIPOS>ATOM
      1 C           3.3349    1.4573   33.1115 C.ar    1  UNL1        0.1669
      2 N           3.4039    1.9635   34.5218 N.ar    1  UNL1       -0.2221
      3 C           2.4941    3.1509   34.6330 C.ar    1  UNL1        0.1307
      4 C           2.1589    4.0543   35.7826 C.ar    1  UNL1        0.0777
      5 C           1.1925    5.1853   35.5906 C.ar    1  UNL1        0.0893
      6 CL          0.8573    6.0888   36.7402 Cl      1  UNL1       -0.0794
      7 C           0.5613    5.4130   34.2491 C.ar    1  UNL1        0.0863
      8 N           0.8965    4.5096   33.0995 N.ar    1  UNL1       -0.3354
      9 C           1.8629    3.3786   33.2915 C.ar    1  UNL1        0.1613
     10 N           2.3826    2.3318   32.3511 N.ar    1  UNL1       -0.2080
     11 H           0.4822    4.6590   32.2190 H       1  UNL1        0.1675
     12 C           3.4755   -0.5560   31.4755 C.ar    1  UNL1        0.1428
     13 C           4.2271   -1.7306   30.9226 C.ar    1  UNL1        0.0515
     14 C           5.5894   -2.0664   31.4529 C.ar    1  UNL1        0.0510
     15 C           6.2003   -1.2277   32.5361 C.ar    1  UNL1        0.0148
     16 C           5.4487   -0.0531   33.0890 C.ar    1  UNL1        0.0074
     17 C           4.0864    0.2827   32.5587 C.ar    1  UNL1        0.0698
     18 N           6.3409   -3.2410   30.9000 N.pl3   1  UNL1       -0.3046
     19 C           6.6527   -3.3093   29.4344 C.3     1  UNL1        0.1081
     20 C           7.4042   -4.4839   28.8815 C.3     1  UNL1        0.0938
     21 N           7.8438   -5.5900   29.7942 N.3     1  UNL1       -0.2686
     22 C           8.5953   -6.7646   29.2413 C.3     1  UNL1        0.0897
     23 C           7.5320   -5.5218   31.2599 C.3     1  UNL1        0.0938
     24 C           6.7805   -4.3472   31.8128 C.3     1  UNL1        0.1081
     25 C           1.8402   -0.3034   29.4725 C.3     1  UNL1        0.2525
     26 O           2.1132   -0.2203   30.9451 O.3     1  UNL1       -0.4713
     27 N           2.7901    3.8267   37.1242 N.pl3   1  UNL1       -0.3313
     28 H           3.4973    4.4322   37.4446 H       1  UNL1        0.1469
     29 C           2.3439    2.6767   37.9777 C.3     1  UNL1        0.0819
     30 C           3.1021    1.4030   38.2072 C.3     1  UNL1        0.0983
     31 C           2.2879    0.5376   39.1228 C.3     1  UNL1        0.0323
     32 C           1.0052    0.4594   39.8965 C.2     1  UNL1       -0.0304
     33 C           0.2471    1.7331   39.6669 C.2     1  UNL1       -0.0294
     34 C           1.0612    2.5986   38.7513 C.3     1  UNL1        0.0404
     35 C           2.3225    1.8597   38.4150 C.3     1  UNL1        0.0109
     36 C           4.4396    1.0556   37.6237 C.2     1  UNL1        0.2208
     37 N           4.5649   -0.0921   36.6661 N.am    1  UNL1       -0.3288
     38 O           5.6518    1.8560   37.9978 O.2     1  UNL1       -0.2753
     39 H           3.7693   -0.6174   36.4206 H       1  UNL1        0.1449
     40 H           5.4427   -0.3201   36.2832 H       1  UNL1        0.1449
@<TRIPOS>BOND
     1    25    26    1
     2    26    12    1
     3    12    13   ar
     4    13    14   ar
     5    14    18    1
     6    18    19    1
     7    19    20    1
     8    20    21    1
     9    21    22    1
    10    21    23    1
    11    23    24    1
    12    14    15   ar
    13    15    16   ar
    14    16    17   ar
    15    17     1    1
    16     1     2   ar
    17     2     3   ar
    18     3     4   ar
    19     4    27    1
    20    29    27    1
    21    29    30    1
    22    30    36    1
    23    36    37   am
    24    36    38    2
    25    30    31    1
    26    31    32    1
    27    32    33    2
    28    34    33    1
    29    34    35    1
    30     4     5   ar
    31     5     6    1
    32     5     7   ar
    33     7     8   ar
    34     8     9   ar
    35     9    10   ar
    36    17    12   ar
    37    10     1   ar
    38    24    18    1
    39     9     3    1
    40    34    29    1
    41    35    31    1
    42    27    28    1
    43    37    39    1
    44    37    40    1
    45     8    11    1
@<TRIPOS>MOLECULE
*****
 40 45 0 0 0
SMALL
GASTEIGER

@<TRIPOS>ATOM
      1 C           6.0514   -2.3959   31.5256 C.ar    1  UNL1        0.1669
      2 N           5.8820   -3.4170   30.4400 N.ar    1  UNL1       -0.2221
      3 C           7.0396   -4.3682   30.5138 C.ar    1  UNL1        0.1307
      4 C           7.4023   -5.5729   29.6970 C.ar    1  UNL1        0.0777
      5 C           8.6498   -6.3442   30.0115 C.ar    1  UNL1        0.0893
      6 CL          9.0126   -7.5490   29.1947 Cl      1  UNL1       -0.0794
      7 C           9.5344   -5.9109   31.1426 C.ar    1  UNL1        0.0863
      8 N           9.1717   -4.7062   31.9594 N.ar    1  UNL1       -0.3354
      9 C           7.9243   -3.9348   31.6450 C.ar    1  UNL1        0.1613
     10 N           7.3135   -2.7159   32.2703 N.ar    1  UNL1       -0.2080
     11 H           9.7524   -4.4218   32.7018 H       1  UNL1        0.1675
     12 C           4.7117   -0.3230   30.7142 C.ar    1  UNL1        0.1428
     13 C           3.7820    0.8179   31.0043 C.ar    1  UNL1        0.0515
     14 C           3.2624    1.0269   32.3958 C.ar    1  UNL1        0.0510
     15 C           3.6725    0.0949   33.4973 C.ar    1  UNL1        0.0148
     16 C           4.6021   -1.0460   33.2072 C.ar    1  UNL1        0.0074
     17 C           5.1217   -1.2550   31.8157 C.ar    1  UNL1        0.0698
     18 N           2.3328    2.1678   32.6859 N.pl3   1  UNL1       -0.3046
     19 C           2.4588    2.9295   33.9719 C.3     1  UNL1        0.1081
     20 C           1.5292    4.0704   34.2619 C.3     1  UNL1        0.0938
     21 N           0.4736    4.4496   33.2660 N.3     1  UNL1       -0.2686
     22 C          -0.4560    5.5905   33.5561 C.3     1  UNL1        0.0897
     23 C           0.3476    3.6878   31.9799 C.3     1  UNL1        0.0938
     24 C           1.2772    2.5469   31.6899 C.3     1  UNL1        0.1081
     25 C           5.5914    0.6494   28.4713 C.3     1  UNL1        0.2525
     26 O           5.2312   -0.5319   29.3226 O.3     1  UNL1       -0.4713
     27 N           6.5177   -6.0062   28.5658 N.pl3   1  UNL1       -0.3313
     28 H           5.6463   -6.4238   28.7545 H       1  UNL1        0.1469
     29 C           6.9606   -5.8034   27.1472 C.3     1  UNL1        0.0819
     30 C           7.0245   -4.4916   26.4225 C.3     1  UNL1        0.0983
     31 C           7.5208   -4.7541   25.0316 C.3     1  UNL1        0.0323
     32 C           7.9777   -5.8274   24.0885 C.2     1  UNL1       -0.0304
     33 C           7.9138   -7.1392   24.8131 C.2     1  UNL1       -0.0294
     34 C           7.4175   -6.8766   26.2041 C.3     1  UNL1        0.0404
     35 C           7.1746   -5.4026   26.3391 C.3     1  UNL1        0.0109
     36 C           6.6566   -3.1524   26.9893 C.2     1  UNL1        0.2208
     37 N           5.2232   -2.8371   27.2989 N.am    1  UNL1       -0.3288
     38 O           7.7222   -2.1284   27.2464 O.2     1  UNL1       -0.2753
     39 H           4.5238   -3.5091   27.1302 H       1  UNL1        0.1449
     40 H           4.9818   -1.9581   27.6709 H       1  UNL1        0.1449
@<TRIPOS>BOND
     1    25    26    1
     2    26    12    1
     3    12    13   ar
     4    13    14   ar
     5    14    18    1
     6    18    19    1
     7    19    20    1
     8    20    21    1
     9    21    22    1
    10    21    23    1
    11    23    24    1
    12    14    15   ar
    13    15    16   ar
    14    16    17   ar
    15    17     1    1
    16     1     2   ar
    17     2     3   ar
    18     3     4   ar
    19     4    27    1
    20    29    27    1
    21    29    30    1
    22    30    36    1
    23    36    37   am
    24    36    38    2
    25    30    31    1
    26    31    32    1
    27    32    33    2
    28    34    33    1
    29    34    35    1
    30     4     5   ar
    31     5     6    1
    32     5     7   ar
    33     7     8   ar
    34     8     9   ar
    35     9    10   ar
    36    17    12   ar
    37    10     1   ar
    38    24    18    1
    39     9     3    1
    40    34    29    1
    41    35    31    1
    42    27    28    1
    43    37    39    1
    44    37    40    1
    45     8    11    1
@<TRIPOS>MOLECULE
*****
 40 45 0 0 0
SMALL
GASTEIGER

@<TRIPOS>ATOM
      1 C          -0.8305    2.6124   20.0888 C.ar    1  UNL1        0.1669
      2 N          -2.1036    2.5414   20.8787 N.ar    1  UNL1       -0.2221
      3 C          -2.9672    3.6980   20.4708 C.ar    1  UNL1        0.1307
      4 C          -4.3314    4.1372   20.9136 C.ar    1  UNL1        0.0777
      5 C          -4.9562    5.3622   20.3143 C.ar    1  UNL1        0.0893
      6 CL         -6.3205    5.8015   20.7571 Cl      1  UNL1       -0.0794
      7 C          -4.2168    6.1480   19.2723 C.ar    1  UNL1        0.0863
      8 N          -2.8526    5.7088   18.8295 N.ar    1  UNL1       -0.3354
      9 C          -2.2278    4.4838   19.4288 C.ar    1  UNL1        0.1613
     10 N          -0.9072    3.8129   19.1927 N.ar    1  UNL1       -0.2080
     11 H          -2.3673    6.2245   18.1456 H       1  UNL1        0.1675
     12 C           0.8974    1.2991   21.5170 C.ar    1  UNL1        0.1428
     13 C           2.0458    0.3383   21.6072 C.ar    1  UNL1        0.0515
     14 C           2.6146   -0.2700   20.3596 C.ar    1  UNL1        0.0510
     15 C           2.0351    0.0825   19.0218 C.ar    1  UNL1        0.0148
     16 C           0.8867    1.0433   18.9316 C.ar    1  UNL1        0.0074
     17 C           0.3179    1.6516   20.1791 C.ar    1  UNL1        0.0698
     18 N           3.7630   -1.2308   20.4499 N.pl3   1  UNL1       -0.3046
     19 C           3.7013   -2.5433   19.7264 C.3     1  UNL1        0.1081
     20 C           4.8497   -3.5041   19.8167 C.3     1  UNL1        0.0938
     21 N           6.0596   -3.1525   20.6305 N.3     1  UNL1       -0.2686
     22 C           7.2079   -4.1133   20.7208 C.3     1  UNL1        0.0897
     23 C           6.1213   -1.8399   21.3541 C.3     1  UNL1        0.0938
     24 C           4.9729   -0.8791   21.2638 C.3     1  UNL1        0.1081
     25 C           0.6240    1.2928   24.1006 C.3     1  UNL1        0.2525
     26 O           0.3287    1.9073   22.7645 O.3     1  UNL1       -0.4713
     27 N          -5.0709    3.3515   21.9557 N.pl3   1  UNL1       -0.3313
     28 H          -5.6885    2.6341   21.6851 H       1  UNL1        0.1469
     29 C          -4.8694    3.6587   23.4099 C.3     1  UNL1        0.0819
     30 C          -5.8712    4.3026   24.3220 C.3     1  UNL1        0.0983
     31 C          -5.2517    4.4179   25.6833 C.3     1  UNL1        0.0323
     32 C          -4.0132    4.1352   26.4808 C.2     1  UNL1       -0.0304
     33 C          -3.0114    3.4913   25.5687 C.2     1  UNL1       -0.0294
     34 C          -3.6309    3.3760   24.2075 C.3     1  UNL1        0.0404
     35 C          -5.0155    3.9487   24.2782 C.3     1  UNL1        0.0109
     36 C          -7.2503    4.7523   23.9399 C.2     1  UNL1        0.2208
     37 N          -8.2772    3.7445   23.5161 N.am    1  UNL1       -0.3288
     38 O          -7.6023    6.2098   23.9817 O.2     1  UNL1       -0.2753
     39 H          -8.0462    2.7879   23.4886 H       1  UNL1        0.1449
     40 H          -9.1824    4.0397   23.2653 H       1  UNL1        0.1449
@<TRIPOS>BOND
     1    25    26    1
     2    26    12    1
     3    12    13   ar
     4    13    14   ar
     5    14    18    1
     6    18    19    1
     7    19    20    1
     8    20    21    1
     9    21    22    1
    10    21    23    1
    11    23    24    1
    12    14    15   ar
    13    15    16   ar
    14    16    17   ar
    15    17     1    1
    16     1     2   ar
    17     2     3   ar
    18     3     4   ar
    19     4    27    1
    20    29    27    1
    21    29    30    1
    22    30    36    1
    23    36    37   am
    24    36    38    2
    25    30    31    1
    26    31    32    1
    27    32    33    2
    28    34    33    1
    29    34    35    1
    30     4     5   ar
    31     5     6    1
    32     5     7   ar
    33     7     8   ar
    34     8     9   ar
    35     9    10   ar
    36    17    12   ar
    37    10     1   ar
    38    24    18    1
    39     9     3    1
    40    34    29    1
    41    35    31    1
    42    27    28    1
    43    37    39    1
    44    37    40    1
    45     8    11    1
@<TRIPOS>MOLECULE
*****
 40 45 0 0 0
SMALL
GASTEIGER

@<TRIPOS>ATOM
      1 C           5.0933   -0.6076   32.4672 C.ar    1  UNL1        0.1669
      2 N           3.7149   -0.0339   32.3231 N.ar    1  UNL1       -0.2221
      3 C           3.5837    1.1055   33.2898 C.ar    1  UNL1        0.1307
      4 C           2.4505    2.0411   33.5906 C.ar    1  UNL1        0.0777
      5 C           2.6147    3.1072   34.6330 C.ar    1  UNL1        0.0893
      6 CL          1.4814    4.0429   34.9338 Cl      1  UNL1       -0.0794
      7 C           3.9119    3.2377   35.3745 C.ar    1  UNL1        0.0863
      8 N           5.0451    2.3021   35.0737 N.ar    1  UNL1       -0.3354
      9 C           4.8810    1.2360   34.0314 C.ar    1  UNL1        0.1613
     10 N           5.8140    0.1772   33.5230 N.ar    1  UNL1       -0.2080
     11 H           5.8966    2.3877   35.5605 H       1  UNL1        0.1675
     12 C           5.8020   -1.6652   30.2024 C.ar    1  UNL1        0.1428
     13 C           6.3615   -2.8209   29.4270 C.ar    1  UNL1        0.0515
     14 C           6.7719   -4.0747   30.1409 C.ar    1  UNL1        0.0510
     15 C           6.6228   -4.1728   31.6302 C.ar    1  UNL1        0.0148
     16 C           6.0632   -3.0170   32.4056 C.ar    1  UNL1        0.0074
     17 C           5.6528   -1.7633   31.6918 C.ar    1  UNL1        0.0698
     18 N           7.3315   -5.2304   29.3654 N.pl3   1  UNL1       -0.3046
     19 C           8.4131   -6.0808   29.9627 C.3     1  UNL1        0.1081
     20 C           8.9727   -7.2364   29.1872 C.3     1  UNL1        0.0938
     21 N           8.4506   -7.5417   27.8146 N.3     1  UNL1       -0.2686
     22 C           9.0101   -8.6974   27.0391 C.3     1  UNL1        0.0897
     23 C           7.3688   -6.6912   27.2173 C.3     1  UNL1        0.0938
     24 C           6.8093   -5.5356   27.9927 C.3     1  UNL1        0.1081
     25 C           6.3643    0.7210   29.3422 C.3     1  UNL1        0.2525
     26 O           5.3916   -0.4115   29.4885 O.3     1  UNL1       -0.4713
     27 N           1.1531    1.9107   32.8490 N.pl3   1  UNL1       -0.3313
     28 H           0.4516    1.3081   33.1867 H       1  UNL1        0.1469
     29 C           0.9246    2.6983   31.5931 C.3     1  UNL1        0.0819
     30 C           0.9404    2.1535   30.1956 C.3     1  UNL1        0.0983
     31 C           0.6658    3.2875   29.2529 C.3     1  UNL1        0.0323
     32 C           0.3815    4.7582   29.1739 C.2     1  UNL1       -0.0304
     33 C           0.3657    5.3030   30.5714 C.2     1  UNL1       -0.0294
     34 C           0.6403    4.1690   31.5141 C.3     1  UNL1        0.0404
     35 C           0.8258    2.9233   30.6993 C.3     1  UNL1        0.0109
     36 C           1.1874    0.7254   29.8088 C.2     1  UNL1        0.2208
     37 N           2.5920    0.2230   29.6521 N.am    1  UNL1       -0.3288
     38 O           0.0298   -0.2002   29.5785 O.2     1  UNL1       -0.2753
     39 H           3.3519    0.8306   29.8032 H       1  UNL1        0.1449
     40 H           2.7542   -0.7142   29.3982 H       1  UNL1        0.1449
@<TRIPOS>BOND
     1    25    26    1
     2    26    12    1
     3    12    13   ar
     4    13    14   ar
     5    14    18    1
     6    18    19    1
     7    19    20    1
     8    20    21    1
     9    21    22    1
    10    21    23    1
    11    23    24    1
    12    14    15   ar
    13    15    16   ar
    14    16    17   ar
    15    17     1    1
    16     1     2   ar
    17     2     3   ar
    18     3     4   ar
    19     4    27    1
    20    29    27    1
    21    29    30    1
    22    30    36    1
    23    36    37   am
    24    36    38    2
    25    30    31    1
    26    31    32    1
    27    32    33    2
    28    34    33    1
    29    34    35    1
    30     4     5   ar
    31     5     6    1
    32     5     7   ar
    33     7     8   ar
    34     8     9   ar
    35     9    10   ar
    36    17    12   ar
    37    10     1   ar
    38    24    18    1
    39     9     3    1
    40    34    29    1
    41    35    31    1
    42    27    28    1
    43    37    39    1
    44    37    40    1
    45     8    11    1
@<TRIPOS>MOLECULE
*****
 40 45 0 0 0
SMALL
GASTEIGER

@<TRIPOS>ATOM
      1 C           6.9445   -4.0165   31.4232 C.ar    1  UNL1        0.1669
      2 N           6.4790   -4.3026   30.0263 N.ar    1  UNL1       -0.2221
      3 C           7.3280   -5.4080   29.4721 C.ar    1  UNL1        0.1307
      4 C           7.3274   -6.1043   28.1435 C.ar    1  UNL1        0.0777
      5 C           8.3171   -7.1978   27.8694 C.ar    1  UNL1        0.0893
      6 CL          8.3165   -7.8941   26.5408 Cl      1  UNL1       -0.0794
      7 C           9.3072   -7.5948   28.9238 C.ar    1  UNL1        0.0863
      8 N           9.3078   -6.8985   30.2524 N.ar    1  UNL1       -0.3354
      9 C           8.3182   -5.8051   30.5265 C.ar    1  UNL1        0.1613
     10 N           8.0812   -4.9451   31.7324 N.ar    1  UNL1       -0.2080
     11 H           9.9577   -7.1592   30.9444 H       1  UNL1        0.1675
     12 C           7.2071   -1.8085   32.7670 C.ar    1  UNL1        0.1428
     13 C           6.6360   -0.7752   33.6924 C.ar    1  UNL1        0.0515
     14 C           5.2314   -0.9166   34.1993 C.ar    1  UNL1        0.0510
     15 C           4.3978   -2.0913   33.7809 C.ar    1  UNL1        0.0148
     16 C           4.9688   -3.1246   32.8555 C.ar    1  UNL1        0.0074
     17 C           6.3735   -2.9832   32.3486 C.ar    1  UNL1        0.0698
     18 N           4.6604    0.1167   35.1247 N.pl3   1  UNL1       -0.3046
     19 C           3.9110    1.2904   34.5672 C.3     1  UNL1        0.1081
     20 C           3.3400    2.3237   35.4926 C.3     1  UNL1        0.0938
     21 N           3.5184    2.1833   36.9753 N.3     1  UNL1       -0.2686
     22 C           2.9475    3.2166   37.9006 C.3     1  UNL1        0.0897
     23 C           4.2679    1.0096   37.5327 C.3     1  UNL1        0.0938
     24 C           4.8389   -0.0237   36.6074 C.3     1  UNL1        0.1081
     25 C           8.9113   -0.7220   31.1344 C.3     1  UNL1        0.2525
     26 O           8.6117   -1.6670   32.2602 O.3     1  UNL1       -0.4713
     27 N           6.3372   -5.7073   27.0890 N.pl3   1  UNL1       -0.3313
     28 H           5.4118   -6.0403   27.1324 H       1  UNL1        0.1469
     29 C           6.7571   -4.8028   25.9685 C.3     1  UNL1        0.0819
     30 C           6.7210   -3.3034   25.9850 C.3     1  UNL1        0.0983
     31 C           7.2284   -2.8129   24.6614 C.3     1  UNL1        0.0323
     32 C           7.7580   -3.2491   23.3275 C.2     1  UNL1       -0.0304
     33 C           7.7941   -4.7485   23.3109 C.2     1  UNL1       -0.0294
     34 C           7.2867   -5.2391   24.6346 C.3     1  UNL1        0.0404
     35 C           6.9371   -4.0428   25.4692 C.3     1  UNL1        0.0109
     36 C           6.2588   -2.4451   27.1251 C.2     1  UNL1        0.2208
     37 N           7.2372   -1.9929   28.1682 N.am    1  UNL1       -0.3288
     38 O           4.8180   -2.0389   27.2219 O.2     1  UNL1       -0.2753
     39 H           8.1828   -2.2595   28.1046 H       1  UNL1        0.1449
     40 H           6.9338   -1.4296   28.9165 H       1  UNL1        0.1449
@<TRIPOS>BOND
     1    25    26    1
     2    26    12    1
     3    12    13   ar
     4    13    14   ar
     5    14    18    1
     6    18    19    1
     7    19    20    1
     8    20    21    1
     9    21    22    1
    10    21    23    1
    11    23    24    1
    12    14    15   ar
    13    15    16   ar
    14    16    17   ar
    15    17     1    1
    16     1     2   ar
    17     2     3   ar
    18     3     4   ar
    19     4    27    1
    20    29    27    1
    21    29    30    1
    22    30    36    1
    23    36    37   am
    24    36    38    2
    25    30    31    1
    26    31    32    1
    27    32    33    2
    28    34    33    1
    29    34    35    1
    30     4     5   ar
    31     5     6    1
    32     5     7   ar
    33     7     8   ar
    34     8     9   ar
    35     9    10   ar
    36    17    12   ar
    37    10     1   ar
    38    24    18    1
    39     9     3    1
    40    34    29    1
    41    35    31    1
    42    27    28    1
    43    37    39    1
    44    37    40    1
    45     8    11    1
@<TRIPOS>MOLECULE
*****
 40 45 0 0 0
SMALL
GASTEIGER

@<TRIPOS>ATOM
      1 C           4.1865   -0.8349   24.0673 C.ar    1  UNL1        0.1669
      2 N           3.4559   -1.1828   22.8042 N.ar    1  UNL1       -0.2221
      3 C           4.4208   -1.8720   21.8856 C.ar    1  UNL1        0.1307
      4 C           4.2626   -2.4386   20.5058 C.ar    1  UNL1        0.0777
      5 C           5.4314   -3.0833   19.8212 C.ar    1  UNL1        0.0893
      6 CL          5.2732   -3.6499   18.4413 Cl      1  UNL1       -0.0794
      7 C           6.7581   -3.1614   20.5165 C.ar    1  UNL1        0.0863
      8 N           6.9163   -2.5948   21.8963 N.ar    1  UNL1       -0.3354
      9 C           5.7477   -1.9501   22.5809 C.ar    1  UNL1        0.1613
     10 N           5.6028   -1.3091   23.9293 N.ar    1  UNL1       -0.2080
     11 H           7.7872   -2.6460   22.3526 H       1  UNL1        0.1675
     12 C           3.1555    1.2916   25.1466 C.ar    1  UNL1        0.1428
     13 C           2.5721    1.9909   26.3386 C.ar    1  UNL1        0.0515
     14 C           2.4363    1.2630   27.6431 C.ar    1  UNL1        0.0510
     15 C           2.8839   -0.1642   27.7556 C.ar    1  UNL1        0.0148
     16 C           3.4673   -0.8635   26.5637 C.ar    1  UNL1        0.0074
     17 C           3.6031   -0.1356   25.2592 C.ar    1  UNL1        0.0698
     18 N           1.8529    1.9623   28.8350 N.pl3   1  UNL1       -0.3046
     19 C           1.4696    3.4095   28.7420 C.3     1  UNL1        0.1081
     20 C           0.8862    4.1088   29.9339 C.3     1  UNL1        0.0938
     21 N           0.6861    3.3610   31.2186 N.3     1  UNL1       -0.2686
     22 C           0.1027    4.0603   32.4105 C.3     1  UNL1        0.0897
     23 C           1.0694    1.9137   31.3116 C.3     1  UNL1        0.0938
     24 C           1.6528    1.2144   30.1197 C.3     1  UNL1        0.1081
     25 C           2.0706    2.3394   23.0311 C.3     1  UNL1        0.2525
     26 O           3.2912    2.0196   23.8422 O.3     1  UNL1       -0.4713
     27 N           2.9358   -2.3606   19.8104 N.pl3   1  UNL1       -0.3313
     28 H           2.4520   -3.1862   19.5790 H       1  UNL1        0.1469
     29 C           2.3461   -1.0246   19.4677 C.3     1  UNL1        0.0819
     30 C           2.8461   -0.0852   18.4106 C.3     1  UNL1        0.0983
     31 C           1.9619    1.1265   18.4115 C.3     1  UNL1        0.0323
     32 C           0.7687    1.7576   19.0657 C.2     1  UNL1       -0.0304
     33 C           0.2686    0.8181   20.1227 C.2     1  UNL1       -0.0294
     34 C           1.1529   -0.3936   20.1219 C.3     1  UNL1        0.0404
     35 C           2.1994   -0.2030   19.0643 C.3     1  UNL1        0.0109
     36 C           4.0236   -0.3168   17.5107 C.2     1  UNL1        0.2208
     37 N           5.3771    0.2008   17.8983 N.am    1  UNL1       -0.3288
     38 O           3.8476   -1.0659   16.2231 O.2     1  UNL1       -0.2753
     39 H           5.4926    0.6925   18.7433 H       1  UNL1        0.1449
     40 H           6.1499    0.0488   17.3076 H       1  UNL1        0.1449
@<TRIPOS>BOND
     1    25    26    1
     2    26    12    1
     3    12    13   ar
     4    13    14   ar
     5    14    18    1
     6    18    19    1
     7    19    20    1
     8    20    21    1
     9    21    22    1
    10    21    23    1
    11    23    24    1
    12    14    15   ar
    13    15    16   ar
    14    16    17   ar
    15    17     1    1
    16     1     2   ar
    17     2     3   ar
    18     3     4   ar
    19     4    27    1
    20    29    27    1
    21    29    30    1
    22    30    36    1
    23    36    37   am
    24    36    38    2
    25    30    31    1
    26    31    32    1
    27    32    33    2
    28    34    33    1
    29    34    35    1
    30     4     5   ar
    31     5     6    1
    32     5     7   ar
    33     7     8   ar
    34     8     9   ar
    35     9    10   ar
    36    17    12   ar
    37    10     1   ar
    38    24    18    1
    39     9     3    1
    40    34    29    1
    41    35    31    1
    42    27    28    1
    43    37    39    1
    44    37    40    1
    45     8    11    1
@<TRIPOS>MOLECULE
*****
 40 45 0 0 0
SMALL
GASTEIGER

@<TRIPOS>ATOM
      1 C           3.9003   -0.9389   24.2675 C.ar    1  UNL1        0.1669
      2 N           3.5959   -1.4497   22.8904 N.ar    1  UNL1       -0.2221
      3 C           2.7657   -0.4177   22.1863 C.ar    1  UNL1        0.1307
      4 C           2.1728   -0.3755   20.8091 C.ar    1  UNL1        0.0777
      5 C           1.3713    0.8154   20.3738 C.ar    1  UNL1        0.0893
      6 CL          0.7783    0.8576   18.9965 Cl      1  UNL1       -0.0794
      7 C           1.1627    1.9639   21.3157 C.ar    1  UNL1        0.0863
      8 N           1.7556    1.9217   22.6928 N.ar    1  UNL1       -0.3354
      9 C           2.5571    0.7309   23.1281 C.ar    1  UNL1        0.1613
     10 N           3.2583    0.4088   24.4144 N.ar    1  UNL1       -0.2080
     11 H           1.6187    2.6756   23.3110 H       1  UNL1        0.1675
     12 C           5.8884   -2.4817   24.9137 C.ar    1  UNL1        0.1428
     13 C           6.6934   -3.1936   25.9602 C.ar    1  UNL1        0.0515
     14 C           6.3155   -3.0746   27.4069 C.ar    1  UNL1        0.0510
     15 C           5.1325   -2.2438   27.8072 C.ar    1  UNL1        0.0148
     16 C           4.3275   -1.5319   26.7606 C.ar    1  UNL1        0.0074
     17 C           4.7054   -1.6508   25.3139 C.ar    1  UNL1        0.0698
     18 N           7.1205   -3.7865   28.4534 N.pl3   1  UNL1       -0.3046
     19 C           6.6580   -5.1115   28.9828 C.3     1  UNL1        0.1081
     20 C           7.4630   -5.8234   30.0293 C.3     1  UNL1        0.0938
     21 N           8.7306   -5.2104   30.5463 N.3     1  UNL1       -0.2686
     22 C           9.5356   -5.9223   31.5927 C.3     1  UNL1        0.0897
     23 C           9.1932   -3.8853   30.0168 C.3     1  UNL1        0.0938
     24 C           8.3881   -3.1734   28.9704 C.3     1  UNL1        0.1081
     25 C           7.3314   -1.7131   22.8946 C.3     1  UNL1        0.2525
     26 O           6.2663   -2.6007   23.4670 O.3     1  UNL1       -0.4713
     27 N           2.3814   -1.5241   19.8671 N.pl3   1  UNL1       -0.3313
     28 H           1.6219   -2.0971   19.6137 H       1  UNL1        0.1469
     29 C           3.7470   -1.7997   19.3112 C.3     1  UNL1        0.0819
     30 C           4.5837   -3.0132   19.5895 C.3     1  UNL1        0.0983
     31 C           5.8695   -2.8738   18.8297 C.3     1  UNL1        0.0323
     32 C           6.6382   -1.9844   17.8980 C.2     1  UNL1       -0.0304
     33 C           5.8015   -0.7709   17.6198 C.2     1  UNL1       -0.0294
     34 C           4.5157   -0.9104   18.3795 C.3     1  UNL1        0.0404
     35 C           4.5577   -2.2100   19.1273 C.3     1  UNL1        0.0109
     36 C           4.2017   -4.1641   20.4724 C.2     1  UNL1        0.2208
     37 N           4.4277   -4.0808   21.9529 N.am    1  UNL1       -0.3288
     38 O           3.5936   -5.3982   19.8748 O.2     1  UNL1       -0.2753
     39 H           4.8268   -3.2707   22.3452 H       1  UNL1        0.1449
     40 H           4.1770   -4.8361   22.5324 H       1  UNL1        0.1449
@<TRIPOS>BOND
     1    25    26    1
     2    26    12    1
     3    12    13   ar
     4    13    14   ar
     5    14    18    1
     6    18    19    1
     7    19    20    1
     8    20    21    1
     9    21    22    1
    10    21    23    1
    11    23    24    1
    12    14    15   ar
    13    15    16   ar
    14    16    17   ar
    15    17     1    1
    16     1     2   ar
    17     2     3   ar
    18     3     4   ar
    19     4    27    1
    20    29    27    1
    21    29    30    1
    22    30    36    1
    23    36    37   am
    24    36    38    2
    25    30    31    1
    26    31    32    1
    27    32    33    2
    28    34    33    1
    29    34    35    1
    30     4     5   ar
    31     5     6    1
    32     5     7   ar
    33     7     8   ar
    34     8     9   ar
    35     9    10   ar
    36    17    12   ar
    37    10     1   ar
    38    24    18    1
    39     9     3    1
    40    34    29    1
    41    35    31    1
    42    27    28    1
    43    37    39    1
    44    37    40    1
    45     8    11    1
@<TRIPOS>MOLECULE
*****
 40 45 0 0 0
SMALL
GASTEIGER

@<TRIPOS>ATOM
      1 C           7.3530   -1.1954   21.9618 C.ar    1  UNL1        0.1669
      2 N           6.3816   -1.3942   20.8363 N.ar    1  UNL1       -0.2221
      3 C           6.8260   -0.5422   19.6845 C.ar    1  UNL1        0.1307
      4 C           6.2570   -0.3332   18.3125 C.ar    1  UNL1        0.0777
      5 C           6.9341    0.6013   17.3541 C.ar    1  UNL1        0.0893
      6 CL          6.3651    0.8103   15.9820 Cl      1  UNL1       -0.0794
      7 C           8.1801    1.3267   17.7679 C.ar    1  UNL1        0.0863
      8 N           8.7491    1.1177   19.1399 N.ar    1  UNL1       -0.3354
      9 C           8.0720    0.1832   20.0983 C.ar    1  UNL1        0.1613
     10 N           8.3977   -0.2205   21.5057 N.ar    1  UNL1       -0.2080
     11 H           9.5669    1.5938   19.4115 H       1  UNL1        0.1675
     12 C           7.1505   -3.3457   23.4058 C.ar    1  UNL1        0.1428
     13 C           7.0881   -4.0058   24.7513 C.ar    1  UNL1        0.0515
     14 C           7.1658   -3.1758   25.9983 C.ar    1  UNL1        0.0510
     15 C           7.3059   -1.6856   25.8998 C.ar    1  UNL1        0.0148
     16 C           7.3682   -1.0255   24.5543 C.ar    1  UNL1        0.0074
     17 C           7.2906   -1.8555   23.3073 C.ar    1  UNL1        0.0698
     18 N           7.1034   -3.8360   27.3438 N.pl3   1  UNL1       -0.3046
     19 C           6.8616   -3.0114   28.5732 C.3     1  UNL1        0.1081
     20 C           6.7992   -3.6715   29.9187 C.3     1  UNL1        0.0938
     21 N           6.9786   -5.1562   30.0347 N.3     1  UNL1       -0.2686
     22 C           6.9162   -5.8163   31.3802 C.3     1  UNL1        0.0897
     23 C           7.2204   -5.9808   28.8053 C.3     1  UNL1        0.0938
     24 C           7.2828   -5.3207   27.4598 C.3     1  UNL1        0.1081
     25 C           8.3242   -4.5159   21.4050 C.3     1  UNL1        0.2525
     26 O           7.0728   -4.1758   22.1589 O.3     1  UNL1       -0.4713
     27 N           5.0109   -1.0586   17.8987 N.pl3   1  UNL1       -0.3313
     28 H           5.0367   -1.6902   17.1439 H       1  UNL1        0.1469
     29 C           3.7257   -0.8216   18.6348 C.3     1  UNL1        0.0819
     30 C           3.0337   -1.7992   19.5378 C.3     1  UNL1        0.0983
     31 C           1.7871   -1.1473   20.0583 C.3     1  UNL1        0.0323
     32 C           0.9681    0.1088   20.0206 C.2     1  UNL1       -0.0304
     33 C           1.6601    1.0864   19.1176 C.2     1  UNL1       -0.0294
     34 C           2.9067    0.4345   18.5971 C.3     1  UNL1        0.0404
     35 C           2.9853   -0.9460   19.1785 C.3     1  UNL1        0.0109
     36 C           3.5056   -3.1854   19.8633 C.2     1  UNL1        0.2208
     37 N           4.3260   -3.4285   21.0953 N.am    1  UNL1       -0.3288
     38 O           3.1570   -4.3285   18.9567 O.2     1  UNL1       -0.2753
     39 H           4.5547   -2.6783   21.6903 H       1  UNL1        0.1449
     40 H           4.6356   -4.3383   21.3089 H       1  UNL1        0.1449
@<TRIPOS>BOND
     1    25    26    1
     2    26    12    1
     3    12    13   ar
     4    13    14   ar
     5    14    18    1
     6    18    19    1
     7    19    20    1
     8    20    21    1
     9    21    22    1
    10    21    23    1
    11    23    24    1
    12    14    15   ar
    13    15    16   ar
    14    16    17   ar
    15    17     1    1
    16     1     2   ar
    17     2     3   ar
    18     3     4   ar
    19     4    27    1
    20    29    27    1
    21    29    30    1
    22    30    36    1
    23    36    37   am
    24    36    38    2
    25    30    31    1
    26    31    32    1
    27    32    33    2
    28    34    33    1
    29    34    35    1
    30     4     5   ar
    31     5     6    1
    32     5     7   ar
    33     7     8   ar
    34     8     9   ar
    35     9    10   ar
    36    17    12   ar
    37    10     1   ar
    38    24    18    1
    39     9     3    1
    40    34    29    1
    41    35    31    1
    42    27    28    1
    43    37    39    1
    44    37    40    1
    45     8    11    1
@<TRIPOS>MOLECULE
*****
 40 45 0 0 0
SMALL
GASTEIGER

@<TRIPOS>ATOM
      1 C           1.2758    1.5498   24.5023 C.ar    1  UNL1        0.1669
      2 N           1.4946    0.5065   23.4470 N.ar    1  UNL1       -0.2221
      3 C           2.9311    0.0792   23.5086 C.ar    1  UNL1        0.1307
      4 C           3.7164   -0.9188   22.7103 C.ar    1  UNL1        0.0777
      5 C           5.1708   -1.1376   23.0054 C.ar    1  UNL1        0.0893
      6 CL          5.9562   -2.1357   22.2071 Cl      1  UNL1       -0.0794
      7 C           5.8398   -0.3584   24.0986 C.ar    1  UNL1        0.0863
      8 N           5.0545    0.6396   24.8968 N.ar    1  UNL1       -0.3354
      9 C           3.6002    0.8584   24.6018 C.ar    1  UNL1        0.1613
     10 N           2.5771    1.7673   25.2160 N.ar    1  UNL1       -0.2080
     11 H           5.4936    1.1510   25.6144 H       1  UNL1        0.1675
     12 C          -0.6304    2.1603   26.1587 C.ar    1  UNL1        0.1428
     13 C          -1.9235    2.8629   26.4491 C.ar    1  UNL1        0.0515
     14 C          -2.6034    3.6575   25.3739 C.ar    1  UNL1        0.0510
     15 C          -1.9903    3.7496   24.0080 C.ar    1  UNL1        0.0148
     16 C          -0.6972    3.0470   23.7175 C.ar    1  UNL1        0.0074
     17 C          -0.0173    2.2524   24.7928 C.ar    1  UNL1        0.0698
     18 N          -3.8965    4.3600   25.6644 N.pl3   1  UNL1       -0.3046
     19 C          -4.0199    5.2319   26.8787 C.3     1  UNL1        0.1081
     20 C          -5.3129    5.9344   27.1693 C.3     1  UNL1        0.0938
     21 N          -6.4825    5.7651   26.2456 N.3     1  UNL1       -0.2686
     22 C          -7.7756    6.4677   26.5362 C.3     1  UNL1        0.0897
     23 C          -6.3592    4.8932   25.0312 C.3     1  UNL1        0.0938
     24 C          -5.0661    4.1907   24.7407 C.3     1  UNL1        0.1081
     25 C          -0.7554    0.4656   28.1240 C.3     1  UNL1        0.2525
     26 O           0.0494    1.3657   27.2340 O.3     1  UNL1       -0.4713
     27 N           3.0475   -1.6981   21.6170 N.pl3   1  UNL1       -0.3313
     28 H           2.5186   -2.4991   21.8361 H       1  UNL1        0.1469
     29 C           3.1843   -1.2570   20.1899 C.3     1  UNL1        0.0819
     30 C           2.3653   -0.1991   19.5117 C.3     1  UNL1        0.0983
     31 C           2.8389   -0.0846   18.0931 C.3     1  UNL1        0.0323
     32 C           3.8187   -0.6240   17.0936 C.2     1  UNL1       -0.0304
     33 C           4.6377   -1.6819   17.7717 C.2     1  UNL1       -0.0294
     34 C           4.1641   -1.7964   19.1904 C.3     1  UNL1        0.0404
     35 C           3.0523   -0.8092   19.3890 C.3     1  UNL1        0.0109
     36 C           1.2656    0.6035   20.1416 C.2     1  UNL1        0.2208
     37 N          -0.0272   -0.0591   20.5151 N.am    1  UNL1       -0.3288
     38 O           1.4589    2.0688   20.3980 O.2     1  UNL1       -0.2753
     39 H          -0.1540   -1.0208   20.3469 H       1  UNL1        0.1449
     40 H          -0.7489    0.4676   20.9286 H       1  UNL1        0.1449
@<TRIPOS>BOND
     1    25    26    1
     2    26    12    1
     3    12    13   ar
     4    13    14   ar
     5    14    18    1
     6    18    19    1
     7    19    20    1
     8    20    21    1
     9    21    22    1
    10    21    23    1
    11    23    24    1
    12    14    15   ar
    13    15    16   ar
    14    16    17   ar
    15    17     1    1
    16     1     2   ar
    17     2     3   ar
    18     3     4   ar
    19     4    27    1
    20    29    27    1
    21    29    30    1
    22    30    36    1
    23    36    37   am
    24    36    38    2
    25    30    31    1
    26    31    32    1
    27    32    33    2
    28    34    33    1
    29    34    35    1
    30     4     5   ar
    31     5     6    1
    32     5     7   ar
    33     7     8   ar
    34     8     9   ar
    35     9    10   ar
    36    17    12   ar
    37    10     1   ar
    38    24    18    1
    39     9     3    1
    40    34    29    1
    41    35    31    1
    42    27    28    1
    43    37    39    1
    44    37    40    1
    45     8    11    1
