@<TRIPOS>MOLECULE
*****
 25 29 0 0 0
SMALL
GASTEIGER

@<TRIPOS>ATOM
      1 C          -8.1179  -19.1638   21.6129 C.2     1  UNL1       -0.0046
      2 C          -6.9328  -18.4521   22.1950 C.2     1  UNL1       -0.0009
      3 C          -5.5906  -18.9404   21.7365 C.ar    1  UNL1       -0.0040
      4 C          -5.7231  -20.0730   20.7621 C.ar    1  UNL1       -0.0003
      5 C          -4.4957  -20.7087   20.1795 C.ar    1  UNL1       -0.0000
      6 C          -3.1358  -20.2117   20.5714 C.ar    1  UNL1       -0.0003
      7 C          -3.0033  -19.0790   21.5459 C.ar    1  UNL1       -0.0043
      8 C          -4.2307  -18.4434   22.1284 C.ar    1  UNL1       -0.0218
      9 C          -3.8771  -17.3353   23.0756 C.3     1  UNL1        0.0310
     10 C          -4.7960  -16.4506   23.8648 C.3     1  UNL1        0.0310
     11 C          -6.2955  -16.4554   23.9017 C.ar    1  UNL1       -0.0218
     12 C          -6.8243  -15.4002   24.8275 C.ar    1  UNL1       -0.0043
     13 C          -8.3041  -15.2358   25.0100 C.ar    1  UNL1       -0.0003
     14 C          -9.2550  -16.1265   24.2669 C.ar    1  UNL1       -0.0000
     15 C          -8.7262  -17.1817   23.3412 C.ar    1  UNL1       -0.0003
     16 C          -7.2466  -17.3462   23.1586 C.ar    1  UNL1       -0.0040
     17 C         -10.0723  -18.4275   21.9359 C.3     1  UNL1        0.0003
     18 C         -10.7776  -18.3290   22.2942 C.3     1  UNL1        0.0043
     19 C         -11.5268  -18.7994   23.5055 C.3     1  UNL1        0.0217
     20 C         -10.1290  -19.3100   23.2513 C.2     1  UNL1       -0.0307
     21 C          -9.5064  -18.7535   22.0053 C.2     1  UNL1       -0.0265
     22 C         -10.2722  -17.7865   21.1517 C.3     1  UNL1        0.0260
     23 C         -11.6605  -17.3763   21.5441 C.3     1  UNL1        0.0047
     24 C         -12.9555  -17.2578   22.2919 C.3     1  UNL1        0.0007
     25 C         -12.8728  -18.1374   23.5041 C.3     1  UNL1        0.0043
@<TRIPOS>BOND
     1    17    18    1
     2    18    19    1
     3    19    20    1
     4    20    21    2
     5    21     1    1
     6     1     2    2
     7     2     3    1
     8     3     4   ar
     9     4     5   ar
    10     5     6   ar
    11     6     7   ar
    12     7     8   ar
    13     8     9    1
    14     9    10    1
    15    10    11    1
    16    11    12   ar
    17    12    13   ar
    18    13    14   ar
    19    14    15   ar
    20    15    16   ar
    21    21    22    1
    22    22    23    1
    23    23    24    1
    24    24    25    1
    25    23    18    1
    26    25    19    1
    27    16     2    1
    28     8     3   ar
    29    16    11   ar
@<TRIPOS>MOLECULE
*****
 25 29 0 0 0
SMALL
GASTEIGER

@<TRIPOS>ATOM
      1 C          -7.8512  -17.4361   23.1984 C.2     1  UNL1       -0.0046
      2 C          -7.1207  -18.2292   22.1555 C.2     1  UNL1       -0.0009
      3 C          -5.6290  -18.2815   22.3041 C.ar    1  UNL1       -0.0040
      4 C          -5.1700  -17.5048   23.5024 C.ar    1  UNL1       -0.0003
      5 C          -3.7088  -17.4292   23.8324 C.ar    1  UNL1       -0.0000
      6 C          -2.7065  -18.1303   22.9641 C.ar    1  UNL1       -0.0003
      7 C          -3.1655  -18.9070   21.7658 C.ar    1  UNL1       -0.0043
      8 C          -4.6268  -18.9826   21.4358 C.ar    1  UNL1       -0.0218
      9 C          -4.8687  -19.8044   20.2045 C.3     1  UNL1        0.0310
     10 C          -6.1726  -20.1282   19.5374 C.3     1  UNL1        0.0310
     11 C          -7.5567  -19.7100   19.9369 C.ar    1  UNL1       -0.0218
     12 C          -8.5874  -20.2531   18.9920 C.ar    1  UNL1       -0.0043
     13 C         -10.0400  -19.9511   19.2124 C.ar    1  UNL1       -0.0003
     14 C         -10.4620  -19.1059   20.3775 C.ar    1  UNL1       -0.0000
     15 C          -9.4313  -18.5628   21.3224 C.ar    1  UNL1       -0.0003
     16 C          -7.9787  -18.8649   21.1021 C.ar    1  UNL1       -0.0040
     17 C          -9.9617  -17.4930   23.2901 C.3     1  UNL1        0.0003
     18 C         -10.7161  -17.2813   23.1432 C.3     1  UNL1        0.0043
     19 C         -11.4923  -16.2583   22.3680 C.3     1  UNL1        0.0217
     20 C          -9.9835  -16.2399   22.3197 C.2     1  UNL1       -0.0307
     21 C          -9.3456  -17.3200   23.1422 C.2     1  UNL1       -0.0265
     22 C         -10.2022  -18.2839   23.9084 C.3     1  UNL1        0.0260
     23 C         -11.6966  -18.1677   23.8522 C.3     1  UNL1        0.0047
     24 C         -13.0789  -17.6926   23.5152 C.3     1  UNL1        0.0007
     25 C         -12.9527  -16.5125   22.5979 C.3     1  UNL1        0.0043
@<TRIPOS>BOND
     1    17    18    1
     2    18    19    1
     3    19    20    1
     4    20    21    2
     5    21     1    1
     6     1     2    2
     7     2     3    1
     8     3     4   ar
     9     4     5   ar
    10     5     6   ar
    11     6     7   ar
    12     7     8   ar
    13     8     9    1
    14     9    10    1
    15    10    11    1
    16    11    12   ar
    17    12    13   ar
    18    13    14   ar
    19    14    15   ar
    20    15    16   ar
    21    21    22    1
    22    22    23    1
    23    23    24    1
    24    24    25    1
    25    23    18    1
    26    25    19    1
    27    16     2    1
    28     8     3   ar
    29    16    11   ar
@<TRIPOS>MOLECULE
*****
 25 29 0 0 0
SMALL
GASTEIGER

@<TRIPOS>ATOM
      1 C          -7.2395  -19.1844   21.1063 C.2     1  UNL1       -0.0046
      2 C          -7.9181  -18.2108   22.0237 C.2     1  UNL1       -0.0009
      3 C          -9.4177  -18.2194   21.9875 C.ar    1  UNL1       -0.0040
      4 C          -9.9365  -19.2322   21.0103 C.ar    1  UNL1       -0.0003
      5 C         -11.4147  -19.4022   20.8202 C.ar    1  UNL1       -0.0000
      6 C         -12.3740  -18.5595   21.6073 C.ar    1  UNL1       -0.0003
      7 C         -11.8551  -17.5468   22.5846 C.ar    1  UNL1       -0.0043
      8 C         -10.3770  -17.3767   22.7746 C.ar    1  UNL1       -0.0218
      9 C         -10.0736  -16.3173   23.7924 C.3     1  UNL1        0.0310
     10 C          -8.7361  -15.8390   24.2743 C.3     1  UNL1        0.0310
     11 C          -7.3716  -16.3020   23.8575 C.ar    1  UNL1       -0.0218
     12 C          -6.2935  -15.5580   24.5884 C.ar    1  UNL1       -0.0043
     13 C          -4.8514  -15.8695   24.3177 C.ar    1  UNL1       -0.0003
     14 C          -4.4874  -16.9251   23.3161 C.ar    1  UNL1       -0.0000
     15 C          -5.5654  -17.6691   22.5852 C.ar    1  UNL1       -0.0003
     16 C          -7.0075  -17.3575   22.8559 C.ar    1  UNL1       -0.0040
     17 C          -5.1478  -19.1473   20.8070 C.3     1  UNL1        0.0003
     18 C          -4.3755  -19.2807   20.9530 C.3     1  UNL1        0.0043
     19 C          -3.4954  -19.9268   21.9816 C.3     1  UNL1        0.0217
     20 C          -4.9931  -19.9392   22.1712 C.2     1  UNL1       -0.0307
     21 C          -5.7418  -19.2570   21.0649 C.2     1  UNL1       -0.0265
     22 C          -4.9927  -18.6473   19.9172 C.3     1  UNL1        0.0260
     23 C          -3.4951  -18.7199   19.8759 C.3     1  UNL1        0.0047
     24 C          -2.0708  -19.0194   20.2387 C.3     1  UNL1        0.0007
     25 C          -2.0710  -19.7653   21.5401 C.3     1  UNL1        0.0043
@<TRIPOS>BOND
     1    17    18    1
     2    18    19    1
     3    19    20    1
     4    20    21    2
     5    21     1    1
     6     1     2    2
     7     2     3    1
     8     3     4   ar
     9     4     5   ar
    10     5     6   ar
    11     6     7   ar
    12     7     8   ar
    13     8     9    1
    14     9    10    1
    15    10    11    1
    16    11    12   ar
    17    12    13   ar
    18    13    14   ar
    19    14    15   ar
    20    15    16   ar
    21    21    22    1
    22    22    23    1
    23    23    24    1
    24    24    25    1
    25    23    18    1
    26    25    19    1
    27    16     2    1
    28     8     3   ar
    29    16    11   ar
@<TRIPOS>MOLECULE
*****
 25 29 0 0 0
SMALL
GASTEIGER

@<TRIPOS>ATOM
      1 C         -14.2692   -7.8710   18.6159 C.2     1  UNL1       -0.0046
      2 C         -13.9410   -6.4411   18.9282 C.2     1  UNL1       -0.0009
      3 C         -12.4826   -6.0902   18.9146 C.ar    1  UNL1       -0.0040
      4 C         -11.6353   -7.2821   18.5809 C.ar    1  UNL1       -0.0003
      5 C         -10.1429   -7.1465   18.5149 C.ar    1  UNL1       -0.0000
      6 C          -9.4979   -5.8190   18.7825 C.ar    1  UNL1       -0.0003
      7 C         -10.3452   -4.6271   19.1161 C.ar    1  UNL1       -0.0043
      8 C         -11.8376   -4.7627   19.1822 C.ar    1  UNL1       -0.0218
      9 C         -12.4916   -3.4582   19.5295 C.3     1  UNL1        0.0310
     10 C         -13.9521   -3.1590   19.6949 C.3     1  UNL1        0.0310
     11 C         -15.1194   -4.0905   19.5539 C.ar    1  UNL1       -0.0218
     12 C         -16.4182   -3.3831   19.8041 C.ar    1  UNL1       -0.0043
     13 C         -17.7122   -4.1364   19.7129 C.ar    1  UNL1       -0.0003
     14 C         -17.7073   -5.5970   19.3717 C.ar    1  UNL1       -0.0000
     15 C         -16.4084   -6.3044   19.1216 C.ar    1  UNL1       -0.0003
     16 C         -15.1145   -5.5512   19.2127 C.ar    1  UNL1       -0.0040
     17 C         -16.2759   -8.4656   18.3229 C.3     1  UNL1        0.0003
     18 C         -17.0052   -8.7299   18.5068 C.3     1  UNL1        0.0043
     19 C         -17.7974   -9.1813   19.6979 C.3     1  UNL1        0.0217
     20 C         -16.3616   -8.7512   19.8796 C.2     1  UNL1       -0.0307
     21 C         -15.6983   -8.3269   18.6030 C.2     1  UNL1       -0.0265
     22 C         -16.4639   -8.3585   17.3135 C.3     1  UNL1        0.0260
     23 C         -17.8928   -8.8144   17.3007 C.3     1  UNL1        0.0047
     24 C         -19.2336   -9.3181   17.7463 C.3     1  UNL1        0.0007
     25 C         -19.1746   -9.5448   19.2279 C.3     1  UNL1        0.0043
@<TRIPOS>BOND
     1    17    18    1
     2    18    19    1
     3    19    20    1
     4    20    21    2
     5    21     1    1
     6     1     2    2
     7     2     3    1
     8     3     4   ar
     9     4     5   ar
    10     5     6   ar
    11     6     7   ar
    12     7     8   ar
    13     8     9    1
    14     9    10    1
    15    10    11    1
    16    11    12   ar
    17    12    13   ar
    18    13    14   ar
    19    14    15   ar
    20    15    16   ar
    21    21    22    1
    22    22    23    1
    23    23    24    1
    24    24    25    1
    25    23    18    1
    26    25    19    1
    27    16     2    1
    28     8     3   ar
    29    16    11   ar
@<TRIPOS>MOLECULE
*****
 25 29 0 0 0
SMALL
GASTEIGER

@<TRIPOS>ATOM
      1 C         -11.1775   -2.7634   17.6850 C.2     1  UNL1       -0.0046
      2 C         -12.4898   -2.2781   18.2259 C.2     1  UNL1       -0.0009
      3 C         -12.7960   -0.8291   17.9878 C.ar    1  UNL1       -0.0040
      4 C         -11.6894   -0.1516   17.2353 C.ar    1  UNL1       -0.0003
      5 C         -11.7971    1.3049   16.8934 C.ar    1  UNL1       -0.0000
      6 C         -13.0115    2.0839   17.3039 C.ar    1  UNL1       -0.0003
      7 C         -14.1181    1.4063   18.0563 C.ar    1  UNL1       -0.0043
      8 C         -14.0104   -0.0502   18.3983 C.ar    1  UNL1       -0.0218
      9 C         -15.2185   -0.5279   19.1482 C.3     1  UNL1        0.0310
     10 C         -15.5106   -1.9024   19.6729 C.3     1  UNL1        0.0310
     11 C         -14.6666   -3.1388   19.5772 C.ar    1  UNL1       -0.0218
     12 C         -15.3325   -4.3093   20.2380 C.ar    1  UNL1       -0.0043
     13 C         -14.6540   -5.6470   20.2547 C.ar    1  UNL1       -0.0003
     14 C         -13.3097   -5.8142   19.6108 C.ar    1  UNL1       -0.0000
     15 C         -12.6438   -4.6437   18.9500 C.ar    1  UNL1       -0.0003
     16 C         -13.3223   -3.3061   18.9332 C.ar    1  UNL1       -0.0040
     17 C         -10.4700   -4.6949   18.1696 C.3     1  UNL1        0.0003
     18 C         -10.3621   -5.4822   18.1067 C.3     1  UNL1        0.0043
     19 C         -10.7543   -6.6289   17.2228 C.3     1  UNL1        0.0217
     20 C         -11.2462   -5.2387   16.8991 C.2     1  UNL1       -0.0307
     21 C         -10.7743   -4.1964   17.8690 C.2     1  UNL1       -0.0265
     22 C          -9.8991   -4.5871   19.0229 C.3     1  UNL1        0.0260
     23 C          -9.4960   -6.0201   19.2068 C.3     1  UNL1        0.0047
     24 C          -9.3528   -7.4993   19.0029 C.3     1  UNL1        0.0007
     25 C         -10.1305   -7.8755   17.7767 C.3     1  UNL1        0.0043
@<TRIPOS>BOND
     1    17    18    1
     2    18    19    1
     3    19    20    1
     4    20    21    2
     5    21     1    1
     6     1     2    2
     7     2     3    1
     8     3     4   ar
     9     4     5   ar
    10     5     6   ar
    11     6     7   ar
    12     7     8   ar
    13     8     9    1
    14     9    10    1
    15    10    11    1
    16    11    12   ar
    17    12    13   ar
    18    13    14   ar
    19    14    15   ar
    20    15    16   ar
    21    21    22    1
    22    22    23    1
    23    23    24    1
    24    24    25    1
    25    23    18    1
    26    25    19    1
    27    16     2    1
    28     8     3   ar
    29    16    11   ar
