@<TRIPOS>MOLECULE
*****
 28 31 0 0 0
SMALL
GASTEIGER

@<TRIPOS>ATOM
      1 C          -6.7887  -17.8998   22.8124 C.ar    1  UNL1        0.0912
      2 C          -5.7488  -18.7655   22.1650 C.ar    1  UNL1        0.0466
      3 C          -4.2987  -18.5692   22.4940 C.ar    1  UNL1        0.1631
      4 C          -3.8882  -17.5070   23.4705 C.ar    1  UNL1        0.1193
      5 N          -4.9281  -16.6413   24.1180 N.ar    1  UNL1       -0.2846
      6 C          -4.8256  -15.5221   25.1114 C.ar    1  UNL1        0.1023
      7 C          -6.2125  -15.0268   25.3962 C.ar    1  UNL1        0.1195
      8 N          -7.1721  -15.8398   24.5789 N.ar    1  UNL1       -0.2247
      9 C          -6.3783  -16.8377   23.7889 C.ar    1  UNL1        0.1524
     10 N          -9.2393  -17.0375   22.8416 N.am    1  UNL1       -0.2657
     11 C          -8.2389  -18.0962   22.4833 C.2     1  UNL1        0.2536
     12 O          -8.6888  -19.3513   21.7959 O.2     1  UNL1       -0.2697
     13 H          -8.9441  -16.2137   23.2928 H       1  UNL1        0.1566
     14 C         -14.0699  -18.2375   24.3334 C.3     1  UNL1        0.0521
     15 C         -13.1048  -17.8339   23.2584 C.ar    1  UNL1        0.0608
     16 C         -13.5900  -17.6268   21.8541 C.ar    1  UNL1        0.0148
     17 C         -12.6248  -17.2232   20.7791 C.ar    1  UNL1        0.0041
     18 C         -11.1747  -17.0268   21.1083 C.ar    1  UNL1        0.0345
     19 C         -10.6896  -17.2339   22.5125 C.ar    1  UNL1        0.1340
     20 N         -11.6547  -17.6375   23.5875 N.ar    1  UNL1       -0.2348
     21 O          -3.2588  -19.4349   21.8465 O.3     1  UNL1       -0.4503
     22 C          -2.3979  -18.8806   20.7503 C.ar    1  UNL1        0.1667
     23 C          -2.8881  -18.8931   19.3327 C.ar    1  UNL1        0.1364
     24 N          -2.0273  -18.3387   18.2365 N.ar    1  UNL1       -0.2368
     25 C          -0.6762  -17.7719   18.5579 C.ar    1  UNL1        0.1286
     26 C          -0.1860  -17.7594   19.9755 C.ar    1  UNL1        0.1623
     27 F           1.1651  -17.1926   20.2970 F       1  UNL1       -0.2024
     28 C          -1.0468  -18.3138   21.0717 C.ar    1  UNL1        0.0703
@<TRIPOS>BOND
     1    14    15    1
     2    15    16   ar
     3    16    17   ar
     4    17    18   ar
     5    18    19   ar
     6    19    10    1
     7    10    11   am
     8    11    12    2
     9    11     1    1
    10     1     2   ar
    11     2     3   ar
    12     3    21    1
    13    21    22    1
    14    22    23   ar
    15    23    24   ar
    16    24    25   ar
    17    25    26   ar
    18    26    27    1
    19    26    28   ar
    20     3     4   ar
    21     4     5   ar
    22     5     6   ar
    23     6     7   ar
    24     7     8   ar
    25     8     9   ar
    26    19    20   ar
    27    20    15   ar
    28     9     1   ar
    29    28    22   ar
    30     9     5   ar
    31    10    13    1
@<TRIPOS>MOLECULE
*****
 28 31 0 0 0
SMALL
GASTEIGER

@<TRIPOS>ATOM
      1 C          -6.9228  -16.5113   23.8451 C.ar    1  UNL1        0.0912
      2 C          -5.5517  -16.8901   23.3691 C.ar    1  UNL1        0.0466
      3 C          -4.3676  -16.7076   24.2714 C.ar    1  UNL1        0.1631
      4 C          -4.5544  -16.1463   25.6499 C.ar    1  UNL1        0.1193
      5 N          -5.9255  -15.7675   26.1259 N.ar    1  UNL1       -0.2846
      6 C          -6.4150  -15.1948   27.4230 C.ar    1  UNL1        0.1023
      7 C          -7.9018  -15.0235   27.3222 C.ar    1  UNL1        0.1195
      8 N          -8.3312  -15.4902   25.9628 N.ar    1  UNL1       -0.2247
      9 C          -7.1097  -15.9500   25.2234 C.ar    1  UNL1        0.1524
     10 N          -9.4953  -16.5120   23.4809 N.am    1  UNL1       -0.2657
     11 C          -8.1071  -16.6938   22.9426 C.2     1  UNL1        0.2536
     12 O          -7.9030  -17.0582   21.5019 O.2     1  UNL1       -0.2697
     13 H          -9.6292  -16.2728   24.4265 H       1  UNL1        0.1566
     14 C         -11.9283  -15.5316   18.9955 C.3     1  UNL1        0.0521
     15 C         -11.8959  -16.2044   20.3357 C.ar    1  UNL1        0.0608
     16 C         -13.0478  -17.0597   20.7736 C.ar    1  UNL1        0.0148
     17 C         -13.0155  -17.7324   22.1138 C.ar    1  UNL1        0.0041
     18 C         -11.8313  -17.5498   23.0163 C.ar    1  UNL1        0.0345
     19 C         -10.6795  -16.6945   22.5784 C.ar    1  UNL1        0.1340
     20 N         -10.7118  -16.0218   21.2381 N.ar    1  UNL1       -0.2348
     21 O          -2.9964  -17.0864   23.7954 O.3     1  UNL1       -0.4503
     22 C          -2.8010  -17.5912   22.3965 C.ar    1  UNL1        0.1667
     23 C          -2.1772  -16.7049   21.3595 C.ar    1  UNL1        0.1364
     24 N          -1.9818  -17.2097   19.9606 N.ar    1  UNL1       -0.2368
     25 C          -2.4103  -18.6009   19.5986 C.ar    1  UNL1        0.1286
     26 C          -3.0342  -19.4872   20.6355 C.ar    1  UNL1        0.1623
     27 F          -3.4628  -20.8784   20.2736 F       1  UNL1       -0.2024
     28 C          -3.2296  -18.9824   22.0344 C.ar    1  UNL1        0.0703
@<TRIPOS>BOND
     1    14    15    1
     2    15    16   ar
     3    16    17   ar
     4    17    18   ar
     5    18    19   ar
     6    19    10    1
     7    10    11   am
     8    11    12    2
     9    11     1    1
    10     1     2   ar
    11     2     3   ar
    12     3    21    1
    13    21    22    1
    14    22    23   ar
    15    23    24   ar
    16    24    25   ar
    17    25    26   ar
    18    26    27    1
    19    26    28   ar
    20     3     4   ar
    21     4     5   ar
    22     5     6   ar
    23     6     7   ar
    24     7     8   ar
    25     8     9   ar
    26    19    20   ar
    27    20    15   ar
    28     9     1   ar
    29    28    22   ar
    30     9     5   ar
    31    10    13    1
@<TRIPOS>MOLECULE
*****
 28 31 0 0 0
SMALL
GASTEIGER

@<TRIPOS>ATOM
      1 C          -6.8463  -16.3650   23.8142 C.ar    1  UNL1        0.0912
      2 C          -8.1547  -16.4429   23.0849 C.ar    1  UNL1        0.0466
      3 C          -9.4237  -16.0407   23.7761 C.ar    1  UNL1        0.1631
      4 C          -9.3843  -15.5606   25.1967 C.ar    1  UNL1        0.1193
      5 N          -8.0759  -15.4828   25.9260 N.ar    1  UNL1       -0.2846
      6 C          -7.7280  -15.0522   27.3201 C.ar    1  UNL1        0.1023
      7 C          -6.2440  -15.1882   27.4905 C.ar    1  UNL1        0.1195
      8 N          -5.6746  -15.7029   26.2017 N.ar    1  UNL1       -0.2247
      9 C          -6.8069  -15.8850   25.2348 C.ar    1  UNL1        0.1524
     10 N          -5.5077  -18.0685   22.3802 N.am    1  UNL1       -0.2657
     11 C          -5.5772  -16.7672   23.1230 C.2     1  UNL1        0.2536
     12 O          -4.3776  -15.8680   23.1745 O.2     1  UNL1       -0.2697
     13 H          -6.2950  -18.6587   22.3464 H       1  UNL1        0.1566
     14 C          -2.1734  -17.5417   18.4299 C.3     1  UNL1        0.0521
     15 C          -2.5715  -18.2073   19.7139 C.ar    1  UNL1        0.0608
     16 C          -1.7004  -19.2750   20.3067 C.ar    1  UNL1        0.0148
     17 C          -2.0985  -19.9405   21.5907 C.ar    1  UNL1        0.0041
     18 C          -3.3676  -19.5383   22.2818 C.ar    1  UNL1        0.0345
     19 C          -4.2386  -18.4706   21.6890 C.ar    1  UNL1        0.1340
     20 N          -3.8405  -17.8051   20.4050 N.ar    1  UNL1       -0.2348
     21 O         -10.7322  -16.1186   23.0467 O.3     1  UNL1       -0.4503
     22 C         -10.9017  -17.0842   21.9114 C.ar    1  UNL1        0.1667
     23 C         -11.0051  -16.5762   20.5038 C.ar    1  UNL1        0.1364
     24 N         -11.1747  -17.5418   19.3686 N.ar    1  UNL1       -0.2368
     25 C         -11.2407  -19.0154   19.6408 C.ar    1  UNL1        0.1286
     26 C         -11.1372  -19.5234   21.0484 C.ar    1  UNL1        0.1623
     27 F         -11.2033  -20.9970   21.3208 F       1  UNL1       -0.2024
     28 C         -10.9677  -18.5577   22.1837 C.ar    1  UNL1        0.0703
@<TRIPOS>BOND
     1    14    15    1
     2    15    16   ar
     3    16    17   ar
     4    17    18   ar
     5    18    19   ar
     6    19    10    1
     7    10    11   am
     8    11    12    2
     9    11     1    1
    10     1     2   ar
    11     2     3   ar
    12     3    21    1
    13    21    22    1
    14    22    23   ar
    15    23    24   ar
    16    24    25   ar
    17    25    26   ar
    18    26    27    1
    19    26    28   ar
    20     3     4   ar
    21     4     5   ar
    22     5     6   ar
    23     6     7   ar
    24     7     8   ar
    25     8     9   ar
    26    19    20   ar
    27    20    15   ar
    28     9     1   ar
    29    28    22   ar
    30     9     5   ar
    31    10    13    1
@<TRIPOS>MOLECULE
*****
 28 31 0 0 0
SMALL
GASTEIGER

@<TRIPOS>ATOM
      1 C          -7.3343  -16.3381   23.8664 C.ar    1  UNL1        0.0912
      2 C          -6.0451  -16.3269   23.0997 C.ar    1  UNL1        0.0466
      3 C          -4.7846  -15.8513   23.7588 C.ar    1  UNL1        0.1631
      4 C          -4.8131  -15.3867   25.1849 C.ar    1  UNL1        0.1193
      5 N          -6.1022  -15.3978   25.9516 N.ar    1  UNL1       -0.2846
      6 C          -6.4361  -15.0018   27.3593 C.ar    1  UNL1        0.1023
      7 C          -7.9032  -15.2328   27.5701 C.ar    1  UNL1        0.1195
      8 N          -8.4759  -15.7715   26.2927 N.ar    1  UNL1       -0.2247
      9 C          -7.3628  -15.8735   25.2924 C.ar    1  UNL1        0.1524
     10 N          -9.9207  -16.5838   23.8700 N.am    1  UNL1       -0.2657
     11 C          -8.5949  -16.8138   23.2072 C.2     1  UNL1        0.2536
     12 O          -8.5297  -17.5195   21.8851 O.2     1  UNL1       -0.2697
     13 H          -9.9636  -16.1206   24.7377 H       1  UNL1        0.1566
     14 C         -14.7559  -18.4532   24.2254 C.3     1  UNL1        0.0521
     15 C         -13.5989  -17.9942   23.3884 C.ar    1  UNL1        0.0608
     16 C         -13.7024  -18.0110   21.8920 C.ar    1  UNL1        0.0148
     17 C         -12.5453  -17.5520   21.0551 C.ar    1  UNL1        0.0041
     18 C         -11.2848  -17.0763   21.7144 C.ar    1  UNL1        0.0345
     19 C         -11.1813  -17.0596   23.2108 C.ar    1  UNL1        0.1340
     20 N         -12.3384  -17.5185   24.0477 N.ar    1  UNL1       -0.2348
     21 O          -3.4954  -15.8401   22.9920 O.3     1  UNL1       -0.4503
     22 C          -3.0337  -17.0788   22.2830 C.ar    1  UNL1        0.1667
     23 C          -3.5388  -18.4231   22.7160 C.ar    1  UNL1        0.1364
     24 N          -3.0772  -19.6618   22.0070 N.ar    1  UNL1       -0.2368
     25 C          -2.1104  -19.5561   20.8650 C.ar    1  UNL1        0.1286
     26 C          -1.6052  -18.2117   20.4321 C.ar    1  UNL1        0.1623
     27 F          -0.6384  -18.1058   19.2901 F       1  UNL1       -0.2024
     28 C          -2.0669  -16.9730   21.1411 C.ar    1  UNL1        0.0703
@<TRIPOS>BOND
     1    14    15    1
     2    15    16   ar
     3    16    17   ar
     4    17    18   ar
     5    18    19   ar
     6    19    10    1
     7    10    11   am
     8    11    12    2
     9    11     1    1
    10     1     2   ar
    11     2     3   ar
    12     3    21    1
    13    21    22    1
    14    22    23   ar
    15    23    24   ar
    16    24    25   ar
    17    25    26   ar
    18    26    27    1
    19    26    28   ar
    20     3     4   ar
    21     4     5   ar
    22     5     6   ar
    23     6     7   ar
    24     7     8   ar
    25     8     9   ar
    26    19    20   ar
    27    20    15   ar
    28     9     1   ar
    29    28    22   ar
    30     9     5   ar
    31    10    13    1
@<TRIPOS>MOLECULE
*****
 28 31 0 0 0
SMALL
GASTEIGER

@<TRIPOS>ATOM
      1 C          -8.1020  -17.9239   21.5806 C.ar    1  UNL1        0.0912
      2 C          -8.1809  -17.0962   22.8290 C.ar    1  UNL1        0.0466
      3 C          -9.5162  -16.6700   23.3631 C.ar    1  UNL1        0.1631
      4 C         -10.7726  -17.0715   22.6489 C.ar    1  UNL1        0.1193
      5 N         -10.6937  -17.8992   21.4004 N.ar    1  UNL1       -0.2846
      6 C         -11.7529  -18.4425   20.4878 C.ar    1  UNL1        0.1023
      7 C         -11.0722  -19.2044   19.3895 C.ar    1  UNL1        0.1195
      8 N          -9.5923  -19.1321   19.6235 N.ar    1  UNL1       -0.2247
      9 C          -9.3584  -18.3254   20.8663 C.ar    1  UNL1        0.1524
     10 N          -5.5318  -18.1613   21.8767 N.am    1  UNL1       -0.2657
     11 C          -6.7667  -18.3501   21.0464 C.2     1  UNL1        0.2536
     12 O          -6.6663  -18.9651   19.6819 O.2     1  UNL1       -0.2697
     13 H          -5.5977  -17.7576   22.7722 H       1  UNL1        0.1566
     14 C          -1.7845  -17.7733   18.2980 C.3     1  UNL1        0.0521
     15 C          -2.3229  -18.3935   19.5532 C.ar    1  UNL1        0.0608
     16 C          -1.5259  -19.4401   20.2742 C.ar    1  UNL1        0.0148
     17 C          -2.0643  -20.0603   21.5293 C.ar    1  UNL1        0.0041
     18 C          -3.3996  -19.6340   22.0635 C.ar    1  UNL1        0.0345
     19 C          -4.1965  -18.5875   21.3425 C.ar    1  UNL1        0.1340
     20 N          -3.6581  -17.9673   20.0873 N.ar    1  UNL1       -0.2348
     21 O          -9.5951  -15.8422   24.6117 O.3     1  UNL1       -0.4503
     22 C          -8.4631  -15.8594   25.5957 C.ar    1  UNL1        0.1667
     23 C          -8.6288  -16.5486   26.9176 C.ar    1  UNL1        0.1364
     24 N          -7.4968  -16.5658   27.9016 N.ar    1  UNL1       -0.2368
     25 C          -6.1990  -15.8937   27.5637 C.ar    1  UNL1        0.1286
     26 C          -6.0333  -15.2044   26.2418 C.ar    1  UNL1        0.1623
     27 F          -4.7356  -14.5323   25.9038 F       1  UNL1       -0.2024
     28 C          -7.1653  -15.1873   25.2578 C.ar    1  UNL1        0.0703
@<TRIPOS>BOND
     1    14    15    1
     2    15    16   ar
     3    16    17   ar
     4    17    18   ar
     5    18    19   ar
     6    19    10    1
     7    10    11   am
     8    11    12    2
     9    11     1    1
    10     1     2   ar
    11     2     3   ar
    12     3    21    1
    13    21    22    1
    14    22    23   ar
    15    23    24   ar
    16    24    25   ar
    17    25    26   ar
    18    26    27    1
    19    26    28   ar
    20     3     4   ar
    21     4     5   ar
    22     5     6   ar
    23     6     7   ar
    24     7     8   ar
    25     8     9   ar
    26    19    20   ar
    27    20    15   ar
    28     9     1   ar
    29    28    22   ar
    30     9     5   ar
    31    10    13    1
@<TRIPOS>MOLECULE
*****
 28 31 0 0 0
SMALL
GASTEIGER

@<TRIPOS>ATOM
      1 C         -13.4450   -5.0921   18.5502 C.ar    1  UNL1        0.0912
      2 C         -13.7997   -3.6347   18.5483 C.ar    1  UNL1        0.0466
      3 C         -12.7269   -2.6015   18.7248 C.ar    1  UNL1        0.1631
      4 C         -11.2991   -3.0256   18.9033 C.ar    1  UNL1        0.1193
      5 N         -10.9444   -4.4830   18.9052 N.ar    1  UNL1       -0.2846
      6 C          -9.6341   -5.1969   19.0588 C.ar    1  UNL1        0.1023
      7 C          -9.8973   -6.6713   18.9772 C.ar    1  UNL1        0.1195
      8 N         -11.3702   -6.8688   18.7732 N.ar    1  UNL1       -0.2247
      9 C         -12.0174   -5.5163   18.7287 C.ar    1  UNL1        0.1524
     10 N         -14.6231   -7.2697   19.3378 N.am    1  UNL1       -0.2657
     11 C         -14.5180   -6.1254   18.3737 C.2     1  UNL1        0.2536
     12 O         -15.4858   -6.0144   17.2329 O.2     1  UNL1       -0.2697
     13 H         -13.9880   -7.3426   20.0864 H       1  UNL1        0.1566
     14 C         -19.4767   -8.9107   20.2041 C.3     1  UNL1        0.0521
     15 C         -18.1228   -9.1234   19.5943 C.ar    1  UNL1        0.0608
     16 C         -17.8419  -10.3695   18.8078 C.ar    1  UNL1        0.0148
     17 C         -16.4881  -10.5822   18.1980 C.ar    1  UNL1        0.0041
     18 C         -15.4152   -9.5490   18.3747 C.ar    1  UNL1        0.0345
     19 C         -15.6961   -8.3030   19.1611 C.ar    1  UNL1        0.1340
     20 N         -17.0500   -8.0902   19.7709 N.ar    1  UNL1       -0.2348
     21 O         -13.0816   -1.1439   18.7229 O.3     1  UNL1       -0.4503
     22 C         -14.5084   -0.7196   18.5378 C.ar    1  UNL1        0.1667
     23 C         -15.0004   -0.3151   17.1798 C.ar    1  UNL1        0.1364
     24 N         -16.4272    0.1093   16.9947 N.ar    1  UNL1       -0.2368
     25 C         -17.3619    0.1292   18.1676 C.ar    1  UNL1        0.1286
     26 C         -16.8699   -0.2753   19.5257 C.ar    1  UNL1        0.1623
     27 F         -17.8046   -0.2554   20.6988 F       1  UNL1       -0.2024
     28 C         -15.4432   -0.6997   19.7108 C.ar    1  UNL1        0.0703
@<TRIPOS>BOND
     1    14    15    1
     2    15    16   ar
     3    16    17   ar
     4    17    18   ar
     5    18    19   ar
     6    19    10    1
     7    10    11   am
     8    11    12    2
     9    11     1    1
    10     1     2   ar
    11     2     3   ar
    12     3    21    1
    13    21    22    1
    14    22    23   ar
    15    23    24   ar
    16    24    25   ar
    17    25    26   ar
    18    26    27    1
    19    26    28   ar
    20     3     4   ar
    21     4     5   ar
    22     5     6   ar
    23     6     7   ar
    24     7     8   ar
    25     8     9   ar
    26    19    20   ar
    27    20    15   ar
    28     9     1   ar
    29    28    22   ar
    30     9     5   ar
    31    10    13    1
@<TRIPOS>MOLECULE
*****
 28 31 0 0 0
SMALL
GASTEIGER

@<TRIPOS>ATOM
      1 C           3.0491    0.9592   32.9504 C.ar    1  UNL1        0.0912
      2 C           3.0562    1.6922   34.2591 C.ar    1  UNL1        0.0466
      3 C           4.0618    1.3352   35.3132 C.ar    1  UNL1        0.1631
      4 C           5.0604    0.2452   35.0587 C.ar    1  UNL1        0.1193
      5 N           5.0533   -0.4878   33.7500 N.ar    1  UNL1       -0.2846
      6 C           5.9084   -1.5991   33.2174 C.ar    1  UNL1        0.1023
      7 C           5.4313   -1.9289   31.8341 C.ar    1  UNL1        0.1195
      8 N           4.2812   -1.0215   31.5118 N.ar    1  UNL1       -0.2247
      9 C           4.0476   -0.1308   32.6959 C.ar    1  UNL1        0.1524
     10 N           2.1691    0.7442   30.5154 N.am    1  UNL1       -0.2657
     11 C           2.0434    1.3163   31.8963 C.2     1  UNL1        0.2536
     12 O           0.9120    2.2454   32.2231 O.2     1  UNL1       -0.2697
     13 H           2.9116    0.1344   30.3009 H       1  UNL1        0.1566
     14 C           0.2245    4.1708   27.1277 C.3     1  UNL1        0.0521
     15 C           0.1911    2.8145   27.7675 C.ar    1  UNL1        0.0608
     16 C          -0.8481    1.8152   27.3531 C.ar    1  UNL1        0.0148
     17 C          -0.8815    0.4590   27.9929 C.ar    1  UNL1        0.0041
     18 C           0.1243    0.1020   29.0470 C.ar    1  UNL1        0.0345
     19 C           1.1634    1.1013   29.4613 C.ar    1  UNL1        0.1340
     20 N           1.1968    2.4575   28.8215 N.ar    1  UNL1       -0.2348
     21 O           4.0689    2.0683   36.6219 O.3     1  UNL1       -0.4503
     22 C           2.8710    2.0065   37.5227 C.ar    1  UNL1        0.1667
     23 C           1.9231    3.1670   37.5907 C.ar    1  UNL1        0.1364
     24 N           0.7253    3.1052   38.4914 N.ar    1  UNL1       -0.2368
     25 C           0.4753    1.8829   39.3242 C.ar    1  UNL1        0.1286
     26 C           1.4232    0.7224   39.2561 C.ar    1  UNL1        0.1623
     27 F           1.1733   -0.5000   40.0888 F       1  UNL1       -0.2024
     28 C           2.6211    0.7842   38.3554 C.ar    1  UNL1        0.0703
@<TRIPOS>BOND
     1    14    15    1
     2    15    16   ar
     3    16    17   ar
     4    17    18   ar
     5    18    19   ar
     6    19    10    1
     7    10    11   am
     8    11    12    2
     9    11     1    1
    10     1     2   ar
    11     2     3   ar
    12     3    21    1
    13    21    22    1
    14    22    23   ar
    15    23    24   ar
    16    24    25   ar
    17    25    26   ar
    18    26    27    1
    19    26    28   ar
    20     3     4   ar
    21     4     5   ar
    22     5     6   ar
    23     6     7   ar
    24     7     8   ar
    25     8     9   ar
    26    19    20   ar
    27    20    15   ar
    28     9     1   ar
    29    28    22   ar
    30     9     5   ar
    31    10    13    1
@<TRIPOS>MOLECULE
*****
 28 31 0 0 0
SMALL
GASTEIGER

@<TRIPOS>ATOM
      1 C         -16.3059   -7.1167   18.9198 C.ar    1  UNL1        0.0912
      2 C         -17.2679   -6.0347   19.3117 C.ar    1  UNL1        0.0466
      3 C         -18.6952   -6.3761   19.6212 C.ar    1  UNL1        0.1631
      4 C         -19.1607   -7.7998   19.5388 C.ar    1  UNL1        0.1193
      5 N         -18.1987   -8.8818   19.1468 N.ar    1  UNL1       -0.2846
      6 C         -18.3672  -10.3632   18.9820 C.ar    1  UNL1        0.1023
      7 C         -17.0438  -10.9372   18.5706 C.ar    1  UNL1        0.1195
      8 N         -16.0575   -9.8106   18.4812 N.ar    1  UNL1       -0.2247
      9 C         -16.7713   -8.5403   18.8373 C.ar    1  UNL1        0.1524
     10 N         -13.9983   -6.1935   19.6765 N.am    1  UNL1       -0.2657
     11 C         -14.8784   -6.7752   18.6102 C.2     1  UNL1        0.2536
     12 O         -14.3312   -7.0153   17.2343 O.2     1  UNL1       -0.2697
     13 H         -14.3574   -6.0359   20.5795 H       1  UNL1        0.1566
     14 C          -9.1094   -7.6950   18.7573 C.3     1  UNL1        0.0521
     15 C         -10.1265   -6.6027   18.9073 C.ar    1  UNL1        0.0608
     16 C          -9.7160   -5.1688   18.7476 C.ar    1  UNL1        0.0148
     17 C         -10.7330   -4.0765   18.8976 C.ar    1  UNL1        0.0041
     18 C         -12.1604   -4.4181   19.2072 C.ar    1  UNL1        0.0345
     19 C         -12.5708   -5.8520   19.3669 C.ar    1  UNL1        0.1340
     20 N         -11.5538   -6.9443   19.2169 N.ar    1  UNL1       -0.2348
     21 O         -19.6573   -5.2940   20.0132 O.3     1  UNL1       -0.4503
     22 C         -19.4564   -3.8944   19.5126 C.ar    1  UNL1        0.1667
     23 C         -19.9400   -3.5101   18.1457 C.ar    1  UNL1        0.1364
     24 N         -19.7390   -2.1104   17.6451 N.ar    1  UNL1       -0.2368
     25 C         -19.0545   -1.0951   18.5113 C.ar    1  UNL1        0.1286
     26 C         -18.5710   -1.4793   19.8783 C.ar    1  UNL1        0.1623
     27 F         -17.8864   -0.4640   20.7447 F       1  UNL1       -0.2024
     28 C         -18.7719   -2.8790   20.3789 C.ar    1  UNL1        0.0703
@<TRIPOS>BOND
     1    14    15    1
     2    15    16   ar
     3    16    17   ar
     4    17    18   ar
     5    18    19   ar
     6    19    10    1
     7    10    11   am
     8    11    12    2
     9    11     1    1
    10     1     2   ar
    11     2     3   ar
    12     3    21    1
    13    21    22    1
    14    22    23   ar
    15    23    24   ar
    16    24    25   ar
    17    25    26   ar
    18    26    27    1
    19    26    28   ar
    20     3     4   ar
    21     4     5   ar
    22     5     6   ar
    23     6     7   ar
    24     7     8   ar
    25     8     9   ar
    26    19    20   ar
    27    20    15   ar
    28     9     1   ar
    29    28    22   ar
    30     9     5   ar
    31    10    13    1
@<TRIPOS>MOLECULE
*****
 28 31 0 0 0
SMALL
GASTEIGER

@<TRIPOS>ATOM
      1 C          -6.8098  -16.7696   23.5968 C.ar    1  UNL1        0.0912
      2 C          -8.2569  -16.8824   23.2184 C.ar    1  UNL1        0.0466
      3 C          -9.3098  -16.2590   24.0859 C.ar    1  UNL1        0.1631
      4 C          -8.9157  -15.5228   25.3321 C.ar    1  UNL1        0.1193
      5 N          -7.4686  -15.4101   25.7105 N.ar    1  UNL1       -0.2846
      6 C          -6.7830  -14.7513   26.8707 C.ar    1  UNL1        0.1023
      7 C          -5.3063  -14.9676   26.7200 C.ar    1  UNL1        0.1195
      8 N          -5.0793  -15.7600   25.4668 N.ar    1  UNL1       -0.2247
      9 C          -6.4157  -16.0335   24.8429 C.ar    1  UNL1        0.1524
     10 N          -4.3053  -17.1601   23.0267 N.am    1  UNL1       -0.2657
     11 C          -5.7569  -17.3930   22.7292 C.2     1  UNL1        0.2536
     12 O          -6.1557  -18.2494   21.5639 O.2     1  UNL1       -0.2697
     13 H          -4.0436  -16.5981   23.7915 H       1  UNL1        0.1566
     14 C          -0.1346  -16.6823   19.9646 C.3     1  UNL1        0.0521
     15 C          -1.1672  -17.5447   20.6280 C.ar    1  UNL1        0.0608
     16 C          -1.1469  -19.0306   20.4237 C.ar    1  UNL1        0.0148
     17 C          -2.1794  -19.8930   21.0871 C.ar    1  UNL1        0.0041
     18 C          -3.2322  -19.2694   21.9548 C.ar    1  UNL1        0.0345
     19 C          -3.2525  -17.7836   22.1590 C.ar    1  UNL1        0.1340
     20 N          -2.2199  -16.9212   21.4956 N.ar    1  UNL1       -0.2348
     21 O         -10.7569  -16.3717   23.7074 O.3     1  UNL1       -0.4503
     22 C         -11.1385  -16.8074   22.3237 C.ar    1  UNL1        0.1667
     23 C         -11.4752  -18.2444   22.0560 C.ar    1  UNL1        0.1364
     24 N         -11.8568  -18.6801   20.6723 N.ar    1  UNL1       -0.2368
     25 C         -11.9017  -17.6789   19.5564 C.ar    1  UNL1        0.1286
     26 C         -11.5651  -16.2419   19.8241 C.ar    1  UNL1        0.1623
     27 F         -11.6100  -15.2404   18.7082 F       1  UNL1       -0.2024
     28 C         -11.1835  -15.8062   21.2078 C.ar    1  UNL1        0.0703
@<TRIPOS>BOND
     1    14    15    1
     2    15    16   ar
     3    16    17   ar
     4    17    18   ar
     5    18    19   ar
     6    19    10    1
     7    10    11   am
     8    11    12    2
     9    11     1    1
    10     1     2   ar
    11     2     3   ar
    12     3    21    1
    13    21    22    1
    14    22    23   ar
    15    23    24   ar
    16    24    25   ar
    17    25    26   ar
    18    26    27    1
    19    26    28   ar
    20     3     4   ar
    21     4     5   ar
    22     5     6   ar
    23     6     7   ar
    24     7     8   ar
    25     8     9   ar
    26    19    20   ar
    27    20    15   ar
    28     9     1   ar
    29    28    22   ar
    30     9     5   ar
    31    10    13    1
