@<TRIPOS>MOLECULE
*****
 38 41 0 0 0
SMALL
GASTEIGER

@<TRIPOS>ATOM
      1 N          -5.4495  -15.1242   22.9061 N.am    1  UNL1       -0.2683
      2 C          -4.3871  -16.1631   22.7009 C.2     1  UNL1        0.3045
      3 O          -4.6993  -17.6115   22.9352 O.2     1  UNL1       -0.2525
      4 N          -3.0127  -15.7537   22.2613 N.am    1  UNL1       -0.2887
      5 H          -5.2447  -14.1736   22.7523 H       1  UNL1        0.1564
      6 H          -2.8079  -14.8031   22.1075 H       1  UNL1        0.1510
      7 C          -8.4657  -16.2413   25.2309 C.ar    1  UNL1        0.0360
      8 C          -7.0913  -15.8318   24.7913 C.ar    1  UNL1        0.0176
      9 C          -6.8240  -15.5337   23.3457 C.ar    1  UNL1        0.0518
     10 C          -7.9311  -15.6450   22.3398 C.ar    1  UNL1        0.0178
     11 C          -9.3055  -16.0545   22.7794 C.ar    1  UNL1        0.0387
     12 C          -9.5728  -16.3526   24.2249 C.ar    1  UNL1        0.0060
     13 C         -10.4126  -16.1659   21.7734 C.ar    1  UNL1        0.1839
     14 N         -10.3150  -15.8318   20.3143 N.ar    1  UNL1       -0.1081
     15 N         -11.6537  -16.0903   19.6890 N.ar    1  UNL1       -0.0227
     16 N         -12.5787  -16.5841   20.7617 N.ar    1  UNL1       -0.0429
     17 N         -11.8117  -16.6308   22.0499 N.ar    1  UNL1       -0.2113
     18 C         -12.3493  -17.0660   23.3809 C.3     1  UNL1        0.1573
     19 C          -8.4964  -15.4844   27.7160 C.3     1  UNL1        0.0773
     20 C          -8.7331  -16.5394   26.6764 C.2     1  UNL1        0.1735
     21 O          -9.2371  -17.8926   27.0824 O.2     1  UNL1       -0.2913
     22 C          -1.9504  -16.7925   22.0561 C.3     1  UNL1        0.0924
     23 C          -1.5802  -17.2226   20.6675 C.3     1  UNL1        0.0386
     24 C          -2.6511  -17.4475   19.6415 C.3     1  UNL1        0.0738
     25 N          -3.6306  -18.5704   19.8136 N.3     1  UNL1       -0.2726
     26 C          -3.1394  -19.9531   20.1250 C.3     1  UNL1        0.0721
     27 C          -4.1189  -21.0759   20.2970 C.3     1  UNL1        0.0174
     28 C          -5.5897  -20.8162   20.1576 C.3     1  UNL1        0.0031
     29 C          -6.0809  -19.4335   19.8462 C.3     1  UNL1        0.0204
     30 C          -5.1013  -18.3106   19.6742 C.3     1  UNL1        0.0724
     31 C          -7.5517  -19.1738   19.7068 C.3     1  UNL1        0.0277
     32 C          -8.4734  -19.4437   20.8589 C.ar    1  UNL1       -0.0220
     33 C          -9.9336  -19.6815   20.6115 C.ar    1  UNL1       -0.0020
     34 C         -10.8554  -19.9515   21.7637 C.ar    1  UNL1        0.0293
     35 C         -10.3169  -19.9837   23.1633 C.ar    1  UNL1        0.1401
     36 F         -11.2387  -20.2537   24.3155 F       1  UNL1       -0.2042
     37 C          -8.8567  -19.7459   23.4108 C.ar    1  UNL1        0.0293
     38 C          -7.9349  -19.4760   22.2587 C.ar    1  UNL1       -0.0020
@<TRIPOS>BOND
     1    19    20    1
     2    20    21    2
     3    20     7    1
     4     7     8   ar
     5     8     9   ar
     6     9     1    1
     7     1     2   am
     8     2     3    2
     9     2     4   am
    10     4    22    1
    11    22    23    1
    12    23    24    1
    13    24    25    1
    14    25    26    1
    15    26    27    1
    16    27    28    1
    17    28    29    1
    18    29    31    1
    19    31    32    1
    20    32    33   ar
    21    33    34   ar
    22    34    35   ar
    23    35    36    1
    24    35    37   ar
    25    37    38   ar
    26    29    30    1
    27     9    10   ar
    28    10    11   ar
    29    11    13    1
    30    13    14   ar
    31    14    15   ar
    32    15    16   ar
    33    16    17   ar
    34    17    18    1
    35    11    12   ar
    36    12     7   ar
    37    30    25    1
    38    17    13   ar
    39    38    32   ar
    40     1     5    1
    41     4     6    1
@<TRIPOS>MOLECULE
*****
 38 41 0 0 0
SMALL
GASTEIGER

@<TRIPOS>ATOM
      1 N          -4.8893  -20.3074   20.4963 N.am    1  UNL1       -0.2683
      2 C          -4.0818  -19.2553   19.7955 C.2     1  UNL1        0.3045
      3 O          -4.7681  -18.0828   19.1596 O.2     1  UNL1       -0.2525
      4 N          -2.5881  -19.3758   19.7304 N.am    1  UNL1       -0.2887
      5 H          -4.4389  -21.0769   20.9136 H       1  UNL1        0.1564
      6 H          -2.1377  -20.1454   20.1477 H       1  UNL1        0.1510
      7 C          -8.7003  -20.2705   19.3894 C.ar    1  UNL1        0.0360
      8 C          -7.2065  -20.3910   19.3244 C.ar    1  UNL1        0.0176
      9 C          -6.3831  -20.1869   20.5614 C.ar    1  UNL1        0.0518
     10 C          -7.0533  -19.8622   21.8634 C.ar    1  UNL1        0.0178
     11 C          -8.5470  -19.7417   21.9284 C.ar    1  UNL1        0.0387
     12 C          -9.3705  -19.9459   20.6914 C.ar    1  UNL1        0.0060
     13 C          -9.2174  -19.4170   23.2305 C.ar    1  UNL1        0.1839
     14 N          -9.2579  -20.2967   24.4447 N.ar    1  UNL1       -0.1081
     15 N         -10.0304  -19.5791   25.5116 N.ar    1  UNL1       -0.0227
     16 N         -10.4673  -18.2557   24.9566 N.ar    1  UNL1       -0.0429
     17 N          -9.9648  -18.1555   23.5469 N.ar    1  UNL1       -0.2113
     18 C         -10.1732  -16.9973   22.6168 C.3     1  UNL1        0.1573
     19 C          -9.0217  -21.3669   17.0560 C.3     1  UNL1        0.0773
     20 C          -9.5237  -20.4747   18.1523 C.2     1  UNL1        0.1735
     21 O         -10.8492  -19.7868   18.0117 O.2     1  UNL1       -0.2913
     22 C          -1.7806  -18.3238   19.0295 C.3     1  UNL1        0.0924
     23 C          -0.6520  -17.6434   19.7460 C.3     1  UNL1        0.0386
     24 C          -0.9431  -16.6541   20.8353 C.3     1  UNL1        0.0738
     25 N          -2.0292  -16.9333   21.8314 N.3     1  UNL1       -0.2726
     26 C          -2.1295  -18.2857   22.4724 C.3     1  UNL1        0.0721
     27 C          -3.2156  -18.5650   23.4685 C.3     1  UNL1        0.0174
     28 C          -4.2017  -17.4917   23.8236 C.3     1  UNL1        0.0031
     29 C          -4.1015  -16.1393   23.1825 C.3     1  UNL1        0.0204
     30 C          -3.0152  -15.8601   22.1864 C.3     1  UNL1        0.0724
     31 C          -5.0874  -15.0661   23.5375 C.3     1  UNL1        0.0277
     32 C          -6.0281  -15.2631   24.6891 C.ar    1  UNL1       -0.0220
     33 C          -5.4909  -15.3815   26.0846 C.ar    1  UNL1       -0.0020
     34 C          -6.4316  -15.5785   27.2363 C.ar    1  UNL1        0.0293
     35 C          -7.9096  -15.6571   26.9924 C.ar    1  UNL1        0.1401
     36 F          -8.8503  -15.8541   28.1440 F       1  UNL1       -0.2042
     37 C          -8.4468  -15.5388   25.5969 C.ar    1  UNL1        0.0293
     38 C          -7.5061  -15.3418   24.4453 C.ar    1  UNL1       -0.0020
@<TRIPOS>BOND
     1    19    20    1
     2    20    21    2
     3    20     7    1
     4     7     8   ar
     5     8     9   ar
     6     9     1    1
     7     1     2   am
     8     2     3    2
     9     2     4   am
    10     4    22    1
    11    22    23    1
    12    23    24    1
    13    24    25    1
    14    25    26    1
    15    26    27    1
    16    27    28    1
    17    28    29    1
    18    29    31    1
    19    31    32    1
    20    32    33   ar
    21    33    34   ar
    22    34    35   ar
    23    35    36    1
    24    35    37   ar
    25    37    38   ar
    26    29    30    1
    27     9    10   ar
    28    10    11   ar
    29    11    13    1
    30    13    14   ar
    31    14    15   ar
    32    15    16   ar
    33    16    17   ar
    34    17    18    1
    35    11    12   ar
    36    12     7   ar
    37    30    25    1
    38    17    13   ar
    39    38    32   ar
    40     1     5    1
    41     4     6    1
@<TRIPOS>MOLECULE
*****
 38 41 0 0 0
SMALL
GASTEIGER

@<TRIPOS>ATOM
      1 N          -5.5512  -20.0650   21.3918 N.am    1  UNL1       -0.2683
      2 C          -4.7610  -19.2513   20.4103 C.2     1  UNL1        0.3045
      3 O          -5.3307  -17.9765   19.8623 O.2     1  UNL1       -0.2525
      4 N          -3.4011  -19.7124   19.9767 N.am    1  UNL1       -0.2887
      5 H          -5.1773  -20.9017   21.7515 H       1  UNL1        0.1564
      6 H          -3.0272  -20.5491   20.3364 H       1  UNL1        0.1510
      7 C          -8.9601  -19.8161   23.4087 C.ar    1  UNL1        0.0360
      8 C          -7.6002  -20.2772   22.9751 C.ar    1  UNL1        0.0176
      9 C          -6.9112  -19.6039   21.8254 C.ar    1  UNL1        0.0518
     10 C          -7.5821  -18.4694   21.1092 C.ar    1  UNL1        0.0178
     11 C          -8.9420  -18.0083   21.5428 C.ar    1  UNL1        0.0387
     12 C          -9.6310  -18.6817   22.6925 C.ar    1  UNL1        0.0060
     13 C          -9.6129  -16.8738   20.8266 C.ar    1  UNL1        0.1839
     14 N          -9.2589  -15.4214   20.9492 N.ar    1  UNL1       -0.1081
     15 N         -10.1828  -14.6425   20.0605 N.ar    1  UNL1       -0.0227
     16 N         -11.1079  -15.6136   19.3888 N.ar    1  UNL1       -0.0429
     17 N         -10.7557  -16.9927   19.8623 N.ar    1  UNL1       -0.2113
     18 C         -11.4281  -18.2668   19.4447 C.3     1  UNL1        0.1573
     19 C         -10.7385  -19.7755   25.3022 C.3     1  UNL1        0.0773
     20 C          -9.6491  -20.4895   24.5584 C.2     1  UNL1        0.1735
     21 O          -9.2487  -21.8768   24.9644 O.2     1  UNL1       -0.2913
     22 C          -2.6109  -18.8987   18.9951 C.3     1  UNL1        0.0924
     23 C          -1.3434  -18.2239   19.4289 C.3     1  UNL1        0.0386
     24 C          -1.3925  -17.1082   20.4303 C.3     1  UNL1        0.0738
     25 N          -2.2396  -17.2418   21.6610 N.3     1  UNL1       -0.2726
     26 C          -2.0705  -18.4285   22.5626 C.3     1  UNL1        0.0721
     27 C          -2.9176  -18.5621   23.7933 C.3     1  UNL1        0.0174
     28 C          -3.9338  -17.5089   24.1224 C.3     1  UNL1        0.0031
     29 C          -4.1028  -16.3221   23.2207 C.3     1  UNL1        0.0204
     30 C          -3.2556  -16.1886   21.9900 C.3     1  UNL1        0.0724
     31 C          -5.1189  -15.2689   23.5497 C.3     1  UNL1        0.0277
     32 C          -6.0702  -15.4752   24.6909 C.ar    1  UNL1       -0.0220
     33 C          -5.6401  -15.1585   26.0926 C.ar    1  UNL1       -0.0020
     34 C          -6.5915  -15.3648   27.2338 C.ar    1  UNL1        0.0293
     35 C          -7.9731  -15.8877   26.9733 C.ar    1  UNL1        0.1401
     36 F          -8.9245  -16.0940   28.1145 F       1  UNL1       -0.2042
     37 C          -8.4032  -16.2043   25.5716 C.ar    1  UNL1        0.0293
     38 C          -7.4518  -15.9981   24.4304 C.ar    1  UNL1       -0.0020
@<TRIPOS>BOND
     1    19    20    1
     2    20    21    2
     3    20     7    1
     4     7     8   ar
     5     8     9   ar
     6     9     1    1
     7     1     2   am
     8     2     3    2
     9     2     4   am
    10     4    22    1
    11    22    23    1
    12    23    24    1
    13    24    25    1
    14    25    26    1
    15    26    27    1
    16    27    28    1
    17    28    29    1
    18    29    31    1
    19    31    32    1
    20    32    33   ar
    21    33    34   ar
    22    34    35   ar
    23    35    36    1
    24    35    37   ar
    25    37    38   ar
    26    29    30    1
    27     9    10   ar
    28    10    11   ar
    29    11    13    1
    30    13    14   ar
    31    14    15   ar
    32    15    16   ar
    33    16    17   ar
    34    17    18    1
    35    11    12   ar
    36    12     7   ar
    37    30    25    1
    38    17    13   ar
    39    38    32   ar
    40     1     5    1
    41     4     6    1
@<TRIPOS>MOLECULE
*****
 38 41 0 0 0
SMALL
GASTEIGER

@<TRIPOS>ATOM
      1 N          -4.3631  -17.1424   23.7285 N.am    1  UNL1       -0.2683
      2 C          -3.5074  -16.4131   22.7356 C.2     1  UNL1        0.3045
      3 O          -3.9838  -15.1209   22.1411 O.2     1  UNL1       -0.2525
      4 N          -2.1753  -16.9760   22.3372 N.am    1  UNL1       -0.2887
      5 H          -4.0505  -17.9905   24.1187 H       1  UNL1        0.1564
      6 H          -1.8627  -17.8240   22.7274 H       1  UNL1        0.1510
      7 C          -7.2180  -15.4404   25.8971 C.ar    1  UNL1        0.0360
      8 C          -5.8860  -16.0033   25.4987 C.ar    1  UNL1        0.0176
      9 C          -5.6952  -16.5795   24.1270 C.ar    1  UNL1        0.0518
     10 C          -6.8365  -16.5928   23.1537 C.ar    1  UNL1        0.0178
     11 C          -8.1685  -16.0299   23.5521 C.ar    1  UNL1        0.0387
     12 C          -8.3593  -15.4537   24.9239 C.ar    1  UNL1        0.0060
     13 C          -9.3099  -16.0432   22.5788 C.ar    1  UNL1        0.1839
     14 N         -10.5860  -16.8175   22.7271 N.ar    1  UNL1       -0.1081
     15 N         -11.4403  -16.5374   21.5264 N.ar    1  UNL1       -0.0227
     16 N         -10.6921  -15.5900   20.6360 N.ar    1  UNL1       -0.0429
     17 N          -9.3754  -15.2846   21.2865 N.ar    1  UNL1       -0.2113
     18 C          -8.3112  -14.3795   20.7405 C.3     1  UNL1        0.1573
     19 C          -8.7434  -14.9657   27.9460 C.3     1  UNL1        0.0773
     20 C          -7.4088  -14.8643   27.2689 C.2     1  UNL1        0.1735
     21 O          -6.2650  -14.1866   27.9634 O.2     1  UNL1       -0.2913
     22 C          -1.3196  -16.2467   21.3443 C.3     1  UNL1        0.0924
     23 C          -0.6994  -16.9910   20.1991 C.3     1  UNL1        0.0386
     24 C          -1.5189  -17.9656   19.4063 C.3     1  UNL1        0.0738
     25 N          -2.6579  -18.6923   20.0580 N.3     1  UNL1       -0.2726
     26 C          -2.3972  -19.6134   21.2128 C.3     1  UNL1        0.0721
     27 C          -3.5362  -20.3400   21.8645 C.3     1  UNL1        0.0174
     28 C          -4.9359  -20.1456   21.3613 C.3     1  UNL1        0.0031
     29 C          -5.1965  -19.2245   20.2065 C.3     1  UNL1        0.0204
     30 C          -4.0575  -18.4978   19.5548 C.3     1  UNL1        0.0724
     31 C          -6.5962  -19.0300   19.7033 C.3     1  UNL1        0.0277
     32 C          -7.7631  -19.3608   20.5858 C.ar    1  UNL1       -0.0220
     33 C          -7.5496  -19.6103   22.0494 C.ar    1  UNL1       -0.0020
     34 C          -8.7166  -19.9411   22.9319 C.ar    1  UNL1        0.0293
     35 C         -10.0970  -20.0223   22.3507 C.ar    1  UNL1        0.1401
     36 F         -11.2641  -20.3531   23.2332 F       1  UNL1       -0.2042
     37 C         -10.3105  -19.7728   20.8871 C.ar    1  UNL1        0.0293
     38 C          -9.1436  -19.4421   20.0046 C.ar    1  UNL1       -0.0020
@<TRIPOS>BOND
     1    19    20    1
     2    20    21    2
     3    20     7    1
     4     7     8   ar
     5     8     9   ar
     6     9     1    1
     7     1     2   am
     8     2     3    2
     9     2     4   am
    10     4    22    1
    11    22    23    1
    12    23    24    1
    13    24    25    1
    14    25    26    1
    15    26    27    1
    16    27    28    1
    17    28    29    1
    18    29    31    1
    19    31    32    1
    20    32    33   ar
    21    33    34   ar
    22    34    35   ar
    23    35    36    1
    24    35    37   ar
    25    37    38   ar
    26    29    30    1
    27     9    10   ar
    28    10    11   ar
    29    11    13    1
    30    13    14   ar
    31    14    15   ar
    32    15    16   ar
    33    16    17   ar
    34    17    18    1
    35    11    12   ar
    36    12     7   ar
    37    30    25    1
    38    17    13   ar
    39    38    32   ar
    40     1     5    1
    41     4     6    1
@<TRIPOS>MOLECULE
*****
 38 41 0 0 0
SMALL
GASTEIGER

@<TRIPOS>ATOM
      1 N           4.9704   -3.2997   32.9137 N.am    1  UNL1       -0.2683
      2 C           6.1875   -3.5930   32.0875 C.2     1  UNL1        0.3045
      3 O           6.9310   -2.4722   31.4233 O.2     1  UNL1       -0.2525
      4 N           6.6611   -5.0070   31.9255 N.am    1  UNL1       -0.2887
      5 H           4.4824   -4.0352   33.3497 H       1  UNL1        0.1564
      6 H           6.1731   -5.7425   32.3615 H       1  UNL1        0.1510
      7 C           4.3543    0.2919   34.4857 C.ar    1  UNL1        0.0360
      8 C           4.8278   -1.1221   34.3237 C.ar    1  UNL1        0.0176
      9 C           4.4968   -1.8856   33.0757 C.ar    1  UNL1        0.0518
     10 C           3.6923   -1.2350   31.9896 C.ar    1  UNL1        0.0178
     11 C           3.2187    0.1790   32.1516 C.ar    1  UNL1        0.0387
     12 C           3.5497    0.9425   33.3996 C.ar    1  UNL1        0.0060
     13 C           2.4142    0.8296   31.0656 C.ar    1  UNL1        0.1839
     14 N           0.9792    1.2548   31.1656 N.ar    1  UNL1       -0.1081
     15 N           0.5814    1.8572   29.8508 N.ar    1  UNL1       -0.0227
     16 N           1.7707    1.8043   28.9380 N.ar    1  UNL1       -0.0429
     17 N           2.9033    1.1692   29.6889 N.ar    1  UNL1       -0.2113
     18 C           4.2829    0.9178   29.1564 C.3     1  UNL1        0.1573
     19 C           4.8702    0.3269   37.0317 C.3     1  UNL1        0.0773
     20 C           4.6853    1.0554   35.7337 C.2     1  UNL1        0.1735
     21 O           4.8313    2.5474   35.6836 O.2     1  UNL1       -0.2913
     22 C           7.8782   -5.3003   31.0993 C.3     1  UNL1        0.0924
     23 C           7.7475   -6.0699   29.8184 C.3     1  UNL1        0.0386
     24 C           6.9908   -5.4821   28.6642 C.3     1  UNL1        0.0738
     25 N           7.3311   -5.8866   27.2605 N.3     1  UNL1       -0.2726
     26 C           7.5268   -7.3352   26.9239 C.3     1  UNL1        0.0721
     27 C           7.8670   -7.7397   25.5201 C.3     1  UNL1        0.0174
     28 C           8.0115   -6.6955   24.4529 C.3     1  UNL1        0.0031
     29 C           7.8157   -5.2469   24.7894 C.3     1  UNL1        0.0204
     30 C           7.4755   -4.8425   26.1933 C.3     1  UNL1        0.0724
     31 C           7.9602   -4.2028   23.7223 C.3     1  UNL1        0.0277
     32 C           6.8462   -3.9700   22.7452 C.ar    1  UNL1       -0.0220
     33 C           7.1139   -4.0433   21.2711 C.ar    1  UNL1       -0.0020
     34 C           5.9998   -3.8104   20.2940 C.ar    1  UNL1        0.0293
     35 C           4.6181   -3.5044   20.7910 C.ar    1  UNL1        0.1401
     36 F           3.5040   -3.2715   19.8139 F       1  UNL1       -0.2042
     37 C           4.3503   -3.4311   22.2651 C.ar    1  UNL1        0.0293
     38 C           5.4643   -3.6639   23.2422 C.ar    1  UNL1       -0.0020
@<TRIPOS>BOND
     1    19    20    1
     2    20    21    2
     3    20     7    1
     4     7     8   ar
     5     8     9   ar
     6     9     1    1
     7     1     2   am
     8     2     3    2
     9     2     4   am
    10     4    22    1
    11    22    23    1
    12    23    24    1
    13    24    25    1
    14    25    26    1
    15    26    27    1
    16    27    28    1
    17    28    29    1
    18    29    31    1
    19    31    32    1
    20    32    33   ar
    21    33    34   ar
    22    34    35   ar
    23    35    36    1
    24    35    37   ar
    25    37    38   ar
    26    29    30    1
    27     9    10   ar
    28    10    11   ar
    29    11    13    1
    30    13    14   ar
    31    14    15   ar
    32    15    16   ar
    33    16    17   ar
    34    17    18    1
    35    11    12   ar
    36    12     7   ar
    37    30    25    1
    38    17    13   ar
    39    38    32   ar
    40     1     5    1
    41     4     6    1
@<TRIPOS>MOLECULE
*****
 38 41 0 0 0
SMALL
GASTEIGER

@<TRIPOS>ATOM
      1 N           2.7578   -0.5122   23.9493 N.am    1  UNL1       -0.2683
      2 C           3.6047    0.4107   24.7746 C.2     1  UNL1        0.3045
      3 O           4.3338    1.5463   24.1198 O.2     1  UNL1       -0.2525
      4 N           3.7223    0.1980   26.2548 N.am    1  UNL1       -0.2887
      5 H           2.2792   -1.2575   24.3791 H       1  UNL1        0.1564
      6 H           3.2438   -0.5473   26.6846 H       1  UNL1        0.1510
      7 C           1.4232    0.7736   20.4400 C.ar    1  UNL1        0.0360
      8 C           1.5409    0.5609   21.9201 C.ar    1  UNL1        0.0176
      9 C           2.6401   -0.2995   22.4691 C.ar    1  UNL1        0.0518
     10 C           3.6217   -0.9471   21.5380 C.ar    1  UNL1        0.0178
     11 C           3.5040   -0.7343   20.0578 C.ar    1  UNL1        0.0387
     12 C           2.4047    0.1260   19.5088 C.ar    1  UNL1        0.0060
     13 C           4.4856   -1.3820   19.1266 C.ar    1  UNL1        0.1839
     14 N           5.6318   -0.6999   18.4403 N.ar    1  UNL1       -0.1081
     15 N           6.3479   -1.7217   17.6077 N.ar    1  UNL1       -0.0227
     16 N           5.6443   -3.0353   17.7796 N.ar    1  UNL1       -0.0429
     17 N           4.4933   -2.8253   18.7183 N.ar    1  UNL1       -0.2113
     18 C           3.5208   -3.8744   19.1694 C.3     1  UNL1        0.1573
     19 C           0.4742    2.2730   18.5423 C.3     1  UNL1        0.0773
     20 C           0.3239    1.6340   19.8910 C.2     1  UNL1        0.1735
     21 O          -0.9257    1.8553   20.6907 O.2     1  UNL1       -0.2913
     22 C           4.5692    1.1209   27.0801 C.3     1  UNL1        0.0924
     23 C           4.0688    1.6137   28.4056 C.3     1  UNL1        0.0386
     24 C           3.0250    0.8348   29.1499 C.3     1  UNL1        0.0738
     25 N           1.5823    0.9467   28.7552 N.3     1  UNL1       -0.2726
     26 C           0.6638   -0.2262   28.9300 C.3     1  UNL1        0.0721
     27 C          -0.7790   -0.1144   28.5352 C.3     1  UNL1        0.0174
     28 C          -1.3033    1.1704   27.9656 C.3     1  UNL1        0.0031
     29 C          -0.3848    2.3434   27.7908 C.3     1  UNL1        0.0204
     30 C           1.0580    2.2315   28.1856 C.3     1  UNL1        0.0724
     31 C          -0.9091    3.6282   27.2213 C.3     1  UNL1        0.0277
     32 C          -2.0831    3.6109   26.2878 C.ar    1  UNL1       -0.0220
     33 C          -1.8903    3.2410   24.8470 C.ar    1  UNL1       -0.0020
     34 C          -3.0644    3.2237   23.9135 C.ar    1  UNL1        0.0293
     35 C          -4.4312    3.5763   24.4209 C.ar    1  UNL1        0.1401
     36 F          -5.6053    3.5590   23.4875 F       1  UNL1       -0.2042
     37 C          -4.6240    3.9461   25.8618 C.ar    1  UNL1        0.0293
     38 C          -3.4500    3.9634   26.7952 C.ar    1  UNL1       -0.0020
@<TRIPOS>BOND
     1    19    20    1
     2    20    21    2
     3    20     7    1
     4     7     8   ar
     5     8     9   ar
     6     9     1    1
     7     1     2   am
     8     2     3    2
     9     2     4   am
    10     4    22    1
    11    22    23    1
    12    23    24    1
    13    24    25    1
    14    25    26    1
    15    26    27    1
    16    27    28    1
    17    28    29    1
    18    29    31    1
    19    31    32    1
    20    32    33   ar
    21    33    34   ar
    22    34    35   ar
    23    35    36    1
    24    35    37   ar
    25    37    38   ar
    26    29    30    1
    27     9    10   ar
    28    10    11   ar
    29    11    13    1
    30    13    14   ar
    31    14    15   ar
    32    15    16   ar
    33    16    17   ar
    34    17    18    1
    35    11    12   ar
    36    12     7   ar
    37    30    25    1
    38    17    13   ar
    39    38    32   ar
    40     1     5    1
    41     4     6    1
@<TRIPOS>MOLECULE
*****
 38 41 0 0 0
SMALL
GASTEIGER

@<TRIPOS>ATOM
      1 N          -8.3494  -19.5831   22.4875 N.am    1  UNL1       -0.2683
      2 C          -7.5870  -19.9598   21.2519 C.2     1  UNL1        0.3045
      3 O          -8.0617  -19.4952   19.9069 O.2     1  UNL1       -0.2525
      4 N          -6.3499  -20.8010   21.3611 N.am    1  UNL1       -0.2887
      5 H          -8.0378  -19.8880   23.3703 H       1  UNL1        0.1564
      6 H          -6.0383  -21.1059   22.2438 H       1  UNL1        0.1510
      7 C         -10.9062  -16.8195   21.2324 C.ar    1  UNL1        0.0360
      8 C          -9.6691  -17.6607   21.3417 C.ar    1  UNL1        0.0176
      9 C          -9.5865  -18.7419   22.3782 C.ar    1  UNL1        0.0518
     10 C         -10.7410  -18.9818   23.3054 C.ar    1  UNL1        0.0178
     11 C         -11.9780  -18.1406   23.1960 C.ar    1  UNL1        0.0387
     12 C         -12.0606  -17.0595   22.1595 C.ar    1  UNL1        0.0060
     13 C         -13.1326  -18.3805   24.1232 C.ar    1  UNL1        0.1839
     14 N         -13.0514  -18.5203   25.6145 N.ar    1  UNL1       -0.1081
     15 N         -14.4396  -18.7489   26.1348 N.ar    1  UNL1       -0.0227
     16 N         -15.3786  -18.7505   24.9651 N.ar    1  UNL1       -0.0429
     17 N         -14.5708  -18.5228   23.7219 N.ar    1  UNL1       -0.2113
     18 C         -15.1072  -18.4502   22.3229 C.3     1  UNL1        0.1573
     19 C         -12.1711  -15.6707   19.2754 C.3     1  UNL1        0.0773
     20 C         -10.9888  -15.7384   20.1959 C.2     1  UNL1        0.1735
     21 O          -9.8891  -14.7249   20.0800 O.2     1  UNL1       -0.2913
     22 C          -5.5875  -21.1776   20.1254 C.3     1  UNL1        0.0924
     23 C          -4.1021  -20.9761   20.0701 C.3     1  UNL1        0.0386
     24 C          -3.5370  -19.7242   19.4674 C.3     1  UNL1        0.0738
     25 N          -3.0869  -18.6016   20.3546 N.3     1  UNL1       -0.2726
     26 C          -2.1419  -17.5624   19.8283 C.3     1  UNL1        0.0721
     27 C          -1.6917  -16.4399   20.7155 C.3     1  UNL1        0.0174
     28 C          -2.1866  -16.3565   22.1291 C.3     1  UNL1        0.0031
     29 C          -3.1316  -17.3957   22.6554 C.3     1  UNL1        0.0204
     30 C          -3.5818  -18.5183   21.7681 C.3     1  UNL1        0.0724
     31 C          -3.6265  -17.3124   24.0690 C.3     1  UNL1        0.0277
     32 C          -4.9468  -16.6647   24.3643 C.ar    1  UNL1       -0.0220
     33 C          -6.0690  -16.7637   23.3740 C.ar    1  UNL1       -0.0020
     34 C          -7.3894  -16.1160   23.6694 C.ar    1  UNL1        0.0293
     35 C          -7.5874  -15.3693   24.9552 C.ar    1  UNL1        0.1401
     36 F          -8.9078  -14.7216   25.2506 F       1  UNL1       -0.2042
     37 C          -6.4652  -15.2703   25.9455 C.ar    1  UNL1        0.0293
     38 C          -5.1449  -15.9180   25.6502 C.ar    1  UNL1       -0.0020
@<TRIPOS>BOND
     1    19    20    1
     2    20    21    2
     3    20     7    1
     4     7     8   ar
     5     8     9   ar
     6     9     1    1
     7     1     2   am
     8     2     3    2
     9     2     4   am
    10     4    22    1
    11    22    23    1
    12    23    24    1
    13    24    25    1
    14    25    26    1
    15    26    27    1
    16    27    28    1
    17    28    29    1
    18    29    31    1
    19    31    32    1
    20    32    33   ar
    21    33    34   ar
    22    34    35   ar
    23    35    36    1
    24    35    37   ar
    25    37    38   ar
    26    29    30    1
    27     9    10   ar
    28    10    11   ar
    29    11    13    1
    30    13    14   ar
    31    14    15   ar
    32    15    16   ar
    33    16    17   ar
    34    17    18    1
    35    11    12   ar
    36    12     7   ar
    37    30    25    1
    38    17    13   ar
    39    38    32   ar
    40     1     5    1
    41     4     6    1
@<TRIPOS>MOLECULE
*****
 38 41 0 0 0
SMALL
GASTEIGER

@<TRIPOS>ATOM
      1 N          -6.9737  -20.2023   20.2326 N.am    1  UNL1       -0.2683
      2 C          -5.5957  -19.6698   20.4924 C.2     1  UNL1        0.3045
      3 O          -5.3888  -18.5907   21.5135 O.2     1  UNL1       -0.2525
      4 N          -4.4246  -20.2164   19.7310 N.am    1  UNL1       -0.2887
      5 H          -7.1095  -20.9106   19.5625 H       1  UNL1        0.1564
      6 H          -4.5604  -20.9247   19.0608 H       1  UNL1        0.1510
      7 C          -9.5661  -19.5524   23.1665 C.ar    1  UNL1        0.0360
      8 C          -8.3950  -20.0990   22.4051 C.ar    1  UNL1        0.0176
      9 C          -8.1448  -19.6557   20.9941 C.ar    1  UNL1        0.0518
     10 C          -9.0657  -18.6658   20.3445 C.ar    1  UNL1        0.0178
     11 C         -10.2368  -18.1191   21.1059 C.ar    1  UNL1        0.0387
     12 C         -10.4869  -18.5625   22.5169 C.ar    1  UNL1        0.0060
     13 C         -11.1577  -17.1292   20.4564 C.ar    1  UNL1        0.1839
     14 N         -10.8156  -16.2302   19.3053 N.ar    1  UNL1       -0.1081
     15 N         -12.0289  -15.4098   18.9814 N.ar    1  UNL1       -0.0227
     16 N         -13.1208  -15.8018   19.9322 N.ar    1  UNL1       -0.0429
     17 N         -12.5824  -16.8644   20.8438 N.ar    1  UNL1       -0.2113
     18 C         -13.3364  -17.5430   21.9487 C.3     1  UNL1        0.1573
     19 C         -10.3500  -19.0221   25.5860 C.3     1  UNL1        0.0773
     20 C          -9.8162  -19.9957   24.5775 C.2     1  UNL1        0.1735
     21 O          -9.5326  -21.4125   24.9799 O.2     1  UNL1       -0.2913
     22 C          -3.0466  -19.6839   19.9907 C.3     1  UNL1        0.0924
     23 C          -2.3033  -20.0973   21.2264 C.3     1  UNL1        0.0386
     24 C          -1.6480  -19.0603   22.0896 C.3     1  UNL1        0.0738
     25 N          -2.3559  -17.7704   22.3807 N.3     1  UNL1       -0.2726
     26 C          -2.0951  -16.5630   21.5298 C.3     1  UNL1        0.0721
     27 C          -2.8031  -15.2731   21.8210 C.3     1  UNL1        0.0174
     28 C          -3.7720  -15.1905   22.9631 C.3     1  UNL1        0.0031
     29 C          -4.0328  -16.3980   23.8141 C.3     1  UNL1        0.0204
     30 C          -3.3248  -17.6879   23.5229 C.3     1  UNL1        0.0724
     31 C          -5.0017  -16.3155   24.9562 C.3     1  UNL1        0.0277
     32 C          -6.4635  -16.1147   24.6866 C.ar    1  UNL1       -0.0220
     33 C          -7.3986  -15.8019   25.8170 C.ar    1  UNL1       -0.0020
     34 C          -8.8605  -15.6012   25.5473 C.ar    1  UNL1        0.0293
     35 C          -9.3872  -15.7132   24.1474 C.ar    1  UNL1        0.1401
     36 F         -10.8491  -15.5124   23.8777 F       1  UNL1       -0.2042
     37 C          -8.4521  -16.0260   23.0170 C.ar    1  UNL1        0.0293
     38 C          -6.9903  -16.2267   23.2866 C.ar    1  UNL1       -0.0020
@<TRIPOS>BOND
     1    19    20    1
     2    20    21    2
     3    20     7    1
     4     7     8   ar
     5     8     9   ar
     6     9     1    1
     7     1     2   am
     8     2     3    2
     9     2     4   am
    10     4    22    1
    11    22    23    1
    12    23    24    1
    13    24    25    1
    14    25    26    1
    15    26    27    1
    16    27    28    1
    17    28    29    1
    18    29    31    1
    19    31    32    1
    20    32    33   ar
    21    33    34   ar
    22    34    35   ar
    23    35    36    1
    24    35    37   ar
    25    37    38   ar
    26    29    30    1
    27     9    10   ar
    28    10    11   ar
    29    11    13    1
    30    13    14   ar
    31    14    15   ar
    32    15    16   ar
    33    16    17   ar
    34    17    18    1
    35    11    12   ar
    36    12     7   ar
    37    30    25    1
    38    17    13   ar
    39    38    32   ar
    40     1     5    1
    41     4     6    1
@<TRIPOS>MOLECULE
*****
 38 41 0 0 0
SMALL
GASTEIGER

@<TRIPOS>ATOM
      1 N           4.3414   -2.4057   24.1240 N.am    1  UNL1       -0.2683
      2 C           5.0563   -1.3822   24.9555 C.2     1  UNL1        0.3045
      3 O           5.3065   -0.0098   24.4040 O.2     1  UNL1       -0.2525
      4 N           5.5210   -1.7311   26.3383 N.am    1  UNL1       -0.2887
      5 H           4.1771   -3.3064   24.4859 H       1  UNL1        0.1564
      6 H           5.3567   -2.6318   26.7002 H       1  UNL1        0.1510
      7 C           3.9326   -2.4720   20.1770 C.ar    1  UNL1        0.0360
      8 C           4.3973   -2.8208   21.5599 C.ar    1  UNL1        0.0176
      9 C           3.8767   -2.0568   22.7411 C.ar    1  UNL1        0.0518
     10 C           2.8914   -0.9439   22.5394 C.ar    1  UNL1        0.0178
     11 C           2.4267   -0.5951   21.1565 C.ar    1  UNL1        0.0387
     12 C           2.9474   -1.3591   19.9753 C.ar    1  UNL1        0.0060
     13 C           1.4414    0.5178   20.9548 C.ar    1  UNL1        0.1839
     14 N          -0.0410    0.3631   20.7856 N.ar    1  UNL1       -0.1081
     15 N          -0.6331    1.7304   20.6131 N.ar    1  UNL1       -0.0227
     16 N           0.4834    2.7302   20.6757 N.ar    1  UNL1       -0.0429
     17 N           1.7655    1.9808   20.8869 N.ar    1  UNL1       -0.2113
     18 C           3.1317    2.5878   21.0087 C.3     1  UNL1        0.1573
     19 C           4.3005   -4.7272   18.9406 C.3     1  UNL1        0.0773
     20 C           4.4533   -3.2360   18.9958 C.2     1  UNL1        0.1735
     21 O           5.1266   -2.5089   17.8699 O.2     1  UNL1       -0.2913
     22 C           6.2359   -0.7076   27.1698 C.3     1  UNL1        0.0924
     23 C           5.5761   -0.1399   28.3915 C.3     1  UNL1        0.0386
     24 C           4.4174   -0.8563   29.0194 C.3     1  UNL1        0.0738
     25 N           3.1575   -0.1080   29.3398 N.3     1  UNL1       -0.2726
     26 C           3.0713    0.7144   30.5913 C.3     1  UNL1        0.0721
     27 C           1.8114    1.4627   30.9118 C.3     1  UNL1        0.0174
     28 C           0.6376    1.3885   29.9808 C.3     1  UNL1        0.0031
     29 C           0.7238    0.5660   28.7293 C.3     1  UNL1        0.0204
     30 C           1.9837   -0.1823   28.4089 C.3     1  UNL1        0.0724
     31 C          -0.4500    0.4918   27.7983 C.3     1  UNL1        0.0277
     32 C          -0.5550    1.4466   26.6462 C.ar    1  UNL1       -0.0220
     33 C           0.2007    1.1782   25.3785 C.ar    1  UNL1       -0.0020
     34 C           0.0957    2.1331   24.2264 C.ar    1  UNL1        0.0293
     35 C          -0.7649    3.3562   24.3420 C.ar    1  UNL1        0.1401
     36 F          -0.8699    4.3110   23.1899 F       1  UNL1       -0.2042
     37 C          -1.5205    3.6245   25.6097 C.ar    1  UNL1        0.0293
     38 C          -1.4156    2.6697   26.7618 C.ar    1  UNL1       -0.0020
@<TRIPOS>BOND
     1    19    20    1
     2    20    21    2
     3    20     7    1
     4     7     8   ar
     5     8     9   ar
     6     9     1    1
     7     1     2   am
     8     2     3    2
     9     2     4   am
    10     4    22    1
    11    22    23    1
    12    23    24    1
    13    24    25    1
    14    25    26    1
    15    26    27    1
    16    27    28    1
    17    28    29    1
    18    29    31    1
    19    31    32    1
    20    32    33   ar
    21    33    34   ar
    22    34    35   ar
    23    35    36    1
    24    35    37   ar
    25    37    38   ar
    26    29    30    1
    27     9    10   ar
    28    10    11   ar
    29    11    13    1
    30    13    14   ar
    31    14    15   ar
    32    15    16   ar
    33    16    17   ar
    34    17    18    1
    35    11    12   ar
    36    12     7   ar
    37    30    25    1
    38    17    13   ar
    39    38    32   ar
    40     1     5    1
    41     4     6    1
