@<TRIPOS>MOLECULE
*****
 32 35 0 0 0
SMALL
GASTEIGER

@<TRIPOS>ATOM
      1 O           8.3410   -3.9482   25.9449 O.2     1  UNL1       -0.2522
      2 C           6.9353   -3.7120   25.4777 C.2     1  UNL1        0.3078
      3 N           5.8508   -3.4305   26.4749 N.am    1  UNL1       -0.2681
      4 N           6.6143   -3.7572   24.0131 N.am    1  UNL1       -0.2611
      5 C           7.6988   -4.0387   23.0158 C.3     1  UNL1        0.1123
      6 C           7.3777   -4.0839   21.5513 C.3     1  UNL1        0.0940
      7 N           5.9720   -3.8477   21.0841 N.3     1  UNL1       -0.2697
      8 C           4.8875   -3.5662   22.0813 C.3     1  UNL1        0.0940
      9 C           5.2086   -3.5210   23.5458 C.3     1  UNL1        0.1123
     10 H           4.9282   -3.2754   26.1682 H       1  UNL1        0.1564
     11 C           6.1719   -3.3853   27.9395 C.ar    1  UNL1        0.0525
     12 C           6.2268   -2.0680   28.6549 C.ar    1  UNL1        0.0156
     13 C           6.5478   -2.0229   30.1194 C.ar    1  UNL1        0.0135
     14 C           6.8140   -3.2949   30.8685 C.ar    1  UNL1        0.0683
     15 CL          7.1351   -3.2496   32.3331 Cl      1  UNL1       -0.0814
     16 C           6.7592   -4.6121   30.1530 C.ar    1  UNL1        0.0694
     17 CL          7.0254   -5.8841   30.9021 Cl      1  UNL1       -0.0813
     18 C           6.4381   -4.6573   28.6885 C.ar    1  UNL1        0.0270
     19 C           5.6510   -3.8929   19.6195 C.3     1  UNL1        0.0735
     20 C           5.5113   -2.6175   18.8425 C.3     1  UNL1        0.0320
     21 C           6.7329   -1.9140   18.3299 C.3     1  UNL1        0.0042
     22 C           6.5933   -0.6386   17.5529 C.3     1  UNL1        0.0174
     23 C           5.2321   -0.0665   17.2886 C.3     1  UNL1        0.0724
     24 N           4.0105   -0.7700   17.8013 N.3     1  UNL1       -0.2689
     25 C           4.1501   -2.0455   18.5783 C.3     1  UNL1        0.0737
     26 C           2.6493   -0.1980   17.5370 C.3     1  UNL1        0.0991
     27 C           1.8856    0.4638   18.6457 C.ar    1  UNL1       -0.0061
     28 C           1.7511    1.9574   18.6761 C.ar    1  UNL1       -0.0029
     29 C           0.9875    2.6192   19.7847 C.ar    1  UNL1       -0.0003
     30 C           0.3585    1.7874   20.8628 C.ar    1  UNL1       -0.0000
     31 C           0.4930    0.2937   20.8323 C.ar    1  UNL1       -0.0003
     32 C           1.2566   -0.3681   19.7237 C.ar    1  UNL1       -0.0029
@<TRIPOS>BOND
     1     1     2    2
     2     2     3   am
     3     3    11    1
     4    11    12   ar
     5    12    13   ar
     6    13    14   ar
     7    14    15    1
     8    14    16   ar
     9    16    17    1
    10    16    18   ar
    11     2     4   am
    12     4     5    1
    13     5     6    1
    14     6     7    1
    15     7    19    1
    16    20    19    1
    17    20    21    1
    18    21    22    1
    19    22    23    1
    20    23    24    1
    21    24    26    1
    22    26    27    1
    23    27    28   ar
    24    28    29   ar
    25    29    30   ar
    26    30    31   ar
    27    31    32   ar
    28    24    25    1
    29     7     8    1
    30     8     9    1
    31    18    11   ar
    32     9     4    1
    33    25    20    1
    34    32    27   ar
    35     3    10    1
@<TRIPOS>MOLECULE
*****
 32 35 0 0 0
SMALL
GASTEIGER

@<TRIPOS>ATOM
      1 O           1.8058   -0.1834   21.4590 O.2     1  UNL1       -0.2522
      2 C           1.8132    0.4386   20.0941 C.2     1  UNL1        0.3078
      3 N           2.8260    0.0031   19.0769 N.am    1  UNL1       -0.2681
      4 N           0.8078    1.4961   19.7463 N.am    1  UNL1       -0.2611
      5 C          -0.2049    1.9316   20.7634 C.3     1  UNL1        0.1123
      6 C          -1.2102    2.9891   20.4156 C.3     1  UNL1        0.0940
      7 N          -1.2028    3.6111   19.0507 N.3     1  UNL1       -0.2697
      8 C          -0.1901    3.1756   18.0335 C.3     1  UNL1        0.0940
      9 C           0.8152    2.1181   18.3813 C.3     1  UNL1        0.1123
     10 H           2.8308    0.4113   18.1810 H       1  UNL1        0.1564
     11 C           3.8314   -1.0544   19.4247 C.ar    1  UNL1        0.0525
     12 C           5.0822   -0.6854   20.1658 C.ar    1  UNL1        0.0156
     13 C           6.0875   -1.7429   20.5135 C.ar    1  UNL1        0.0135
     14 C           5.8420   -3.1694   20.1202 C.ar    1  UNL1        0.0683
     15 CL          6.8475   -4.2269   20.4679 Cl      1  UNL1       -0.0814
     16 C           4.5913   -3.5385   19.3790 C.ar    1  UNL1        0.0694
     17 CL          4.3458   -4.9650   18.9856 Cl      1  UNL1       -0.0813
     18 C           3.5859   -2.4810   19.0313 C.ar    1  UNL1        0.0270
     19 C          -2.2083    4.6686   18.7029 C.3     1  UNL1        0.0735
     20 C          -3.6549    4.4699   19.0459 C.3     1  UNL1        0.0320
     21 C          -4.5316    3.6455   18.1506 C.3     1  UNL1        0.0042
     22 C          -5.9783    3.4468   18.4936 C.3     1  UNL1        0.0174
     23 C          -6.5482    4.0725   19.7321 C.3     1  UNL1        0.0724
     24 N          -5.6715    4.8969   20.6274 N.3     1  UNL1       -0.2689
     25 C          -4.2248    5.0956   20.2843 C.3     1  UNL1        0.0737
     26 C          -6.2414    5.5226   21.8658 C.3     1  UNL1        0.0991
     27 C          -5.7613    5.0831   23.2173 C.ar    1  UNL1       -0.0061
     28 C          -5.7717    6.0467   24.3668 C.ar    1  UNL1       -0.0029
     29 C          -5.2917    5.6072   25.7182 C.ar    1  UNL1       -0.0003
     30 C          -4.8012    4.2042   25.9201 C.ar    1  UNL1       -0.0000
     31 C          -4.7907    3.2406   24.7706 C.ar    1  UNL1       -0.0003
     32 C          -5.2708    3.6801   23.4192 C.ar    1  UNL1       -0.0029
@<TRIPOS>BOND
     1     1     2    2
     2     2     3   am
     3     3    11    1
     4    11    12   ar
     5    12    13   ar
     6    13    14   ar
     7    14    15    1
     8    14    16   ar
     9    16    17    1
    10    16    18   ar
    11     2     4   am
    12     4     5    1
    13     5     6    1
    14     6     7    1
    15     7    19    1
    16    20    19    1
    17    20    21    1
    18    21    22    1
    19    22    23    1
    20    23    24    1
    21    24    26    1
    22    26    27    1
    23    27    28   ar
    24    28    29   ar
    25    29    30   ar
    26    30    31   ar
    27    31    32   ar
    28    24    25    1
    29     7     8    1
    30     8     9    1
    31    18    11   ar
    32     9     4    1
    33    25    20    1
    34    32    27   ar
    35     3    10    1
@<TRIPOS>MOLECULE
*****
 32 35 0 0 0
SMALL
GASTEIGER

@<TRIPOS>ATOM
      1 O         -14.4960    2.3510   18.7805 O.2     1  UNL1       -0.2522
      2 C         -14.7347    0.8800   18.9516 C.2     1  UNL1        0.3078
      3 N         -15.9936    0.3959   19.6079 N.am    1  UNL1       -0.2681
      4 N         -13.7145   -0.1068   18.4664 N.am    1  UNL1       -0.2611
      5 C         -12.4556    0.3773   17.8102 C.3     1  UNL1        0.1123
      6 C         -11.4354   -0.6095   17.3250 C.3     1  UNL1        0.0940
      7 N         -11.6742   -2.0805   17.4961 N.3     1  UNL1       -0.2697
      8 C         -12.9331   -2.5646   18.1524 C.3     1  UNL1        0.0940
      9 C         -13.9532   -1.5778   18.6375 C.3     1  UNL1        0.1123
     10 H         -16.1503   -0.5695   19.7201 H       1  UNL1        0.1564
     11 C         -17.0139    1.3827   20.0930 C.ar    1  UNL1        0.0525
     12 C         -17.8632    2.1293   19.1075 C.ar    1  UNL1        0.0156
     13 C         -18.8834    3.1160   19.5927 C.ar    1  UNL1        0.0135
     14 C         -19.0542    3.3563   21.0635 C.ar    1  UNL1        0.0683
     15 CL        -20.0745    4.3431   21.5487 Cl      1  UNL1       -0.0814
     16 C         -18.2049    2.6098   22.0490 C.ar    1  UNL1        0.0694
     17 CL        -18.3758    2.8500   23.5197 Cl      1  UNL1       -0.0813
     18 C         -17.1847    1.6230   21.5638 C.ar    1  UNL1        0.0270
     19 C         -10.6539   -3.0673   17.0109 C.3     1  UNL1        0.0735
     20 C         -10.6480   -4.4667   17.5509 C.3     1  UNL1        0.0320
     21 C          -9.6165   -4.8770   18.5597 C.3     1  UNL1        0.0042
     22 C          -9.6105   -6.2764   19.0996 C.3     1  UNL1        0.0174
     23 C         -10.6362   -7.2656   18.6309 C.3     1  UNL1        0.0724
     24 N         -11.6677   -6.8552   17.6221 N.3     1  UNL1       -0.2689
     25 C         -11.6736   -5.4558   17.0821 C.3     1  UNL1        0.0737
     26 C         -12.6933   -7.8443   17.1533 C.3     1  UNL1        0.0991
     27 C         -13.9724   -8.0177   17.9176 C.ar    1  UNL1       -0.0061
     28 C         -14.4812   -6.9084   18.7897 C.ar    1  UNL1       -0.0029
     29 C         -15.7602   -7.0818   19.5540 C.ar    1  UNL1       -0.0003
     30 C         -16.5303   -8.3644   19.4462 C.ar    1  UNL1       -0.0000
     31 C         -16.0215   -9.4737   18.5741 C.ar    1  UNL1       -0.0003
     32 C         -14.7425   -9.3004   17.8098 C.ar    1  UNL1       -0.0029
@<TRIPOS>BOND
     1     1     2    2
     2     2     3   am
     3     3    11    1
     4    11    12   ar
     5    12    13   ar
     6    13    14   ar
     7    14    15    1
     8    14    16   ar
     9    16    17    1
    10    16    18   ar
    11     2     4   am
    12     4     5    1
    13     5     6    1
    14     6     7    1
    15     7    19    1
    16    20    19    1
    17    20    21    1
    18    21    22    1
    19    22    23    1
    20    23    24    1
    21    24    26    1
    22    26    27    1
    23    27    28   ar
    24    28    29   ar
    25    29    30   ar
    26    30    31   ar
    27    31    32   ar
    28    24    25    1
    29     7     8    1
    30     8     9    1
    31    18    11   ar
    32     9     4    1
    33    25    20    1
    34    32    27   ar
    35     3    10    1
@<TRIPOS>MOLECULE
*****
 32 35 0 0 0
SMALL
GASTEIGER

@<TRIPOS>ATOM
      1 O           5.9852   -0.1514   25.4370 O.2     1  UNL1       -0.2522
      2 C           4.7728   -0.7959   26.0408 C.2     1  UNL1        0.3078
      3 N           4.0560   -1.8861   25.3009 N.am    1  UNL1       -0.2681
      4 N           4.2773   -0.3502   27.3847 N.am    1  UNL1       -0.2611
      5 C           4.9941    0.7400   28.1246 C.3     1  UNL1        0.1123
      6 C           4.4986    1.1857   29.4684 C.3     1  UNL1        0.0940
      7 N           3.2862    0.5411   30.0722 N.3     1  UNL1       -0.2697
      8 C           2.5693   -0.5491   29.3323 C.3     1  UNL1        0.0940
      9 C           3.0649   -0.9947   27.9885 C.3     1  UNL1        0.1123
     10 H           3.2602   -2.3092   25.6973 H       1  UNL1        0.1564
     11 C           4.5515   -2.3318   23.9571 C.ar    1  UNL1        0.0525
     12 C           5.7097   -3.2802   23.8615 C.ar    1  UNL1        0.0156
     13 C           6.2052   -3.7259   22.5177 C.ar    1  UNL1        0.0135
     14 C           5.5425   -3.2232   21.2695 C.ar    1  UNL1        0.0683
     15 CL          6.0380   -3.6689   19.9256 Cl      1  UNL1       -0.0814
     16 C           4.3843   -2.2748   21.3650 C.ar    1  UNL1        0.0694
     17 CL          3.7216   -1.7722   20.1168 Cl      1  UNL1       -0.0813
     18 C           3.8888   -1.8292   22.7088 C.ar    1  UNL1        0.0270
     19 C           2.7906    0.9868   31.4161 C.3     1  UNL1        0.0735
     20 C           3.4488    0.4787   32.6645 C.3     1  UNL1        0.0320
     21 C           3.9850   -0.9214   32.7131 C.3     1  UNL1        0.0042
     22 C           4.6431   -1.4295   33.9615 C.3     1  UNL1        0.0174
     23 C           4.7651   -0.5376   35.1614 C.3     1  UNL1        0.0724
     24 N           4.2290    0.8624   35.1128 N.3     1  UNL1       -0.2689
     25 C           3.5708    1.3706   33.8643 C.3     1  UNL1        0.0737
     26 C           4.3509    1.7543   36.3126 C.3     1  UNL1        0.0991
     27 C           3.1924    1.9095   37.2527 C.ar    1  UNL1       -0.0061
     28 C           2.3711    3.1645   37.2301 C.ar    1  UNL1       -0.0029
     29 C           1.2126    3.3197   38.1701 C.ar    1  UNL1       -0.0003
     30 C           0.8753    2.2200   39.1328 C.ar    1  UNL1       -0.0000
     31 C           1.6966    0.9650   39.1554 C.ar    1  UNL1       -0.0003
     32 C           2.8552    0.8098   38.2154 C.ar    1  UNL1       -0.0029
@<TRIPOS>BOND
     1     1     2    2
     2     2     3   am
     3     3    11    1
     4    11    12   ar
     5    12    13   ar
     6    13    14   ar
     7    14    15    1
     8    14    16   ar
     9    16    17    1
    10    16    18   ar
    11     2     4   am
    12     4     5    1
    13     5     6    1
    14     6     7    1
    15     7    19    1
    16    20    19    1
    17    20    21    1
    18    21    22    1
    19    22    23    1
    20    23    24    1
    21    24    26    1
    22    26    27    1
    23    27    28   ar
    24    28    29   ar
    25    29    30   ar
    26    30    31   ar
    27    31    32   ar
    28    24    25    1
    29     7     8    1
    30     8     9    1
    31    18    11   ar
    32     9     4    1
    33    25    20    1
    34    32    27   ar
    35     3    10    1
@<TRIPOS>MOLECULE
*****
 32 35 0 0 0
SMALL
GASTEIGER

@<TRIPOS>ATOM
      1 O           7.3801   -5.7697   24.2508 O.2     1  UNL1       -0.2522
      2 C           6.8130   -4.6657   25.0931 C.2     1  UNL1        0.3078
      3 N           6.1021   -3.5159   24.4431 N.am    1  UNL1       -0.2681
      4 N           6.9569   -4.7114   26.5855 N.am    1  UNL1       -0.2611
      5 C           7.6679   -5.8611   27.2356 C.3     1  UNL1        0.1123
      6 C           7.8118   -5.9068   28.7279 C.3     1  UNL1        0.0940
      7 N           7.2447   -4.8027   29.5702 N.3     1  UNL1       -0.2697
      8 C           6.5337   -3.6530   28.9202 C.3     1  UNL1        0.0940
      9 C           6.3899   -3.6073   27.4278 C.3     1  UNL1        0.1123
     10 H           5.7299   -2.7913   24.9959 H       1  UNL1        0.1564
     11 C           5.9582   -3.4702   22.9506 C.ar    1  UNL1        0.0525
     12 C           4.6556   -3.8493   22.3108 C.ar    1  UNL1        0.0156
     13 C           4.5117   -3.8036   20.8184 C.ar    1  UNL1        0.0135
     14 C           5.6705   -3.3787   19.9659 C.ar    1  UNL1        0.0683
     15 CL          5.5266   -3.3330   18.4735 Cl      1  UNL1       -0.0814
     16 C           6.9731   -2.9997   20.6057 C.ar    1  UNL1        0.0694
     17 CL          8.1319   -2.5749   19.7532 Cl      1  UNL1       -0.0813
     18 C           7.1170   -3.0454   22.0981 C.ar    1  UNL1        0.0270
     19 C           7.3886   -4.8484   31.0627 C.3     1  UNL1        0.0735
     20 C           7.2529   -3.5904   31.8681 C.3     1  UNL1        0.0320
     21 C           8.4383   -2.6915   32.0605 C.3     1  UNL1        0.0042
     22 C           8.3026   -1.4334   32.8660 C.3     1  UNL1        0.0174
     23 C           6.9815   -1.0742   33.4791 C.3     1  UNL1        0.0724
     24 N           5.7962   -1.9730   33.2866 N.3     1  UNL1       -0.2689
     25 C           5.9319   -3.2311   32.4811 C.3     1  UNL1        0.0737
     26 C           4.4752   -1.6138   33.8997 C.3     1  UNL1        0.0991
     27 C           4.3584   -0.3982   34.7708 C.ar    1  UNL1       -0.0061
     28 C           4.6783   -0.4902   36.2334 C.ar    1  UNL1       -0.0029
     29 C           4.5615    0.7253   37.1046 C.ar    1  UNL1       -0.0003
     30 C           4.1248    2.0327   36.5131 C.ar    1  UNL1       -0.0000
     31 C           3.8048    2.1247   35.0505 C.ar    1  UNL1       -0.0003
     32 C           3.9216    0.9092   34.1794 C.ar    1  UNL1       -0.0029
@<TRIPOS>BOND
     1     1     2    2
     2     2     3   am
     3     3    11    1
     4    11    12   ar
     5    12    13   ar
     6    13    14   ar
     7    14    15    1
     8    14    16   ar
     9    16    17    1
    10    16    18   ar
    11     2     4   am
    12     4     5    1
    13     5     6    1
    14     6     7    1
    15     7    19    1
    16    20    19    1
    17    20    21    1
    18    21    22    1
    19    22    23    1
    20    23    24    1
    21    24    26    1
    22    26    27    1
    23    27    28   ar
    24    28    29   ar
    25    29    30   ar
    26    30    31   ar
    27    31    32   ar
    28    24    25    1
    29     7     8    1
    30     8     9    1
    31    18    11   ar
    32     9     4    1
    33    25    20    1
    34    32    27   ar
    35     3    10    1
@<TRIPOS>MOLECULE
*****
 32 35 0 0 0
SMALL
GASTEIGER

@<TRIPOS>ATOM
      1 O           3.4075    2.3471   25.3278 O.2     1  UNL1       -0.2522
      2 C           2.4359    1.4340   26.0151 C.2     1  UNL1        0.3078
      3 N           1.7535    0.3454   25.2409 N.am    1  UNL1       -0.2681
      4 N           2.1468    1.6094   27.4765 N.am    1  UNL1       -0.2611
      5 C           2.8292    2.6980   28.2506 C.3     1  UNL1        0.1123
      6 C           2.5400    2.8735   29.7119 C.3     1  UNL1        0.0940
      7 N           1.5685    1.9603   30.3992 N.3     1  UNL1       -0.2697
      8 C           0.8860    0.8718   29.6250 C.3     1  UNL1        0.0940
      9 C           1.1752    0.6963   28.1637 C.3     1  UNL1        0.1123
     10 H           1.1158   -0.2539   25.6920 H       1  UNL1        0.1564
     11 C           2.0426    0.1699   23.7795 C.ar    1  UNL1        0.0525
     12 C           1.3055    0.9929   22.7650 C.ar    1  UNL1        0.0156
     13 C           1.5947    0.8174   21.3037 C.ar    1  UNL1        0.0135
     14 C           2.6209   -0.1811   20.8569 C.ar    1  UNL1        0.0683
     15 CL          2.9101   -0.3566   19.3954 Cl      1  UNL1       -0.0814
     16 C           3.3580   -1.0042   21.8713 C.ar    1  UNL1        0.0694
     17 CL          4.3843   -2.0027   21.4245 Cl      1  UNL1       -0.0813
     18 C           3.0689   -0.8287   23.3327 C.ar    1  UNL1        0.0270
     19 C           1.2793    2.1358   31.8606 C.3     1  UNL1        0.0735
     20 C           2.2760    1.6759   32.8828 C.3     1  UNL1        0.0320
     21 C           3.2010    0.5374   32.5692 C.3     1  UNL1        0.0042
     22 C           4.1977    0.0775   33.5915 C.3     1  UNL1        0.0174
     23 C           4.2694    0.7559   34.9274 C.3     1  UNL1        0.0724
     24 N           3.3444    1.8944   35.2410 N.3     1  UNL1       -0.2689
     25 C           2.3477    2.3543   34.2186 C.3     1  UNL1        0.0737
     26 C           3.4161    2.5729   36.5768 C.3     1  UNL1        0.0991
     27 C           2.4842    2.1615   37.6780 C.ar    1  UNL1       -0.0061
     28 C           1.4097    3.1001   38.1409 C.ar    1  UNL1       -0.0029
     29 C           0.4778    2.6888   39.2420 C.ar    1  UNL1       -0.0003
     30 C           0.6205    1.3388   39.8801 C.ar    1  UNL1       -0.0000
     31 C           1.6951    0.4002   39.4171 C.ar    1  UNL1       -0.0003
     32 C           2.6269    0.8115   38.3161 C.ar    1  UNL1       -0.0029
@<TRIPOS>BOND
     1     1     2    2
     2     2     3   am
     3     3    11    1
     4    11    12   ar
     5    12    13   ar
     6    13    14   ar
     7    14    15    1
     8    14    16   ar
     9    16    17    1
    10    16    18   ar
    11     2     4   am
    12     4     5    1
    13     5     6    1
    14     6     7    1
    15     7    19    1
    16    20    19    1
    17    20    21    1
    18    21    22    1
    19    22    23    1
    20    23    24    1
    21    24    26    1
    22    26    27    1
    23    27    28   ar
    24    28    29   ar
    25    29    30   ar
    26    30    31   ar
    27    31    32   ar
    28    24    25    1
    29     7     8    1
    30     8     9    1
    31    18    11   ar
    32     9     4    1
    33    25    20    1
    34    32    27   ar
    35     3    10    1
@<TRIPOS>MOLECULE
*****
 32 35 0 0 0
SMALL
GASTEIGER

@<TRIPOS>ATOM
      1 O           8.7011   -3.0464   31.3925 O.2     1  UNL1       -0.2522
      2 C           7.2675   -3.3079   31.7480 C.2     1  UNL1        0.3078
      3 N           6.5657   -4.5131   31.1958 N.am    1  UNL1       -0.2681
      4 N           6.5357   -2.3642   32.6557 N.am    1  UNL1       -0.2611
      5 C           7.2376   -1.1591   33.2080 C.3     1  UNL1        0.1123
      6 C           6.5058   -0.2154   34.1157 C.3     1  UNL1        0.0940
      7 N           5.0722   -0.4770   34.4712 N.3     1  UNL1       -0.2697
      8 C           4.3703   -1.6821   33.9189 C.3     1  UNL1        0.0940
      9 C           5.1021   -2.6257   33.0112 C.3     1  UNL1        0.1123
     10 H           5.6248   -4.6847   31.4291 H       1  UNL1        0.1564
     11 C           7.2975   -5.4568   30.2880 C.ar    1  UNL1        0.0525
     12 C           8.4463   -6.2648   30.8147 C.ar    1  UNL1        0.0156
     13 C           9.1780   -7.2084   29.9069 C.ar    1  UNL1        0.0135
     14 C           8.7609   -7.3441   28.4725 C.ar    1  UNL1        0.0683
     15 CL          9.4927   -8.2878   27.5647 Cl      1  UNL1       -0.0814
     16 C           7.6122   -6.5362   27.9458 C.ar    1  UNL1        0.0694
     17 CL          7.1951   -6.6718   26.5113 Cl      1  UNL1       -0.0813
     18 C           6.8804   -5.5925   28.8535 C.ar    1  UNL1        0.0270
     19 C           4.3404    0.4668   35.3789 C.3     1  UNL1        0.0735
     20 C           3.5133    1.5755   34.7989 C.3     1  UNL1        0.0320
     21 C           2.8113    2.5414   35.7067 C.3     1  UNL1        0.0042
     22 C           1.9842    3.6502   35.1266 C.3     1  UNL1        0.0174
     23 C           1.8591    3.7931   33.6386 C.3     1  UNL1        0.0724
     24 N           2.5612    2.8272   32.7308 N.3     1  UNL1       -0.2689
     25 C           3.3883    1.7184   33.3110 C.3     1  UNL1        0.0737
     26 C           2.4362    2.9701   31.2429 C.3     1  UNL1        0.0991
     27 C           1.7555    1.9004   30.4413 C.ar    1  UNL1       -0.0061
     28 C           0.2705    1.9478   30.2355 C.ar    1  UNL1       -0.0029
     29 C          -0.4102    0.8782   29.4339 C.ar    1  UNL1       -0.0003
     30 C           0.3943   -0.2389   28.8381 C.ar    1  UNL1       -0.0000
     31 C           1.8793   -0.2863   29.0438 C.ar    1  UNL1       -0.0003
     32 C           2.5600    0.7833   29.8454 C.ar    1  UNL1       -0.0029
@<TRIPOS>BOND
     1     1     2    2
     2     2     3   am
     3     3    11    1
     4    11    12   ar
     5    12    13   ar
     6    13    14   ar
     7    14    15    1
     8    14    16   ar
     9    16    17    1
    10    16    18   ar
    11     2     4   am
    12     4     5    1
    13     5     6    1
    14     6     7    1
    15     7    19    1
    16    20    19    1
    17    20    21    1
    18    21    22    1
    19    22    23    1
    20    23    24    1
    21    24    26    1
    22    26    27    1
    23    27    28   ar
    24    28    29   ar
    25    29    30   ar
    26    30    31   ar
    27    31    32   ar
    28    24    25    1
    29     7     8    1
    30     8     9    1
    31    18    11   ar
    32     9     4    1
    33    25    20    1
    34    32    27   ar
    35     3    10    1
@<TRIPOS>MOLECULE
*****
 32 35 0 0 0
SMALL
GASTEIGER

@<TRIPOS>ATOM
      1 O          -1.6934    4.4417   24.7728 O.2     1  UNL1       -0.2522
      2 C          -1.7922    3.4594   25.9021 C.2     1  UNL1        0.3078
      3 N          -3.0989    3.2607   26.6112 N.am    1  UNL1       -0.2681
      4 N          -0.5841    2.6757   26.3222 N.am    1  UNL1       -0.2611
      5 C           0.7227    2.8744   25.6131 C.3     1  UNL1        0.1123
      6 C           1.9307    2.0907   26.0333 C.3     1  UNL1        0.0940
      7 N           1.8319    1.1083   27.1625 N.3     1  UNL1       -0.2697
      8 C           0.5251    0.9096   27.8716 C.3     1  UNL1        0.0940
      9 C          -0.6828    1.6933   27.4515 C.3     1  UNL1        0.1123
     10 H          -3.1637    2.6159   27.3523 H       1  UNL1        0.1564
     11 C          -4.3070    4.0444   26.1910 C.ar    1  UNL1        0.0525
     12 C          -4.8056    5.1704   27.0474 C.ar    1  UNL1        0.0156
     13 C          -6.0136    5.9540   26.6272 C.ar    1  UNL1        0.0135
     14 C          -6.7230    5.6116   25.3507 C.ar    1  UNL1        0.0683
     15 CL         -7.9311    6.3953   24.9306 Cl      1  UNL1       -0.0814
     16 C          -6.2244    4.4856   24.4944 C.ar    1  UNL1        0.0694
     17 CL         -6.9339    4.1431   23.2179 Cl      1  UNL1       -0.0813
     18 C          -5.0164    3.7019   24.9145 C.ar    1  UNL1        0.0270
     19 C           3.0400    0.3246   27.5827 C.3     1  UNL1        0.0735
     20 C           4.0962   -0.0225   26.5758 C.3     1  UNL1        0.0320
     21 C           5.3313    0.8212   26.4632 C.3     1  UNL1        0.0042
     22 C           6.3875    0.4741   25.4564 C.3     1  UNL1        0.0174
     23 C           6.2087   -0.7168   24.5620 C.3     1  UNL1        0.0724
     24 N           4.9736   -1.5605   24.6746 N.3     1  UNL1       -0.2689
     25 C           3.9173   -1.2134   25.6815 C.3     1  UNL1        0.0737
     26 C           4.7947   -2.7514   23.7803 C.3     1  UNL1        0.0991
     27 C           4.2609   -2.5719   22.3899 C.ar    1  UNL1       -0.0061
     28 C           4.5887   -3.5763   21.3252 C.ar    1  UNL1       -0.0029
     29 C           4.0550   -3.3968   19.9350 C.ar    1  UNL1       -0.0003
     30 C           3.1934   -2.2129   19.6094 C.ar    1  UNL1       -0.0000
     31 C           2.8656   -1.2085   20.6742 C.ar    1  UNL1       -0.0003
     32 C           3.3994   -1.3880   22.0644 C.ar    1  UNL1       -0.0029
@<TRIPOS>BOND
     1     1     2    2
     2     2     3   am
     3     3    11    1
     4    11    12   ar
     5    12    13   ar
     6    13    14   ar
     7    14    15    1
     8    14    16   ar
     9    16    17    1
    10    16    18   ar
    11     2     4   am
    12     4     5    1
    13     5     6    1
    14     6     7    1
    15     7    19    1
    16    20    19    1
    17    20    21    1
    18    21    22    1
    19    22    23    1
    20    23    24    1
    21    24    26    1
    22    26    27    1
    23    27    28   ar
    24    28    29   ar
    25    29    30   ar
    26    30    31   ar
    27    31    32   ar
    28    24    25    1
    29     7     8    1
    30     8     9    1
    31    18    11   ar
    32     9     4    1
    33    25    20    1
    34    32    27   ar
    35     3    10    1
@<TRIPOS>MOLECULE
*****
 32 35 0 0 0
SMALL
GASTEIGER

@<TRIPOS>ATOM
      1 O           6.7206   -1.5188   28.0696 O.2     1  UNL1       -0.2522
      2 C           5.8927   -2.0469   26.9356 C.2     1  UNL1        0.3078
      3 N           5.9123   -3.5112   26.6111 N.am    1  UNL1       -0.2681
      4 N           5.0453   -1.1105   26.1261 N.am    1  UNL1       -0.2611
      5 C           5.0257    0.3538   26.4506 C.3     1  UNL1        0.1123
      6 C           4.1783    1.2900   25.6411 C.3     1  UNL1        0.0940
      7 N           3.3505    0.7620   24.5072 N.3     1  UNL1       -0.2697
      8 C           3.3701   -0.7023   24.1827 C.3     1  UNL1        0.0940
      9 C           4.2175   -1.6386   24.9922 C.3     1  UNL1        0.1123
     10 H           5.3690   -3.8578   25.8669 H       1  UNL1        0.1564
     11 C           6.7598   -4.4475   27.4206 C.ar    1  UNL1        0.0525
     12 C           7.9373   -5.1292   26.7892 C.ar    1  UNL1        0.0156
     13 C           8.7846   -6.0655   27.5987 C.ar    1  UNL1        0.0135
     14 C           8.4545   -6.3201   29.0396 C.ar    1  UNL1        0.0683
     15 CL          9.3019   -7.2564   29.8491 Cl      1  UNL1       -0.0814
     16 C           7.2770   -5.6384   29.6710 C.ar    1  UNL1        0.0694
     17 CL          6.9468   -5.8930   31.1119 Cl      1  UNL1       -0.0813
     18 C           6.4296   -4.7021   28.8615 C.ar    1  UNL1        0.0270
     19 C           2.5031    1.6983   23.6977 C.3     1  UNL1        0.0735
     20 C           1.9932    1.2750   22.3521 C.3     1  UNL1        0.0320
     21 C           0.5196    1.2826   22.0720 C.3     1  UNL1        0.0042
     22 C           0.0097    0.8594   20.7264 C.3     1  UNL1        0.0174
     23 C           0.9734    0.4284   19.6607 C.3     1  UNL1        0.0724
     24 N           2.4470    0.4208   19.9408 N.3     1  UNL1       -0.2689
     25 C           2.9569    0.8441   21.2865 C.3     1  UNL1        0.0737
     26 C           3.4107   -0.0101   18.8752 C.3     1  UNL1        0.0991
     27 C           3.9088   -1.4247   18.8419 C.ar    1  UNL1       -0.0061
     28 C           5.2226   -1.7421   18.1914 C.ar    1  UNL1       -0.0029
     29 C           5.7207   -3.1566   18.1581 C.ar    1  UNL1       -0.0003
     30 C           4.9049   -4.2536   18.7752 C.ar    1  UNL1       -0.0000
     31 C           3.5911   -3.9363   19.4257 C.ar    1  UNL1       -0.0003
     32 C           3.0930   -2.5218   19.4590 C.ar    1  UNL1       -0.0029
@<TRIPOS>BOND
     1     1     2    2
     2     2     3   am
     3     3    11    1
     4    11    12   ar
     5    12    13   ar
     6    13    14   ar
     7    14    15    1
     8    14    16   ar
     9    16    17    1
    10    16    18   ar
    11     2     4   am
    12     4     5    1
    13     5     6    1
    14     6     7    1
    15     7    19    1
    16    20    19    1
    17    20    21    1
    18    21    22    1
    19    22    23    1
    20    23    24    1
    21    24    26    1
    22    26    27    1
    23    27    28   ar
    24    28    29   ar
    25    29    30   ar
    26    30    31   ar
    27    31    32   ar
    28    24    25    1
    29     7     8    1
    30     8     9    1
    31    18    11   ar
    32     9     4    1
    33    25    20    1
    34    32    27   ar
    35     3    10    1
