@<TRIPOS>MOLECULE
*****
 18 19 0 0 0
SMALL
GASTEIGER

@<TRIPOS>ATOM
      1 C          -7.4663  -19.1325   21.2013 C.2     1  UNL1        0.1898
      2 N          -6.6671  -18.8469   19.9645 N.2     1  UNL1       -0.2199
      3 C          -5.2129  -18.9252   20.3239 C.2     1  UNL1        0.1003
      4 C          -3.9665  -18.7355   19.5112 C.2     1  UNL1        0.0569
      5 C          -2.6206  -18.8797   20.1575 C.2     1  UNL1        0.1364
      6 C          -2.5210  -19.2136   21.6164 C.2     1  UNL1        0.0172
      7 C          -3.7674  -19.4033   22.4291 C.3     1  UNL1        0.0765
      8 C          -5.1133  -19.2591   21.7829 C.2     1  UNL1        0.0833
      9 N          -6.5060  -19.3872   22.3251 N.2     1  UNL1       -0.2238
     10 O          -1.3741  -18.6900   19.3447 O.2     1  UNL1       -0.4717
     11 C          -0.2575  -17.8385   19.8719 C.3     1  UNL1        0.2525
     12 S          -8.9630  -19.1588   21.2974 S.3     1  UNL1       -0.0757
     13 C          -9.7514  -17.9037   21.0671 C.3     1  UNL1        0.0652
     14 C         -11.1197  -17.9789   20.4571 C.3     1  UNL1        0.0121
     15 C         -12.2644  -17.2443   21.0898 C.3     1  UNL1        0.0009
     16 C         -12.2807  -17.0151   22.5721 C.3     1  UNL1        0.0000
     17 C         -14.0550  -18.0551   24.1596 C.3     1  UNL1        0.0000
     18 C         -12.7109  -18.1153   23.4965 C.3     1  UNL1        0.0000
@<TRIPOS>BOND
     1    17    18    1
     2    18    16    1
     3    16    15    1
     4    15    14    1
     5    14    13    1
     6    13    12    1
     7    12     1    1
     8     1     2    2
     9     2     3    1
    10     3     4    2
    11     4     5    1
    12     5    10    1
    13    10    11    1
    14     5     6    2
    15     6     7    1
    16     7     8    1
    17     8     9    2
    18     9     1    1
    19     8     3    1
@<TRIPOS>MOLECULE
*****
 18 19 0 0 0
SMALL
GASTEIGER

@<TRIPOS>ATOM
      1 C          -7.7107  -18.4301   22.2830 C.2     1  UNL1        0.1898
      2 N          -6.3499  -17.8888   22.6072 N.2     1  UNL1       -0.2199
      3 C          -5.3371  -18.6998   21.8545 C.2     1  UNL1        0.1003
      4 C          -3.8406  -18.6236   21.7858 C.2     1  UNL1        0.0569
      5 C          -3.0790  -19.5899   20.9279 C.2     1  UNL1        0.1364
      6 C          -3.8139  -20.6324   20.1385 C.2     1  UNL1        0.0172
      7 C          -5.3104  -20.7086   20.2071 C.3     1  UNL1        0.0765
      8 C          -6.0720  -19.7423   21.0651 C.2     1  UNL1        0.0833
      9 N          -7.5390  -19.5756   21.3300 N.2     1  UNL1       -0.2238
     10 O          -1.5825  -19.5138   20.8592 O.2     1  UNL1       -0.4717
     11 C          -0.9231  -18.5028   19.9687 C.3     1  UNL1        0.2525
     12 S          -9.0145  -17.9162   22.8180 S.3     1  UNL1       -0.0757
     13 C          -9.7009  -18.6367   23.9403 C.3     1  UNL1        0.0652
     14 C         -11.0529  -19.2489   23.7226 C.3     1  UNL1        0.0121
     15 C         -12.2881  -18.5073   24.1405 C.3     1  UNL1        0.0009
     16 C         -13.0208  -17.6522   23.1496 C.3     1  UNL1        0.0000
     17 C         -12.2778  -16.5261   20.9293 C.3     1  UNL1        0.0000
     18 C         -12.6951  -17.7505   21.6887 C.3     1  UNL1        0.0000
@<TRIPOS>BOND
     1    17    18    1
     2    18    16    1
     3    16    15    1
     4    15    14    1
     5    14    13    1
     6    13    12    1
     7    12     1    1
     8     1     2    2
     9     2     3    1
    10     3     4    2
    11     4     5    1
    12     5    10    1
    13    10    11    1
    14     5     6    2
    15     6     7    1
    16     7     8    1
    17     8     9    2
    18     9     1    1
    19     8     3    1
@<TRIPOS>MOLECULE
*****
 18 19 0 0 0
SMALL
GASTEIGER

@<TRIPOS>ATOM
      1 C          -7.5277  -18.4996   22.2820 C.2     1  UNL1        0.1898
      2 N          -6.1772  -17.9220   22.5864 N.2     1  UNL1       -0.2199
      3 C          -5.1544  -18.7041   21.8168 C.2     1  UNL1        0.1003
      4 C          -3.6618  -18.5872   21.7255 C.2     1  UNL1        0.0569
      5 C          -2.8875  -19.5312   20.8542 C.2     1  UNL1        0.1364
      6 C          -3.6058  -20.5921   20.0742 C.2     1  UNL1        0.0172
      7 C          -5.0984  -20.7090   20.1654 C.3     1  UNL1        0.0765
      8 C          -5.8727  -19.7650   21.0367 C.2     1  UNL1        0.0833
      9 N          -7.3395  -19.6386   21.3243 N.2     1  UNL1       -0.2238
     10 O          -1.3948  -19.4144   20.7629 O.2     1  UNL1       -0.4717
     11 C          -0.7769  -18.3353   19.9239 C.3     1  UNL1        0.2525
     12 S          -8.8365  -18.0220   22.8377 S.3     1  UNL1       -0.0757
     13 C          -8.9351  -16.6609   23.4603 C.3     1  UNL1        0.0652
     14 C          -9.2002  -16.5261   24.9305 C.3     1  UNL1        0.0121
     15 C          -8.6401  -15.3599   25.6898 C.3     1  UNL1        0.0009
     16 C          -8.0502  -15.5663   27.0534 C.3     1  UNL1        0.0000
     17 C          -5.6619  -15.2601   26.0776 C.3     1  UNL1        0.0000
     18 C          -6.5705  -15.4314   27.2587 C.3     1  UNL1        0.0000
@<TRIPOS>BOND
     1    17    18    1
     2    18    16    1
     3    16    15    1
     4    15    14    1
     5    14    13    1
     6    13    12    1
     7    12     1    1
     8     1     2    2
     9     2     3    1
    10     3     4    2
    11     4     5    1
    12     5    10    1
    13    10    11    1
    14     5     6    2
    15     6     7    1
    16     7     8    1
    17     8     9    2
    18     9     1    1
    19     8     3    1
@<TRIPOS>MOLECULE
*****
 18 19 0 0 0
SMALL
GASTEIGER

@<TRIPOS>ATOM
      1 C          -7.9435  -19.3928   21.5525 C.2     1  UNL1        0.1898
      2 N          -8.7239  -19.2773   22.8282 N.2     1  UNL1       -0.2199
      3 C         -10.0721  -18.7092   22.4971 C.2     1  UNL1        0.1003
      4 C         -11.2585  -18.3761   23.3524 C.2     1  UNL1        0.0569
      5 C         -12.4977  -17.8073   22.7272 C.2     1  UNL1        0.1364
      6 C         -12.5505  -17.5716   21.2468 C.2     1  UNL1        0.0172
      7 C         -11.3641  -17.9048   20.3915 C.3     1  UNL1        0.0765
      8 C         -10.1249  -18.4736   21.0167 C.2     1  UNL1        0.0833
      9 N          -8.8094  -18.8960   20.4329 N.2     1  UNL1       -0.2238
     10 O         -13.6841  -17.4741   23.5825 O.2     1  UNL1       -0.4717
     11 C         -14.0876  -18.3940   24.6964 C.3     1  UNL1        0.2525
     12 S          -6.5431  -19.9135   21.4196 S.3     1  UNL1       -0.0757
     13 C          -5.6251  -19.3402   20.3811 C.3     1  UNL1        0.0652
     14 C          -4.3328  -20.0305   20.0591 C.3     1  UNL1        0.0121
     15 C          -3.0329  -19.2974   20.2105 C.3     1  UNL1        0.0009
     16 C          -2.3513  -19.2474   21.5458 C.3     1  UNL1        0.0000
     17 C          -2.3090  -16.6963   22.0358 C.3     1  UNL1        0.0000
     18 C          -2.6072  -18.0989   22.4760 C.3     1  UNL1        0.0000
@<TRIPOS>BOND
     1    17    18    1
     2    18    16    1
     3    16    15    1
     4    15    14    1
     5    14    13    1
     6    13    12    1
     7    12     1    1
     8     1     2    2
     9     2     3    1
    10     3     4    2
    11     4     5    1
    12     5    10    1
    13    10    11    1
    14     5     6    2
    15     6     7    1
    16     7     8    1
    17     8     9    2
    18     9     1    1
    19     8     3    1
@<TRIPOS>MOLECULE
*****
 18 19 0 0 0
SMALL
GASTEIGER

@<TRIPOS>ATOM
      1 C          -6.8895  -19.2439   21.5381 C.2     1  UNL1        0.1898
      2 N          -7.8162  -19.9994   22.4439 N.2     1  UNL1       -0.2199
      3 C          -9.0081  -19.1306   22.7168 C.2     1  UNL1        0.1003
      4 C         -10.2419  -19.3494   23.5413 C.2     1  UNL1        0.0569
      5 C         -11.2857  -18.2757   23.6286 C.2     1  UNL1        0.1364
      6 C         -11.0958  -16.9832   22.8914 C.2     1  UNL1        0.0172
      7 C          -9.8620  -16.7645   22.0669 C.3     1  UNL1        0.0765
      8 C          -8.8181  -17.8381   21.9796 C.2     1  UNL1        0.0833
      9 N          -7.5088  -17.9082   21.2511 N.2     1  UNL1       -0.2238
     10 O         -12.5196  -18.4944   24.4531 O.2     1  UNL1       -0.4717
     11 C         -13.8411  -17.9650   23.9804 C.3     1  UNL1        0.2525
     12 S          -5.5745  -19.7375   21.0117 S.3     1  UNL1       -0.0757
     13 C          -4.3223  -18.9520   21.2663 C.3     1  UNL1        0.0652
     14 C          -3.8554  -18.7199   22.6728 C.3     1  UNL1        0.0121
     15 C          -3.8697  -17.3349   23.2488 C.3     1  UNL1        0.0009
     16 C          -5.1631  -16.7233   23.6994 C.3     1  UNL1        0.0000
     17 C          -5.4009  -15.4934   25.9755 C.3     1  UNL1        0.0000
     18 C          -5.1544  -15.4527   24.4965 C.3     1  UNL1        0.0000
@<TRIPOS>BOND
     1    17    18    1
     2    18    16    1
     3    16    15    1
     4    15    14    1
     5    14    13    1
     6    13    12    1
     7    12     1    1
     8     1     2    2
     9     2     3    1
    10     3     4    2
    11     4     5    1
    12     5    10    1
    13    10    11    1
    14     5     6    2
    15     6     7    1
    16     7     8    1
    17     8     9    2
    18     9     1    1
    19     8     3    1
@<TRIPOS>MOLECULE
*****
 18 19 0 0 0
SMALL
GASTEIGER

@<TRIPOS>ATOM
      1 C          -5.5212  -18.7941   21.9816 C.2     1  UNL1        0.1898
      2 N          -6.6068  -19.4851   21.2110 N.2     1  UNL1       -0.2199
      3 C          -7.8759  -18.7081   21.3998 C.2     1  UNL1        0.1003
      4 C          -9.2669  -18.9157   20.8784 C.2     1  UNL1        0.0569
      5 C         -10.3566  -17.9521   21.2444 C.2     1  UNL1        0.1364
      6 C         -10.0553  -16.7808   22.1317 C.2     1  UNL1        0.0172
      7 C          -8.6643  -16.5732   22.6531 C.3     1  UNL1        0.0765
      8 C          -7.5746  -17.5368   22.2872 C.2     1  UNL1        0.0833
      9 N          -6.1193  -17.5900   22.6467 N.2     1  UNL1       -0.2238
     10 O         -11.7477  -18.1597   20.7230 O.2     1  UNL1       -0.4717
     11 C         -12.9269  -17.7010   21.5287 C.3     1  UNL1        0.2525
     12 S          -4.0889  -19.2305   22.0714 S.3     1  UNL1       -0.0757
     13 C          -3.4719  -20.0138   20.9508 C.3     1  UNL1        0.0652
     14 C          -3.5046  -19.4741   19.5516 C.3     1  UNL1        0.0121
     15 C          -2.8732  -18.1486   19.2440 C.3     1  UNL1        0.0009
     16 C          -1.4002  -17.9537   19.4501 C.3     1  UNL1        0.0000
     17 C          -1.8264  -16.3567   21.4545 C.3     1  UNL1        0.0000
     18 C          -0.9085  -16.9039   20.4018 C.3     1  UNL1        0.0000
@<TRIPOS>BOND
     1    17    18    1
     2    18    16    1
     3    16    15    1
     4    15    14    1
     5    14    13    1
     6    13    12    1
     7    12     1    1
     8     1     2    2
     9     2     3    1
    10     3     4    2
    11     4     5    1
    12     5    10    1
    13    10    11    1
    14     5     6    2
    15     6     7    1
    16     7     8    1
    17     8     9    2
    18     9     1    1
    19     8     3    1
@<TRIPOS>MOLECULE
*****
 18 19 0 0 0
SMALL
GASTEIGER

@<TRIPOS>ATOM
      1 C          -5.9972  -19.4745   21.1556 C.2     1  UNL1        0.1898
      2 N          -6.8719  -18.3023   20.8228 N.2     1  UNL1       -0.2199
      3 C          -8.1328  -18.4218   21.6265 C.2     1  UNL1        0.1003
      4 C          -9.3555  -17.5570   21.7101 C.2     1  UNL1        0.0569
      5 C         -10.4827  -17.9382   22.6233 C.2     1  UNL1        0.1364
      6 C         -10.3872  -19.1842   23.4530 C.2     1  UNL1        0.0172
      7 C          -9.1645  -20.0491   23.3694 C.3     1  UNL1        0.0765
      8 C          -8.0373  -19.6678   22.4561 C.2     1  UNL1        0.0833
      9 N          -6.7174  -20.3184   22.1651 N.2     1  UNL1       -0.2238
     10 O         -11.7055  -17.0734   22.7070 O.2     1  UNL1       -0.4717
     11 C         -12.3717  -16.5931   21.4518 C.3     1  UNL1        0.2525
     12 S          -4.6404  -19.7537   20.5801 S.3     1  UNL1       -0.0757
     13 C          -3.4112  -19.5078   21.4038 C.3     1  UNL1        0.0652
     14 C          -3.0634  -18.1136   21.8344 C.3     1  UNL1        0.0121
     15 C          -3.3642  -17.6638   23.2334 C.3     1  UNL1        0.0009
     16 C          -4.7330  -17.1581   23.5807 C.3     1  UNL1        0.0000
     17 C          -5.4601  -15.3913   25.3413 C.3     1  UNL1        0.0000
     18 C          -4.9241  -15.7252   23.9807 C.3     1  UNL1        0.0000
@<TRIPOS>BOND
     1    17    18    1
     2    18    16    1
     3    16    15    1
     4    15    14    1
     5    14    13    1
     6    13    12    1
     7    12     1    1
     8     1     2    2
     9     2     3    1
    10     3     4    2
    11     4     5    1
    12     5    10    1
    13    10    11    1
    14     5     6    2
    15     6     7    1
    16     7     8    1
    17     8     9    2
    18     9     1    1
    19     8     3    1
@<TRIPOS>MOLECULE
*****
 18 19 0 0 0
SMALL
GASTEIGER

@<TRIPOS>ATOM
      1 C          -6.4748  -18.6200   22.1271 C.2     1  UNL1        0.1898
      2 N          -7.3115  -17.4911   21.6023 N.2     1  UNL1       -0.2199
      3 C          -8.7432  -17.9387   21.5968 C.2     1  UNL1        0.1003
      4 C         -10.0091  -17.2479   21.1844 C.2     1  UNL1        0.0569
      5 C         -11.3233  -17.9628   21.2934 C.2     1  UNL1        0.1364
      6 C         -11.3714  -19.3684   21.8149 C.2     1  UNL1        0.0172
      7 C         -10.1055  -20.0591   22.2273 C.3     1  UNL1        0.0765
      8 C          -8.7913  -19.3443   22.1183 C.2     1  UNL1        0.0833
      9 N          -7.3895  -19.7654   22.4460 N.2     1  UNL1       -0.2238
     10 O         -12.5893  -17.2720   20.8809 O.2     1  UNL1       -0.4717
     11 C         -12.5264  -16.0179   20.0605 C.3     1  UNL1        0.2525
     12 S          -4.9852  -18.6061   22.3023 S.3     1  UNL1       -0.0757
     13 C          -4.3735  -17.8830   23.4654 C.3     1  UNL1        0.0652
     14 C          -4.5515  -16.4000   23.6043 C.3     1  UNL1        0.0121
     15 C          -5.6176  -15.8539   24.5072 C.3     1  UNL1        0.0009
     16 C          -5.3226  -15.6180   25.9589 C.3     1  UNL1        0.0000
     17 C          -7.7791  -15.9514   26.7361 C.3     1  UNL1        0.0000
     18 C          -6.4389  -15.3004   26.9091 C.3     1  UNL1        0.0000
@<TRIPOS>BOND
     1    17    18    1
     2    18    16    1
     3    16    15    1
     4    15    14    1
     5    14    13    1
     6    13    12    1
     7    12     1    1
     8     1     2    2
     9     2     3    1
    10     3     4    2
    11     4     5    1
    12     5    10    1
    13    10    11    1
    14     5     6    2
    15     6     7    1
    16     7     8    1
    17     8     9    2
    18     9     1    1
    19     8     3    1
@<TRIPOS>MOLECULE
*****
 18 19 0 0 0
SMALL
GASTEIGER

@<TRIPOS>ATOM
      1 C          -6.4782  -19.1330   22.1685 C.2     1  UNL1        0.1898
      2 N          -7.1108  -17.8153   21.8318 N.2     1  UNL1       -0.2199
      3 C          -8.5989  -17.9774   21.9282 C.2     1  UNL1        0.1003
      4 C          -9.7296  -17.0170   21.7063 C.2     1  UNL1        0.0569
      5 C         -11.1473  -17.4747   21.8806 C.2     1  UNL1        0.1364
      6 C         -11.4344  -18.8926   22.2769 C.2     1  UNL1        0.0172
      7 C         -10.3038  -19.8529   22.4988 C.3     1  UNL1        0.0765
      8 C          -8.8860  -19.3953   22.3244 C.2     1  UNL1        0.0833
      9 N          -7.5753  -20.1095   22.4729 N.2     1  UNL1       -0.2238
     10 O         -12.2781  -16.5143   21.6588 O.2     1  UNL1       -0.4717
     11 C         -12.5421  -15.9708   20.2858 C.3     1  UNL1        0.2525
     12 S          -5.0068  -19.4233   22.1959 S.3     1  UNL1       -0.0757
     13 C          -4.0480  -18.3904   22.7096 C.3     1  UNL1        0.0652
     14 C          -2.5994  -18.4548   22.3256 C.3     1  UNL1        0.0121
     15 C          -2.1782  -19.2360   21.1162 C.3     1  UNL1        0.0009
     16 C          -2.3146  -18.6335   19.7493 C.3     1  UNL1        0.0000
     17 C           0.1160  -17.7282   19.9001 C.3     1  UNL1        0.0000
     18 C          -1.1898  -17.8286   19.1688 C.3     1  UNL1        0.0000
@<TRIPOS>BOND
     1    17    18    1
     2    18    16    1
     3    16    15    1
     4    15    14    1
     5    14    13    1
     6    13    12    1
     7    12     1    1
     8     1     2    2
     9     2     3    1
    10     3     4    2
    11     4     5    1
    12     5    10    1
    13    10    11    1
    14     5     6    2
    15     6     7    1
    16     7     8    1
    17     8     9    2
    18     9     1    1
    19     8     3    1
