@<TRIPOS>MOLECULE
*****
 29 33 0 0 0
SMALL
GASTEIGER

@<TRIPOS>ATOM
      1 C           6.0183   -3.6340   23.2866 C.3     1  UNL1        0.0235
      2 C           4.9608   -2.5723   23.3561 C.3     1  UNL1        0.0973
      3 C           4.6670   -1.8907   24.6596 C.3     1  UNL1        0.1467
      4 N           3.6096   -0.8291   24.7291 N.ar    1  UNL1       -0.2518
      5 N           3.1036    0.0107   25.8644 N.ar    1  UNL1       -0.1682
      6 C           2.0274    0.9097   25.3320 C.ar    1  UNL1        0.1170
      7 C           1.8682    0.6256   23.8678 C.ar    1  UNL1        0.0133
      8 C           2.8461   -0.4490   23.4952 C.ar    1  UNL1        0.0731
      9 C           3.1400   -1.1306   22.1917 C.3     1  UNL1        0.1363
     10 N           4.1974   -2.1923   22.1222 N.pl3   1  UNL1       -0.3045
     11 C           4.4912   -2.8739   20.8186 C.2     1  UNL1        0.0449
     12 C           3.9102   -4.2266   20.5319 C.2     1  UNL1        0.0615
     13 C           4.2040   -4.9082   19.2284 C.2     1  UNL1        0.2366
     14 N           5.0790   -4.2369   18.2116 N.2     1  UNL1       -0.0340
     15 C           5.6601   -2.8841   18.4984 C.2     1  UNL1        0.3606
     16 N           6.5504   -1.9833   17.6947 N.2     1  UNL1       -0.0343
     17 C           6.8068   -0.7450   18.5015 C.2     1  UNL1        0.2321
     18 C           6.0749   -0.8805   19.8039 C.2     1  UNL1        0.0421
     19 C           5.3662   -2.2026   19.8019 C.3     1  UNL1        0.1733
     20 C           0.9010    1.2981   22.9392 C.3     1  UNL1        0.0280
     21 C           0.7697    0.8250   21.5219 C.3     1  UNL1        0.0236
     22 C          -0.1976    1.4975   20.5932 C.3     1  UNL1        0.0958
     23 N          -1.0334    2.6430   21.0820 N.3     1  UNL1       -0.1594
     24 C          -0.9021    3.1161   22.4994 C.3     1  UNL1        0.0958
     25 C           0.0651    2.4437   23.4280 C.3     1  UNL1        0.0236
     26 S          -2.0006    3.3155   20.1534 S.O2    1  UNL1        0.0457
     27 C          -2.9679    3.9880   19.2248 C.3     1  UNL1        0.1960
     28 O          -3.1450    2.8230   20.9888 O.2     1  UNL1       -0.1572
     29 O          -0.8562    3.8080   19.3180 O.2     1  UNL1       -0.1572
@<TRIPOS>BOND
     1     2     1    1
     2     2     3    1
     3     3     4    1
     4     4     5   ar
     5     5     6   ar
     6     6     7   ar
     7     7    20    1
     8    20    21    1
     9    21    22    1
    10    22    23    1
    11    23    26    1
    12    26    27    1
    13    26    28    2
    14    26    29    2
    15    23    24    1
    16    24    25    1
    17     7     8   ar
    18     8     9    1
    19     9    10    1
    20    10    11    1
    21    11    12    2
    22    12    13    1
    23    13    14    2
    24    14    15    1
    25    15    16    2
    26    16    17    1
    27    17    18    2
    28    18    19    1
    29    10     2    1
    30    19    11    1
    31     8     4   ar
    32    19    15    1
    33    25    20    1
@<TRIPOS>MOLECULE
*****
 29 33 0 0 0
SMALL
GASTEIGER

@<TRIPOS>ATOM
      1 C           3.5080   -0.2698   17.4910 C.3     1  UNL1        0.0235
      2 C           2.8685    0.1456   18.7828 C.3     1  UNL1        0.0973
      3 C           1.6678    1.0447   18.7702 C.3     1  UNL1        0.1467
      4 N           1.0284    1.4600   20.0619 N.ar    1  UNL1       -0.2518
      5 N          -0.1554    2.3312   20.3612 N.ar    1  UNL1       -0.1682
      6 C          -0.3258    2.3860   21.8505 C.ar    1  UNL1        0.1170
      7 C           0.7527    1.5487   22.4716 C.ar    1  UNL1        0.0133
      8 C           1.5896    0.9764   21.3662 C.ar    1  UNL1        0.0731
      9 C           2.7903    0.0774   21.3787 C.3     1  UNL1        0.1363
     10 N           3.4297   -0.3380   20.0870 N.pl3   1  UNL1       -0.3045
     11 C           4.6305   -1.2370   20.0996 C.2     1  UNL1        0.0449
     12 C           5.9871   -0.6723   20.4003 C.2     1  UNL1        0.0615
     13 C           7.1878   -1.5714   20.4129 C.2     1  UNL1        0.2366
     14 N           7.0317   -3.0352   20.1248 N.2     1  UNL1       -0.0340
     15 C           5.6750   -3.5999   19.8241 C.2     1  UNL1        0.3606
     16 N           5.2153   -4.9915   19.5048 N.2     1  UNL1       -0.0343
     17 C           3.7306   -4.9526   19.2948 C.2     1  UNL1        0.2321
     18 C           3.2726   -3.5368   19.4844 C.2     1  UNL1        0.0421
     19 C           4.4743   -2.7008   19.8115 C.3     1  UNL1        0.1733
     20 C           0.9581    1.3233   23.9403 C.3     1  UNL1        0.0280
     21 C           2.2947    0.8722   24.4500 C.3     1  UNL1        0.0236
     22 C           2.5002    0.6467   25.9188 C.3     1  UNL1        0.0958
     23 N           1.3691    0.8724   26.8776 N.3     1  UNL1       -0.1594
     24 C           0.0324    1.3235   26.3678 C.3     1  UNL1        0.0958
     25 C          -0.1731    1.5489   24.8992 C.3     1  UNL1        0.0236
     26 S           1.5745    0.6469   28.3463 S.O2    1  UNL1        0.0457
     27 C           1.7799    0.4215   29.8149 C.3     1  UNL1        0.1960
     28 O           0.6179    1.7614   28.6511 O.2     1  UNL1       -0.1572
     29 O           2.5311   -0.4675   28.0414 O.2     1  UNL1       -0.1572
@<TRIPOS>BOND
     1     2     1    1
     2     2     3    1
     3     3     4    1
     4     4     5   ar
     5     5     6   ar
     6     6     7   ar
     7     7    20    1
     8    20    21    1
     9    21    22    1
    10    22    23    1
    11    23    26    1
    12    26    27    1
    13    26    28    2
    14    26    29    2
    15    23    24    1
    16    24    25    1
    17     7     8   ar
    18     8     9    1
    19     9    10    1
    20    10    11    1
    21    11    12    2
    22    12    13    1
    23    13    14    2
    24    14    15    1
    25    15    16    2
    26    16    17    1
    27    17    18    2
    28    18    19    1
    29    10     2    1
    30    19    11    1
    31     8     4   ar
    32    19    15    1
    33    25    20    1
@<TRIPOS>MOLECULE
*****
 29 33 0 0 0
SMALL
GASTEIGER

@<TRIPOS>ATOM
      1 C           2.0194    4.1542   35.2020 C.3     1  UNL1        0.0235
      2 C           2.4339    3.0063   34.3298 C.3     1  UNL1        0.0973
      3 C           1.6108    2.6402   33.1305 C.3     1  UNL1        0.1467
      4 N           2.0253    1.4923   32.2584 N.ar    1  UNL1       -0.2518
      5 N           1.4185    0.9026   31.0199 N.ar    1  UNL1       -0.1682
      6 C           2.2812   -0.2437   30.5817 C.ar    1  UNL1        0.1170
      7 C           3.4211   -0.3623   31.5494 C.ar    1  UNL1        0.0133
      8 C           3.2630    0.7106   32.5857 C.ar    1  UNL1        0.0731
      9 C           4.0861    1.0768   33.7850 C.3     1  UNL1        0.1363
     10 N           3.6715    2.2246   34.6571 N.pl3   1  UNL1       -0.3045
     11 C           4.4947    2.5907   35.8564 C.2     1  UNL1        0.0449
     12 C           5.6964    3.4746   35.6999 C.2     1  UNL1        0.0615
     13 C           6.5196    3.8408   36.8993 C.2     1  UNL1        0.2366
     14 N           6.1409    3.3229   38.2552 N.2     1  UNL1       -0.0340
     15 C           4.9392    2.4389   38.4117 C.2     1  UNL1        0.3606
     16 N           4.3258    1.7823   39.6128 N.2     1  UNL1       -0.0343
     17 C           3.1236    1.0104   39.1558 C.2     1  UNL1        0.2321
     18 C           2.9940    1.1900   37.6722 C.2     1  UNL1        0.0421
     19 C           4.1161    2.0729   37.2123 C.3     1  UNL1        0.1733
     20 C           4.5253   -1.3759   31.4910 C.3     1  UNL1        0.0280
     21 C           5.4504   -1.4100   30.3107 C.3     1  UNL1        0.0236
     22 C           6.5546   -2.4237   30.2523 C.3     1  UNL1        0.0958
     23 N           6.7337   -3.4030   31.3742 N.3     1  UNL1       -0.1594
     24 C           5.8086   -3.3688   32.5545 C.3     1  UNL1        0.0958
     25 C           4.7045   -2.3553   32.6129 C.3     1  UNL1        0.0236
     26 S           7.8379   -4.4166   31.3158 S.O2    1  UNL1        0.0457
     27 C           8.9421   -5.4302   31.2574 C.3     1  UNL1        0.1960
     28 O           8.8072   -3.3898   31.8219 O.2     1  UNL1       -0.1572
     29 O           6.8686   -5.4434   30.8097 O.2     1  UNL1       -0.1572
@<TRIPOS>BOND
     1     2     1    1
     2     2     3    1
     3     3     4    1
     4     4     5   ar
     5     5     6   ar
     6     6     7   ar
     7     7    20    1
     8    20    21    1
     9    21    22    1
    10    22    23    1
    11    23    26    1
    12    26    27    1
    13    26    28    2
    14    26    29    2
    15    23    24    1
    16    24    25    1
    17     7     8   ar
    18     8     9    1
    19     9    10    1
    20    10    11    1
    21    11    12    2
    22    12    13    1
    23    13    14    2
    24    14    15    1
    25    15    16    2
    26    16    17    1
    27    17    18    2
    28    18    19    1
    29    10     2    1
    30    19    11    1
    31     8     4   ar
    32    19    15    1
    33    25    20    1
@<TRIPOS>MOLECULE
*****
 29 33 0 0 0
SMALL
GASTEIGER

@<TRIPOS>ATOM
      1 C           3.8692   -0.7095   17.1025 C.3     1  UNL1        0.0235
      2 C           3.3592   -0.0831   18.3665 C.3     1  UNL1        0.0973
      3 C           2.7771    1.2991   18.3366 C.3     1  UNL1        0.1467
      4 N           2.2671    1.9255   19.6005 N.ar    1  UNL1       -0.2518
      5 N           1.6451    3.2619   19.8784 N.ar    1  UNL1       -0.1682
      6 C           1.3329    3.3321   21.3438 C.ar    1  UNL1        0.1170
      7 C           1.7618    2.0392   21.9717 C.ar    1  UNL1        0.0133
      8 C           2.3392    1.1698   20.8943 C.ar    1  UNL1        0.0731
      9 C           2.9213   -0.2123   20.9241 C.3     1  UNL1        0.1363
     10 N           3.4313   -0.8387   19.6602 N.pl3   1  UNL1       -0.3045
     11 C           4.0134   -2.2209   19.6901 C.2     1  UNL1        0.0449
     12 C           3.1610   -3.4016   19.3311 C.2     1  UNL1        0.0615
     13 C           3.7431   -4.7838   19.3609 C.2     1  UNL1        0.2366
     14 N           5.1777   -4.9851   19.7499 N.2     1  UNL1       -0.0340
     15 C           6.0302   -3.8042   20.1089 C.2     1  UNL1        0.3606
     16 N           7.4660   -3.6935   20.5288 N.2     1  UNL1       -0.0343
     17 C           7.7713   -2.2429   20.7584 C.2     1  UNL1        0.2321
     18 C           6.5241   -1.4571   20.4804 C.2     1  UNL1        0.0421
     19 C           5.4481   -2.4221   20.0790 C.3     1  UNL1        0.1733
     20 C           1.6355    1.6789   23.4223 C.3     1  UNL1        0.0280
     21 C           0.2877    1.6789   24.0804 C.3     1  UNL1        0.0236
     22 C           0.1613    1.3186   25.5311 C.3     1  UNL1        0.0958
     23 N           1.3828    0.9583   26.3235 N.3     1  UNL1       -0.1594
     24 C           2.7308    0.9582   25.6652 C.3     1  UNL1        0.0958
     25 C           2.8571    1.3185   24.2147 C.3     1  UNL1        0.0236
     26 S           1.2565    0.5979   27.7741 S.O2    1  UNL1        0.0457
     27 C           1.1302    0.2376   29.2246 C.3     1  UNL1        0.1960
     28 O          -0.1861    1.0082   27.7504 O.2     1  UNL1       -0.1572
     29 O           2.6991    0.1877   27.7977 O.2     1  UNL1       -0.1572
@<TRIPOS>BOND
     1     2     1    1
     2     2     3    1
     3     3     4    1
     4     4     5   ar
     5     5     6   ar
     6     6     7   ar
     7     7    20    1
     8    20    21    1
     9    21    22    1
    10    22    23    1
    11    23    26    1
    12    26    27    1
    13    26    28    2
    14    26    29    2
    15    23    24    1
    16    24    25    1
    17     7     8   ar
    18     8     9    1
    19     9    10    1
    20    10    11    1
    21    11    12    2
    22    12    13    1
    23    13    14    2
    24    14    15    1
    25    15    16    2
    26    16    17    1
    27    17    18    2
    28    18    19    1
    29    10     2    1
    30    19    11    1
    31     8     4   ar
    32    19    15    1
    33    25    20    1
@<TRIPOS>MOLECULE
*****
 29 33 0 0 0
SMALL
GASTEIGER

@<TRIPOS>ATOM
      1 C           0.7896    1.8379   18.5695 C.3     1  UNL1        0.0235
      2 C           0.5827    1.9103   20.0535 C.3     1  UNL1        0.0973
      3 C          -0.4615    2.8253   20.6214 C.3     1  UNL1        0.1467
      4 N          -0.6684    2.8977   22.1053 N.ar    1  UNL1       -0.2518
      5 N          -1.6140    3.7002   22.9489 N.ar    1  UNL1       -0.1682
      6 C          -1.3612    3.3536   24.3862 C.ar    1  UNL1        0.1170
      7 C          -0.2593    2.3368   24.4310 C.ar    1  UNL1        0.0133
      8 C           0.1689    2.0550   23.0213 C.ar    1  UNL1        0.0731
      9 C           1.2130    1.1401   22.4533 C.3     1  UNL1        0.1363
     10 N           1.4199    1.0677   20.9694 N.pl3   1  UNL1       -0.3045
     11 C           2.4641    0.1527   20.4015 C.2     1  UNL1        0.0449
     12 C           2.1386   -1.2888   20.1445 C.2     1  UNL1        0.0615
     13 C           3.1828   -2.2038   19.5766 C.2     1  UNL1        0.2366
     14 N           4.5525   -1.6772   19.2658 N.2     1  UNL1       -0.0340
     15 C           4.8780   -0.2357   19.5229 C.2     1  UNL1        0.3606
     16 N           6.1315    0.5622   19.3179 N.2     1  UNL1       -0.0343
     17 C           5.8622    1.9703   19.7591 C.2     1  UNL1        0.2321
     18 C           4.4420    2.0427   20.2368 C.2     1  UNL1        0.0421
     19 C           3.8338    0.6792   20.0908 C.3     1  UNL1        0.1733
     20 C           0.3137    1.7116   25.6682 C.3     1  UNL1        0.0280
     21 C           1.7894    1.4614   25.7675 C.3     1  UNL1        0.0236
     22 C           2.3625    0.8362   27.0048 C.3     1  UNL1        0.0958
     23 N           1.4600    0.4612   28.1426 N.3     1  UNL1       -0.1594
     24 C          -0.0158    0.7114   28.0432 C.3     1  UNL1        0.0958
     25 C          -0.5889    1.3366   26.8061 C.3     1  UNL1        0.0236
     26 S           2.0330   -0.1640   29.3798 S.O2    1  UNL1        0.0457
     27 C           2.6060   -0.7892   30.6170 C.3     1  UNL1        0.1960
     28 O           3.0393   -0.8971   28.5433 O.2     1  UNL1       -0.1572
     29 O           1.0267    0.5691   30.2164 O.2     1  UNL1       -0.1572
@<TRIPOS>BOND
     1     2     1    1
     2     2     3    1
     3     3     4    1
     4     4     5   ar
     5     5     6   ar
     6     6     7   ar
     7     7    20    1
     8    20    21    1
     9    21    22    1
    10    22    23    1
    11    23    26    1
    12    26    27    1
    13    26    28    2
    14    26    29    2
    15    23    24    1
    16    24    25    1
    17     7     8   ar
    18     8     9    1
    19     9    10    1
    20    10    11    1
    21    11    12    2
    22    12    13    1
    23    13    14    2
    24    14    15    1
    25    15    16    2
    26    16    17    1
    27    17    18    2
    28    18    19    1
    29    10     2    1
    30    19    11    1
    31     8     4   ar
    32    19    15    1
    33    25    20    1
@<TRIPOS>MOLECULE
*****
 29 33 0 0 0
SMALL
GASTEIGER

@<TRIPOS>ATOM
      1 C           0.3541    3.1703   31.9111 C.3     1  UNL1        0.0235
      2 C           1.4440    2.1545   32.0856 C.3     1  UNL1        0.0973
      3 C           2.1789    2.0594   33.3898 C.3     1  UNL1        0.1467
      4 N           3.2688    1.0437   33.5643 N.ar    1  UNL1       -0.2518
      5 N           4.1610    0.7183   34.7253 N.ar    1  UNL1       -0.1682
      6 C           5.0675   -0.4035   34.3131 C.ar    1  UNL1        0.1170
      7 C           4.7355   -0.7713   32.8973 C.ar    1  UNL1        0.0133
      8 C           3.6238    0.1231   32.4345 C.ar    1  UNL1        0.0731
      9 C           2.8890    0.2182   31.1303 C.3     1  UNL1        0.1363
     10 N           1.7991    1.2339   30.9559 N.pl3   1  UNL1       -0.3045
     11 C           1.0643    1.3290   29.6516 C.2     1  UNL1        0.0449
     12 C          -0.1700    0.5075   29.4245 C.2     1  UNL1        0.0615
     13 C          -0.9048    0.6026   28.1202 C.2     1  UNL1        0.2366
     14 N          -0.4052    1.5192   27.0431 N.2     1  UNL1       -0.0340
     15 C           0.8291    2.3407   27.2702 C.2     1  UNL1        0.3606
     16 N           1.5540    3.3245   26.4004 N.2     1  UNL1       -0.0343
     17 C           2.7369    3.8375   27.1670 C.2     1  UNL1        0.2321
     18 C           2.7430    3.1707   28.5108 C.2     1  UNL1        0.0421
     19 C           1.5638    2.2456   28.5744 C.3     1  UNL1        0.1733
     20 C           5.3988   -1.8451   32.0866 C.3     1  UNL1        0.0280
     21 C           5.6893   -1.6158   30.6330 C.3     1  UNL1        0.0236
     22 C           6.3526   -2.6896   29.8223 C.3     1  UNL1        0.0958
     23 N           6.7253   -3.9925   30.4652 N.3     1  UNL1       -0.1594
     24 C           6.4347   -4.2217   31.9189 C.3     1  UNL1        0.0958
     25 C           5.7714   -3.1480   32.7296 C.3     1  UNL1        0.0236
     26 S           7.3886   -5.0662   29.6546 S.O2    1  UNL1        0.0457
     27 C           8.0518   -6.1400   28.8439 C.3     1  UNL1        0.1960
     28 O           6.9387   -6.0950   30.6492 O.2     1  UNL1       -0.1572
     29 O           7.8384   -4.0374   28.6599 O.2     1  UNL1       -0.1572
@<TRIPOS>BOND
     1     2     1    1
     2     2     3    1
     3     3     4    1
     4     4     5   ar
     5     5     6   ar
     6     6     7   ar
     7     7    20    1
     8    20    21    1
     9    21    22    1
    10    22    23    1
    11    23    26    1
    12    26    27    1
    13    26    28    2
    14    26    29    2
    15    23    24    1
    16    24    25    1
    17     7     8   ar
    18     8     9    1
    19     9    10    1
    20    10    11    1
    21    11    12    2
    22    12    13    1
    23    13    14    2
    24    14    15    1
    25    15    16    2
    26    16    17    1
    27    17    18    2
    28    18    19    1
    29    10     2    1
    30    19    11    1
    31     8     4   ar
    32    19    15    1
    33    25    20    1
@<TRIPOS>MOLECULE
*****
 29 33 0 0 0
SMALL
GASTEIGER

@<TRIPOS>ATOM
      1 C          -1.1413    4.0421   26.0680 C.3     1  UNL1        0.0235
      2 C          -0.5819    3.2078   24.9539 C.3     1  UNL1        0.0973
      3 C          -1.1564    3.3186   23.5726 C.3     1  UNL1        0.1467
      4 N          -0.5969    2.4844   22.4586 N.ar    1  UNL1       -0.2518
      5 N          -0.9556    2.3792   21.0059 N.ar    1  UNL1       -0.1682
      6 C          -0.0434    1.3692   20.3753 C.ar    1  UNL1        0.1170
      7 C           0.8791    0.8502   21.4382 C.ar    1  UNL1        0.0133
      8 C           0.5369    1.5394   22.7258 C.ar    1  UNL1        0.0731
      9 C           1.1114    1.4287   24.1070 C.3     1  UNL1        0.1363
     10 N           0.5519    2.2629   25.2210 N.pl3   1  UNL1       -0.3045
     11 C           1.1265    2.1521   26.6023 C.2     1  UNL1        0.0449
     12 C           2.4220    2.8320   26.9325 C.2     1  UNL1        0.0615
     13 C           2.9965    2.7212   28.3137 C.2     1  UNL1        0.2366
     14 N           2.2753    1.9304   29.3647 N.2     1  UNL1       -0.0340
     15 C           0.9797    1.2505   29.0344 C.2     1  UNL1        0.3606
     16 N           0.0498    0.4087   29.8570 N.2     1  UNL1       -0.0343
     17 C          -1.0994   -0.0008   28.9842 C.2     1  UNL1        0.2321
     18 C          -0.8797    0.5880   27.6221 C.2     1  UNL1        0.0421
     19 C           0.4053    1.3613   27.6532 C.3     1  UNL1        0.1733
     20 C           1.9547   -0.1776   21.2470 C.3     1  UNL1        0.0280
     21 C           2.1314   -0.8391   19.9124 C.3     1  UNL1        0.0236
     22 C           3.2071   -1.8669   19.7212 C.3     1  UNL1        0.0958
     23 N           4.1061   -2.2333   20.8646 N.3     1  UNL1       -0.1594
     24 C           3.9294   -1.5718   22.1993 C.3     1  UNL1        0.0958
     25 C           2.8538   -0.5440   22.3905 C.3     1  UNL1        0.0236
     26 S           5.1817   -3.2611   20.6735 S.O2    1  UNL1        0.0457
     27 C           6.2574   -4.2889   20.4823 C.3     1  UNL1        0.1960
     28 O           4.4273   -4.2141   21.5525 O.2     1  UNL1       -0.1572
     29 O           5.9361   -2.3080   19.7945 O.2     1  UNL1       -0.1572
@<TRIPOS>BOND
     1     2     1    1
     2     2     3    1
     3     3     4    1
     4     4     5   ar
     5     5     6   ar
     6     6     7   ar
     7     7    20    1
     8    20    21    1
     9    21    22    1
    10    22    23    1
    11    23    26    1
    12    26    27    1
    13    26    28    2
    14    26    29    2
    15    23    24    1
    16    24    25    1
    17     7     8   ar
    18     8     9    1
    19     9    10    1
    20    10    11    1
    21    11    12    2
    22    12    13    1
    23    13    14    2
    24    14    15    1
    25    15    16    2
    26    16    17    1
    27    17    18    2
    28    18    19    1
    29    10     2    1
    30    19    11    1
    31     8     4   ar
    32    19    15    1
    33    25    20    1
@<TRIPOS>MOLECULE
*****
 29 33 0 0 0
SMALL
GASTEIGER

@<TRIPOS>ATOM
      1 C          -1.5234    4.2282   26.7719 C.3     1  UNL1        0.0235
      2 C          -1.0421    3.6017   25.4967 C.3     1  UNL1        0.0973
      3 C          -1.7593    3.8774   24.2084 C.3     1  UNL1        0.1467
      4 N          -1.2781    3.2510   22.9333 N.ar    1  UNL1       -0.2518
      5 N          -1.7780    3.3371   21.5216 N.ar    1  UNL1       -0.1682
      6 C          -0.8885    2.4883   20.6624 C.ar    1  UNL1        0.1170
      7 C           0.1611    1.8775   21.5429 C.ar    1  UNL1        0.0133
      8 C          -0.0797    2.3489   22.9464 C.ar    1  UNL1        0.0731
      9 C           0.6375    2.0733   24.2347 C.3     1  UNL1        0.1363
     10 N           0.1562    2.6997   25.5099 N.pl3   1  UNL1       -0.3045
     11 C           0.8734    2.4241   26.7982 C.2     1  UNL1        0.0449
     12 C           2.1729    3.1117   27.0952 C.2     1  UNL1        0.0615
     13 C           2.8901    2.8361   28.3835 C.2     1  UNL1        0.2366
     14 N           2.3077    1.8727   29.3747 N.2     1  UNL1       -0.0340
     15 C           1.0082    1.1850   29.0777 C.2     1  UNL1        0.3606
     16 N           0.1964    0.1932   29.8570 N.2     1  UNL1       -0.0343
     17 C          -1.0225   -0.1442   29.0505 C.2     1  UNL1        0.2321
     18 C          -0.9640    0.6392   27.7725 C.2     1  UNL1        0.0421
     19 C           0.2910    1.4607   27.7894 C.3     1  UNL1        0.1733
     20 C           1.2587    0.9571   21.0981 C.3     1  UNL1        0.0280
     21 C           2.6928    1.3623   21.2692 C.3     1  UNL1        0.0236
     22 C           3.7905    0.4418   20.8243 C.3     1  UNL1        0.0958
     23 N           3.4541   -0.8838   20.2083 N.3     1  UNL1       -0.1594
     24 C           2.0200   -1.2890   20.0372 C.3     1  UNL1        0.0958
     25 C           0.9223   -0.3686   20.4820 C.3     1  UNL1        0.0236
     26 S           4.5517   -1.8043   19.7635 S.O2    1  UNL1        0.0457
     27 C           5.6493   -2.7248   19.3186 C.3     1  UNL1        0.1960
     28 O           3.5340   -2.8498   19.4156 O.2     1  UNL1       -0.1572
     29 O           5.5695   -0.7588   20.1113 O.2     1  UNL1       -0.1572
@<TRIPOS>BOND
     1     2     1    1
     2     2     3    1
     3     3     4    1
     4     4     5   ar
     5     5     6   ar
     6     6     7   ar
     7     7    20    1
     8    20    21    1
     9    21    22    1
    10    22    23    1
    11    23    26    1
    12    26    27    1
    13    26    28    2
    14    26    29    2
    15    23    24    1
    16    24    25    1
    17     7     8   ar
    18     8     9    1
    19     9    10    1
    20    10    11    1
    21    11    12    2
    22    12    13    1
    23    13    14    2
    24    14    15    1
    25    15    16    2
    26    16    17    1
    27    17    18    2
    28    18    19    1
    29    10     2    1
    30    19    11    1
    31     8     4   ar
    32    19    15    1
    33    25    20    1
@<TRIPOS>MOLECULE
*****
 29 33 0 0 0
SMALL
GASTEIGER

@<TRIPOS>ATOM
      1 C          -1.8423    3.6180   26.7919 C.3     1  UNL1        0.0235
      2 C          -1.1810    3.0386   25.5765 C.3     1  UNL1        0.0973
      3 C          -1.5072    3.5792   24.2158 C.3     1  UNL1        0.1467
      4 N          -0.8460    2.9998   23.0004 N.ar    1  UNL1       -0.2518
      5 N          -0.9671    3.3246   21.5410 N.ar    1  UNL1       -0.1682
      6 C          -0.0546    2.4055   20.7844 C.ar    1  UNL1        0.1170
      7 C           0.6306    1.5127   21.7762 C.ar    1  UNL1        0.0133
      8 C           0.1415    1.8801   23.1458 C.ar    1  UNL1        0.0731
      9 C           0.4676    1.3396   24.5065 C.3     1  UNL1        0.1363
     10 N          -0.1937    1.9189   25.7218 N.pl3   1  UNL1       -0.3045
     11 C           0.1326    1.3784   27.0826 C.2     1  UNL1        0.0449
     12 C          -0.7879    0.3922   27.7382 C.2     1  UNL1        0.0615
     13 C          -0.4617   -0.1483   29.0990 C.2     1  UNL1        0.2366
     14 N           0.7851    0.2975   29.8039 N.2     1  UNL1       -0.0340
     15 C           1.7055    1.2838   29.1481 C.2     1  UNL1        0.3606
     16 N           2.9963    1.9031   29.5956 N.2     1  UNL1       -0.0343
     17 C           3.4679    2.8264   28.5116 C.2     1  UNL1        0.2321
     18 C           2.4685    2.7776   27.3940 C.2     1  UNL1        0.0421
     19 C           1.3793    1.8242   27.7875 C.3     1  UNL1        0.1733
     20 C           1.6294    0.4408   21.4547 C.3     1  UNL1        0.0280
     21 C           1.3882   -0.4878   20.3017 C.3     1  UNL1        0.0236
     22 C           2.3870   -1.5597   19.9802 C.3     1  UNL1        0.0958
     23 N           3.6271   -1.7030   20.8118 N.3     1  UNL1       -0.1594
     24 C           3.8683   -0.7744   21.9649 C.3     1  UNL1        0.0958
     25 C           2.8696    0.2975   22.2864 C.3     1  UNL1        0.0236
     26 S           4.6259   -2.7749   20.4904 S.O2    1  UNL1        0.0457
     27 C           5.6248   -3.8468   20.1689 C.3     1  UNL1        0.1960
     28 O           3.6684   -3.3706   19.5013 O.2     1  UNL1       -0.1572
     29 O           5.5834   -2.1792   21.4795 O.2     1  UNL1       -0.1572
@<TRIPOS>BOND
     1     2     1    1
     2     2     3    1
     3     3     4    1
     4     4     5   ar
     5     5     6   ar
     6     6     7   ar
     7     7    20    1
     8    20    21    1
     9    21    22    1
    10    22    23    1
    11    23    26    1
    12    26    27    1
    13    26    28    2
    14    26    29    2
    15    23    24    1
    16    24    25    1
    17     7     8   ar
    18     8     9    1
    19     9    10    1
    20    10    11    1
    21    11    12    2
    22    12    13    1
    23    13    14    2
    24    14    15    1
    25    15    16    2
    26    16    17    1
    27    17    18    2
    28    18    19    1
    29    10     2    1
    30    19    11    1
    31     8     4   ar
    32    19    15    1
    33    25    20    1
