@<TRIPOS>MOLECULE
*****
 23 26 0 0 0
SMALL
GASTEIGER

@<TRIPOS>ATOM
      1 N          -9.3328  -17.5488   22.0376 N.pl3   1  UNL1       -0.3066
      2 C         -10.3846  -16.7611   21.3142 C.3     1  UNL1        0.1078
      3 C         -11.0475  -17.3355   20.0974 C.3     1  UNL1        0.0903
      4 N         -10.6585  -18.6976   19.6040 N.3     1  UNL1       -0.2947
      5 C          -9.6067  -19.4853   20.3274 C.3     1  UNL1        0.0885
      6 C          -8.9439  -18.9108   21.5442 C.3     1  UNL1        0.0885
      7 H         -10.3315  -18.5811   18.6449 H       1  UNL1        0.1233
      8 C          -9.3571  -17.0434   24.5859 C.2     1  UNL1        0.0155
      9 C          -8.6943  -16.4689   25.8028 C.2     1  UNL1        0.0184
     10 C          -7.3442  -15.8253   25.6880 C.2     1  UNL1        0.0900
     11 N          -6.4513  -15.1779   26.7046 N.2     1  UNL1       -0.1519
     12 N          -5.2123  -14.7086   26.0013 N.2     1  UNL1       -0.1507
     13 C          -5.3395  -15.0660   24.5501 C.2     1  UNL1        0.1058
     14 C          -6.6571  -15.7562   24.3565 C.3     1  UNL1        0.1083
     15 C          -7.3199  -16.3307   23.1397 C.2     1  UNL1        0.0001
     16 C          -8.6700  -16.9743   23.2545 C.2     1  UNL1        0.0443
     17 C          -7.8921  -19.6985   22.2676 C.3     1  UNL1        0.0213
     18 C          -6.4939  -19.7560   21.7274 C.3     1  UNL1        0.0067
     19 C          -6.1720  -20.6595   20.5742 C.3     1  UNL1        0.0322
     20 C          -4.7738  -20.7171   20.0340 C.3     1  UNL1        0.1422
     21 O          -3.6976  -19.8710   20.6470 O.3     1  UNL1       -0.3538
     22 C          -4.0195  -18.9674   21.8003 C.3     1  UNL1        0.1422
     23 C          -5.4176  -18.9099   22.3404 C.3     1  UNL1        0.0322
@<TRIPOS>BOND
     1     8     9    2
     2     9    10    1
     3    10    11    2
     4    11    12    1
     5    12    13    2
     6    13    14    1
     7    14    15    1
     8    15    16    2
     9    16     1    1
    10     1     2    1
    11     2     3    1
    12     3     4    1
    13     4     5    1
    14     5     6    1
    15     6    17    1
    16    17    18    1
    17    18    19    1
    18    19    20    1
    19    20    21    1
    20    21    22    1
    21    22    23    1
    22    16     8    1
    23     6     1    1
    24    23    18    1
    25    14    10    1
    26     4     7    1
@<TRIPOS>MOLECULE
*****
 23 26 0 0 0
SMALL
GASTEIGER

@<TRIPOS>ATOM
      1 N          -9.4181  -17.2077   21.9045 N.pl3   1  UNL1       -0.3066
      2 C         -10.5396  -16.4165   21.2993 C.3     1  UNL1        0.1078
      3 C         -11.3193  -16.9802   20.1486 C.3     1  UNL1        0.0903
      4 N         -10.9776  -18.3350   19.6030 N.3     1  UNL1       -0.2947
      5 C          -9.8561  -19.1262   20.2082 C.3     1  UNL1        0.0885
      6 C          -9.0763  -18.5624   21.3590 C.3     1  UNL1        0.0885
      7 H         -10.7487  -18.2064   18.6173 H       1  UNL1        0.1233
      8 C          -7.4559  -15.7579   22.7978 C.2     1  UNL1        0.0155
      9 C          -6.6762  -15.1942   23.9486 C.2     1  UNL1        0.0184
     10 C          -7.0791  -15.5166   25.3570 C.2     1  UNL1        0.0900
     11 N          -6.5068  -15.1102   26.6827 N.2     1  UNL1       -0.1519
     12 N          -7.3357  -15.7452   27.7596 N.2     1  UNL1       -0.1507
     13 C          -8.4203  -16.5440   27.0995 C.2     1  UNL1        0.1058
     14 C          -8.2617  -16.4027   25.6146 C.3     1  UNL1        0.1083
     15 C          -9.0414  -16.9663   24.4638 C.2     1  UNL1        0.0001
     16 C          -8.6384  -16.6439   23.0554 C.2     1  UNL1        0.0443
     17 C          -7.9548  -19.3536   21.9642 C.3     1  UNL1        0.0213
     18 C          -6.5409  -19.1030   21.5306 C.3     1  UNL1        0.0067
     19 C          -5.4892  -18.7825   22.5510 C.3     1  UNL1        0.0322
     20 C          -4.0752  -18.5319   22.1175 C.3     1  UNL1        0.1422
     21 O          -3.7129  -18.6019   20.6636 O.3     1  UNL1       -0.3538
     22 C          -4.7647  -18.9225   19.6432 C.3     1  UNL1        0.1422
     23 C          -6.1785  -19.1731   20.0767 C.3     1  UNL1        0.0322
@<TRIPOS>BOND
     1     8     9    2
     2     9    10    1
     3    10    11    2
     4    11    12    1
     5    12    13    2
     6    13    14    1
     7    14    15    1
     8    15    16    2
     9    16     1    1
    10     1     2    1
    11     2     3    1
    12     3     4    1
    13     4     5    1
    14     5     6    1
    15     6    17    1
    16    17    18    1
    17    18    19    1
    18    19    20    1
    19    20    21    1
    20    21    22    1
    21    22    23    1
    22    16     8    1
    23     6     1    1
    24    23    18    1
    25    14    10    1
    26     4     7    1
@<TRIPOS>MOLECULE
*****
 23 26 0 0 0
SMALL
GASTEIGER

@<TRIPOS>ATOM
      1 N          -5.3562  -16.5697   23.9255 N.pl3   1  UNL1       -0.3066
      2 C          -4.9077  -15.8157   25.1421 C.3     1  UNL1        0.1078
      3 C          -5.9120  -15.0884   25.9862 C.3     1  UNL1        0.0903
      4 N          -7.3647  -15.1151   25.6136 N.3     1  UNL1       -0.2947
      5 C          -7.8132  -15.8691   24.3969 C.3     1  UNL1        0.0885
      6 C          -6.8088  -16.5964   23.5529 C.3     1  UNL1        0.0885
      7 H          -7.6528  -14.1455   25.4820 H       1  UNL1        0.1233
      8 C          -4.4665  -18.7802   22.8901 C.2     1  UNL1        0.0155
      9 C          -3.4621  -19.5075   22.0461 C.2     1  UNL1        0.0184
     10 C          -2.3431  -18.7514   21.3933 C.2     1  UNL1        0.0900
     11 N          -1.2127  -19.1940   20.5123 N.2     1  UNL1       -0.1519
     12 N          -0.3994  -17.9841   20.1591 N.2     1  UNL1       -0.1507
     13 C          -1.0272  -16.7938   20.8218 C.2     1  UNL1        0.1058
     14 C          -2.2285  -17.2681   21.5846 C.3     1  UNL1        0.1083
     15 C          -3.2328  -16.5409   22.4286 C.2     1  UNL1        0.0001
     16 C          -4.3518  -17.2970   23.0814 C.2     1  UNL1        0.0443
     17 C          -7.2573  -17.3504   22.3362 C.3     1  UNL1        0.0213
     18 C          -8.5913  -18.0364   22.3283 C.3     1  UNL1        0.0067
     19 C          -9.7496  -17.4156   21.6052 C.3     1  UNL1        0.0322
     20 C         -11.0835  -18.1015   21.5973 C.3     1  UNL1        0.1422
     21 O         -11.2592  -19.4083   22.3124 O.3     1  UNL1       -0.3538
     22 C         -10.1008  -20.0292   23.0354 C.3     1  UNL1        0.1422
     23 C          -8.7669  -19.3432   23.0434 C.3     1  UNL1        0.0322
@<TRIPOS>BOND
     1     8     9    2
     2     9    10    1
     3    10    11    2
     4    11    12    1
     5    12    13    2
     6    13    14    1
     7    14    15    1
     8    15    16    2
     9    16     1    1
    10     1     2    1
    11     2     3    1
    12     3     4    1
    13     4     5    1
    14     5     6    1
    15     6    17    1
    16    17    18    1
    17    18    19    1
    18    19    20    1
    19    20    21    1
    20    21    22    1
    21    22    23    1
    22    16     8    1
    23     6     1    1
    24    23    18    1
    25    14    10    1
    26     4     7    1
@<TRIPOS>MOLECULE
*****
 23 26 0 0 0
SMALL
GASTEIGER

@<TRIPOS>ATOM
      1 N          -9.0397  -18.2483   22.0612 N.pl3   1  UNL1       -0.3066
      2 C         -10.1855  -19.2032   21.9025 C.3     1  UNL1        0.1078
      3 C         -11.5547  -18.8173   22.3781 C.3     1  UNL1        0.0903
      4 N         -11.7781  -17.4765   23.0126 N.3     1  UNL1       -0.2947
      5 C         -10.6323  -16.5217   23.1714 C.3     1  UNL1        0.0885
      6 C          -9.2630  -16.9076   22.6956 C.3     1  UNL1        0.0885
      7 H         -12.1477  -17.6509   23.9472 H       1  UNL1        0.1233
      8 C          -7.4562  -19.0232   20.1528 C.2     1  UNL1        0.0155
      9 C          -6.0869  -19.4092   19.6771 C.2     1  UNL1        0.0184
     10 C          -4.9319  -19.4061   20.6342 C.2     1  UNL1        0.0900
     11 N          -3.4797  -19.7366   20.4557 N.2     1  UNL1       -0.1519
     12 N          -2.7965  -19.5518   21.7782 N.2     1  UNL1       -0.1507
     13 C          -3.8264  -19.1072   22.7740 C.2     1  UNL1        0.1058
     14 C          -5.1462  -19.0171   22.0669 C.3     1  UNL1        0.1083
     15 C          -6.5154  -18.6312   22.5426 C.2     1  UNL1        0.0001
     16 C          -7.6704  -18.6343   21.5855 C.2     1  UNL1        0.0443
     17 C          -8.1171  -15.9528   22.8544 C.3     1  UNL1        0.0213
     18 C          -7.5200  -15.7164   24.2100 C.3     1  UNL1        0.0067
     19 C          -8.3941  -15.7395   25.4288 C.3     1  UNL1        0.0322
     20 C          -7.7971  -15.5031   26.7845 C.3     1  UNL1        0.1422
     21 O          -6.3261  -15.2436   26.9213 O.3     1  UNL1       -0.3538
     22 C          -5.4520  -15.2204   25.7024 C.3     1  UNL1        0.1422
     23 C          -6.0490  -15.4568   24.3468 C.3     1  UNL1        0.0322
@<TRIPOS>BOND
     1     8     9    2
     2     9    10    1
     3    10    11    2
     4    11    12    1
     5    12    13    2
     6    13    14    1
     7    14    15    1
     8    15    16    2
     9    16     1    1
    10     1     2    1
    11     2     3    1
    12     3     4    1
    13     4     5    1
    14     5     6    1
    15     6    17    1
    16    17    18    1
    17    18    19    1
    18    19    20    1
    19    20    21    1
    20    21    22    1
    21    22    23    1
    22    16     8    1
    23     6     1    1
    24    23    18    1
    25    14    10    1
    26     4     7    1
@<TRIPOS>MOLECULE
*****
 23 26 0 0 0
SMALL
GASTEIGER

@<TRIPOS>ATOM
      1 N          -7.6957  -18.7478   22.2680 N.pl3   1  UNL1       -0.3066
      2 C          -7.1797  -20.0882   21.8358 C.3     1  UNL1        0.1078
      3 C          -5.7039  -20.3559   21.8252 C.3     1  UNL1        0.0903
      4 N          -4.7440  -19.2831   22.2468 N.3     1  UNL1       -0.2947
      5 C          -5.2600  -17.9426   22.6789 C.3     1  UNL1        0.0885
      6 C          -6.7360  -17.6750   22.6895 C.3     1  UNL1        0.0885
      7 H          -4.1212  -19.1179   21.4560 H       1  UNL1        0.1233
      8 C          -9.8501  -17.9688   21.0425 C.2     1  UNL1        0.0155
      9 C         -11.3261  -17.7012   21.0531 C.2     1  UNL1        0.0184
     10 C         -12.1235  -17.9450   22.2999 C.2     1  UNL1        0.0900
     11 N         -13.5814  -17.7739   22.6084 N.2     1  UNL1       -0.1519
     12 N         -13.8040  -18.1796   24.0352 N.2     1  UNL1       -0.1507
     13 C         -12.4837  -18.6014   24.6086 C.2     1  UNL1        0.1058
     14 C         -11.4450  -18.4564   23.5361 C.3     1  UNL1        0.1083
     15 C          -9.9691  -18.7240   23.5254 C.2     1  UNL1        0.0001
     16 C          -9.1717  -18.4801   22.2786 C.2     1  UNL1        0.0443
     17 C          -7.2520  -16.3345   23.1217 C.3     1  UNL1        0.0213
     18 C          -7.1330  -15.9118   24.5561 C.3     1  UNL1        0.0067
     19 C          -5.8062  -15.4730   25.1010 C.3     1  UNL1        0.0322
     20 C          -5.6871  -15.0503   26.5353 C.3     1  UNL1        0.1422
     21 O          -6.8949  -15.0663   27.4246 O.3     1  UNL1       -0.3538
     22 C          -8.2218  -15.5051   26.8796 C.3     1  UNL1        0.1422
     23 C          -8.3408  -15.9278   25.4454 C.3     1  UNL1        0.0322
@<TRIPOS>BOND
     1     8     9    2
     2     9    10    1
     3    10    11    2
     4    11    12    1
     5    12    13    2
     6    13    14    1
     7    14    15    1
     8    15    16    2
     9    16     1    1
    10     1     2    1
    11     2     3    1
    12     3     4    1
    13     4     5    1
    14     5     6    1
    15     6    17    1
    16    17    18    1
    17    18    19    1
    18    19    20    1
    19    20    21    1
    20    21    22    1
    21    22    23    1
    22    16     8    1
    23     6     1    1
    24    23    18    1
    25    14    10    1
    26     4     7    1
@<TRIPOS>MOLECULE
*****
 23 26 0 0 0
SMALL
GASTEIGER

@<TRIPOS>ATOM
      1 N          -7.4922  -16.4696   23.9363 N.pl3   1  UNL1       -0.3066
      2 C          -7.3153  -15.4278   25.0008 C.3     1  UNL1        0.1078
      3 C          -5.9387  -15.0639   25.4727 C.3     1  UNL1        0.0903
      4 N          -4.7391  -15.7419   24.8801 N.3     1  UNL1       -0.2947
      5 C          -4.9161  -16.7838   23.8155 C.3     1  UNL1        0.0885
      6 C          -6.2927  -17.1476   23.3437 C.3     1  UNL1        0.0885
      7 H          -4.2433  -16.1897   25.6508 H       1  UNL1        0.1233
      8 C          -9.7104  -17.7815   24.2662 C.2     1  UNL1        0.0155
      9 C         -11.0871  -18.1453   23.7944 C.2     1  UNL1        0.0184
     10 C         -11.6221  -17.5609   22.5207 C.2     1  UNL1        0.0900
     11 N         -12.9318  -17.7328   21.8100 N.2     1  UNL1       -0.1519
     12 N         -12.8997  -16.8909   20.5690 N.2     1  UNL1       -0.1507
     13 C         -11.5701  -16.1988   20.5126 C.2     1  UNL1        0.1058
     14 C         -10.7805  -16.6128   21.7189 C.3     1  UNL1        0.1083
     15 C          -9.4039  -16.2491   22.1908 C.2     1  UNL1        0.0001
     16 C          -8.8689  -16.8334   23.4645 C.2     1  UNL1        0.0443
     17 C          -6.4697  -18.1894   22.2792 C.3     1  UNL1        0.0213
     18 C          -5.2793  -18.9385   21.7575 C.3     1  UNL1        0.0067
     19 C          -3.9977  -18.9463   22.5367 C.3     1  UNL1        0.0322
     20 C          -2.8073  -19.6953   22.0151 C.3     1  UNL1        0.1422
     21 O          -2.8987  -20.4366   20.7143 O.3     1  UNL1       -0.3538
     22 C          -4.1804  -20.4288   19.9350 C.3     1  UNL1        0.1422
     23 C          -5.3707  -19.6798   20.4566 C.3     1  UNL1        0.0322
@<TRIPOS>BOND
     1     8     9    2
     2     9    10    1
     3    10    11    2
     4    11    12    1
     5    12    13    2
     6    13    14    1
     7    14    15    1
     8    15    16    2
     9    16     1    1
    10     1     2    1
    11     2     3    1
    12     3     4    1
    13     4     5    1
    14     5     6    1
    15     6    17    1
    16    17    18    1
    17    18    19    1
    18    19    20    1
    19    20    21    1
    20    21    22    1
    21    22    23    1
    22    16     8    1
    23     6     1    1
    24    23    18    1
    25    14    10    1
    26     4     7    1
@<TRIPOS>MOLECULE
*****
 23 26 0 0 0
SMALL
GASTEIGER

@<TRIPOS>ATOM
      1 N         -15.4132   -4.7208   18.4263 N.pl3   1  UNL1       -0.3066
      2 C         -16.4321   -3.8770   17.7194 C.3     1  UNL1        0.1078
      3 C         -16.3826   -2.3827   17.8403 C.3     1  UNL1        0.0903
      4 N         -15.3142   -1.7322   18.6682 N.3     1  UNL1       -0.2947
      5 C         -14.2953   -2.5760   19.3751 C.3     1  UNL1        0.0885
      6 C         -14.3448   -4.0704   19.2541 C.3     1  UNL1        0.0885
      7 H         -15.7899   -1.1833   19.3842 H       1  UNL1        0.1233
      8 C         -14.7532   -6.9001   17.1752 C.2     1  UNL1        0.0155
      9 C         -14.8027   -8.3944   17.0543 C.2     1  UNL1        0.0184
     10 C         -15.5620   -9.2037   18.0635 C.2     1  UNL1        0.0900
     11 N         -15.7868  -10.6803   18.2020 N.2     1  UNL1       -0.1519
     12 N         -16.6353  -10.9079   19.4178 N.2     1  UNL1       -0.1507
     13 C         -16.9350   -9.5720   20.0307 C.2     1  UNL1        0.1058
     14 C         -16.2716   -8.5187   19.1937 C.3     1  UNL1        0.1083
     15 C         -16.2220   -7.0244   19.3146 C.2     1  UNL1        0.0001
     16 C         -15.4628   -6.2151   18.3053 C.2     1  UNL1        0.0443
     17 C         -13.3259   -4.9142   19.9610 C.3     1  UNL1        0.0213
     18 C         -12.0452   -5.2795   19.2707 C.3     1  UNL1        0.0067
     19 C         -11.0724   -4.2072   18.8786 C.3     1  UNL1        0.0322
     20 C          -9.7917   -4.5724   18.1883 C.3     1  UNL1        0.1422
     21 O          -9.4839   -6.0099   17.8901 O.3     1  UNL1       -0.3538
     22 C         -10.4568   -7.0821   18.2823 C.3     1  UNL1        0.1422
     23 C         -11.7374   -6.7169   18.9726 C.3     1  UNL1        0.0322
@<TRIPOS>BOND
     1     8     9    2
     2     9    10    1
     3    10    11    2
     4    11    12    1
     5    12    13    2
     6    13    14    1
     7    14    15    1
     8    15    16    2
     9    16     1    1
    10     1     2    1
    11     2     3    1
    12     3     4    1
    13     4     5    1
    14     5     6    1
    15     6    17    1
    16    17    18    1
    17    18    19    1
    18    19    20    1
    19    20    21    1
    20    21    22    1
    21    22    23    1
    22    16     8    1
    23     6     1    1
    24    23    18    1
    25    14    10    1
    26     4     7    1
@<TRIPOS>MOLECULE
*****
 23 26 0 0 0
SMALL
GASTEIGER

@<TRIPOS>ATOM
      1 N          -5.9062  -16.4416   24.2697 N.pl3   1  UNL1       -0.3066
      2 C          -5.3126  -16.0005   25.5747 C.3     1  UNL1        0.1078
      3 C          -6.1463  -15.2305   26.5556 C.3     1  UNL1        0.0903
      4 N          -7.5734  -14.9015   26.2314 N.3     1  UNL1       -0.2947
      5 C          -8.1669  -15.3426   24.9263 C.3     1  UNL1        0.0885
      6 C          -7.3332  -16.1127   23.9455 C.3     1  UNL1        0.0885
      7 H          -7.6561  -13.8854   26.2640 H       1  UNL1        0.1233
      8 C          -3.6426  -16.8246   23.0532 C.2     1  UNL1        0.0155
      9 C          -2.8089  -17.5947   22.0724 C.2     1  UNL1        0.0184
     10 C          -3.4052  -18.7519   21.3272 C.2     1  UNL1        0.0900
     11 N          -2.8330  -19.6905   20.3066 N.2     1  UNL1       -0.1519
     12 N          -3.9093  -20.6577   19.9115 N.2     1  UNL1       -0.1507
     13 C          -5.1467  -20.3169   20.6878 C.2     1  UNL1        0.1058
     14 C          -4.8351  -19.1390   21.5628 C.3     1  UNL1        0.1083
     15 C          -5.6688  -18.3689   22.5436 C.2     1  UNL1        0.0001
     16 C          -5.0725  -17.2117   23.2888 C.2     1  UNL1        0.0443
     17 C          -7.9267  -16.5538   22.6404 C.3     1  UNL1        0.0213
     18 C          -8.9499  -17.6505   22.6143 C.3     1  UNL1        0.0067
     19 C          -9.2985  -18.3812   23.8770 C.3     1  UNL1        0.0322
     20 C         -10.3216  -19.4778   23.8509 C.3     1  UNL1        0.1422
     21 O         -10.9961  -19.8437   22.5621 O.3     1  UNL1       -0.3538
     22 C         -10.6474  -19.1130   21.2993 C.3     1  UNL1        0.1422
     23 C          -9.6244  -18.0164   21.3254 C.3     1  UNL1        0.0322
@<TRIPOS>BOND
     1     8     9    2
     2     9    10    1
     3    10    11    2
     4    11    12    1
     5    12    13    2
     6    13    14    1
     7    14    15    1
     8    15    16    2
     9    16     1    1
    10     1     2    1
    11     2     3    1
    12     3     4    1
    13     4     5    1
    14     5     6    1
    15     6    17    1
    16    17    18    1
    17    18    19    1
    18    19    20    1
    19    20    21    1
    20    21    22    1
    21    22    23    1
    22    16     8    1
    23     6     1    1
    24    23    18    1
    25    14    10    1
    26     4     7    1
@<TRIPOS>MOLECULE
*****
 23 26 0 0 0
SMALL
GASTEIGER

@<TRIPOS>ATOM
      1 N         -15.1272   -6.6913   19.0081 N.pl3   1  UNL1       -0.3066
      2 C         -16.1286   -7.5527   19.7189 C.3     1  UNL1        0.1078
      3 C         -16.1340   -9.0361   19.4962 C.3     1  UNL1        0.0903
      4 N         -15.1381   -9.6580   18.5628 N.3     1  UNL1       -0.2947
      5 C         -14.1368   -8.7966   17.8520 C.3     1  UNL1        0.0885
      6 C         -14.1314   -7.3132   18.0747 C.3     1  UNL1        0.0885
      7 H         -15.6729  -10.1434   17.8425 H       1  UNL1        0.1233
      8 C         -14.3446   -4.6238   20.3730 C.2     1  UNL1        0.0155
      9 C         -14.3392   -3.1404   20.5957 C.2     1  UNL1        0.0184
     10 C         -15.1111   -2.2412   19.6762 C.2     1  UNL1        0.0900
     11 N         -15.2918   -0.7524   19.6465 N.2     1  UNL1       -0.1519
     12 N         -16.1807   -0.4164   18.4860 N.2     1  UNL1       -0.1507
     13 C         -16.5494   -1.6976   17.7984 C.2     1  UNL1        0.1058
     14 C         -15.8884   -2.8253   18.5340 C.3     1  UNL1        0.1083
     15 C         -15.8937   -4.3087   18.3113 C.2     1  UNL1        0.0001
     16 C         -15.1218   -5.2079   19.2309 C.2     1  UNL1        0.0443
     17 C         -13.1300   -6.4518   17.3639 C.3     1  UNL1        0.0213
     18 C         -11.8361   -6.0964   18.0345 C.3     1  UNL1        0.0067
     19 C         -10.8873   -7.1793   18.4553 C.3     1  UNL1        0.0322
     20 C          -9.5935   -6.8239   19.1258 C.3     1  UNL1        0.1422
     21 O          -9.2484   -5.3857   19.3756 O.3     1  UNL1       -0.3538
     22 C         -10.1973   -4.3028   18.9548 C.3     1  UNL1        0.1422
     23 C         -11.4911   -4.6581   18.2843 C.3     1  UNL1        0.0322
@<TRIPOS>BOND
     1     8     9    2
     2     9    10    1
     3    10    11    2
     4    11    12    1
     5    12    13    2
     6    13    14    1
     7    14    15    1
     8    15    16    2
     9    16     1    1
    10     1     2    1
    11     2     3    1
    12     3     4    1
    13     4     5    1
    14     5     6    1
    15     6    17    1
    16    17    18    1
    17    18    19    1
    18    19    20    1
    19    20    21    1
    20    21    22    1
    21    22    23    1
    22    16     8    1
    23     6     1    1
    24    23    18    1
    25    14    10    1
    26     4     7    1
