@<TRIPOS>MOLECULE
*****
 32 37 0 0 0
SMALL
GASTEIGER

@<TRIPOS>ATOM
      1 N           0.2176    1.6593   23.2770 N.pl3   1  UNL1       -0.3075
      2 C           0.0277    1.3518   24.7328 C.3     1  UNL1        0.0908
      3 C          -0.7997    2.2631   25.5902 C.3     1  UNL1        0.0237
      4 C          -1.4372    3.4818   24.9917 C.3     1  UNL1        0.0285
      5 C          -1.2474    3.7894   23.5359 C.3     1  UNL1        0.0237
      6 C          -0.4200    2.8781   22.6785 C.3     1  UNL1        0.0908
      7 C          -2.2646    4.3931   25.8491 C.3     1  UNL1        0.1117
      8 C          -3.7330    4.6572   25.6938 C.ar    1  UNL1        0.0272
      9 C          -4.7483    4.1395   24.7186 C.ar    1  UNL1        0.1379
     10 F          -4.3366    3.1692   23.6514 F       1  UNL1       -0.2044
     11 C          -6.1755    4.5922   24.8105 C.ar    1  UNL1        0.0294
     12 C          -6.5871    5.5626   25.8777 C.ar    1  UNL1        0.0023
     13 C          -5.5718    6.0803   26.8529 C.ar    1  UNL1        0.0014
     14 C          -4.1447    5.6276   26.7610 C.ar    1  UNL1        0.0173
     15 C          -2.9309    5.9632   27.5758 C.ar    1  UNL1        0.0804
     16 C          -2.4352    6.7703   28.7389 C.ar    1  UNL1        0.1178
     17 N          -0.9668    6.5061   28.8942 N.ar    1  UNL1       -0.2223
     18 C          -0.5550    5.5357   27.8270 C.ar    1  UNL1        0.1788
     19 N          -1.7689    5.2002   27.0122 N.ar    1  UNL1       -0.3069
     20 C           4.4280   -1.3162   22.6298 C.3     1  UNL1        0.0311
     21 C           3.1502   -0.7397   22.0961 C.ar    1  UNL1       -0.0205
     22 C           2.3228    0.1716   22.9534 C.ar    1  UNL1        0.0103
     23 C           1.0450    0.7480   22.4197 C.ar    1  UNL1        0.0475
     24 C           0.5945    0.4132   21.0287 C.ar    1  UNL1        0.0145
     25 C           1.4219   -0.4980   20.1713 C.ar    1  UNL1        0.0011
     26 C           2.6997   -1.0745   20.7050 C.ar    1  UNL1       -0.0008
     27 C           3.5271   -1.9857   19.8476 C.ar    1  UNL1        0.0393
     28 C           4.4929   -1.5581   18.7826 C.ar    1  UNL1        0.1216
     29 N           5.0966   -2.7927   18.1816 N.ar    1  UNL1       -0.1676
     30 N           4.5039   -3.9833   18.8751 N.ar    1  UNL1       -0.2473
     31 C           4.8250   -5.4205   18.5892 C.3     1  UNL1        0.1538
     32 C           3.5339   -3.4846   19.9049 C.ar    1  UNL1        0.0967
@<TRIPOS>BOND
     1    20    21    1
     2    21    22   ar
     3    22    23   ar
     4    23     1    1
     5     1     2    1
     6     2     3    1
     7     3     4    1
     8     4     7    1
     9     7     8    1
    10     8     9   ar
    11     9    10    1
    12     9    11   ar
    13    11    12   ar
    14    12    13   ar
    15    13    14   ar
    16    14    15    1
    17    15    16   ar
    18    16    17   ar
    19    17    18   ar
    20    18    19   ar
    21     4     5    1
    22     5     6    1
    23    23    24   ar
    24    24    25   ar
    25    25    26   ar
    26    26    27    1
    27    27    28   ar
    28    28    29   ar
    29    29    30   ar
    30    30    31    1
    31    30    32   ar
    32    26    21   ar
    33    32    27   ar
    34     6     1    1
    35    19     7    1
    36    14     8   ar
    37    19    15   ar
@<TRIPOS>MOLECULE
*****
 32 37 0 0 0
SMALL
GASTEIGER

@<TRIPOS>ATOM
      1 N          -0.8868    2.8152   27.2158 N.pl3   1  UNL1       -0.3075
      2 C           0.1196    3.7936   27.7449 C.3     1  UNL1        0.0908
      3 C           0.8872    3.4782   28.9944 C.3     1  UNL1        0.0237
      4 C           0.6484    2.1845   29.7149 C.3     1  UNL1        0.0285
      5 C          -0.3580    1.2060   29.1859 C.3     1  UNL1        0.0237
      6 C          -1.1256    1.5214   27.9363 C.3     1  UNL1        0.0908
      7 C           1.4161    1.8691   30.9644 C.3     1  UNL1        0.1117
      8 C           1.4229    2.6835   32.2242 C.ar    1  UNL1        0.0272
      9 C           0.7261    3.9577   32.5994 C.ar    1  UNL1        0.1379
     10 F          -0.1736    4.6394   31.6117 F       1  UNL1       -0.2044
     11 C           0.9291    4.5501   33.9625 C.ar    1  UNL1        0.0294
     12 C           1.8289    3.8683   34.9501 C.ar    1  UNL1        0.0023
     13 C           2.5257    2.5941   34.5749 C.ar    1  UNL1        0.0014
     14 C           2.3227    2.0017   33.2119 C.ar    1  UNL1        0.0173
     15 C           2.8720    0.7660   32.5626 C.ar    1  UNL1        0.0804
     16 C           3.7675   -0.4190   32.7718 C.ar    1  UNL1        0.1178
     17 N           3.7606   -1.2332   31.5121 N.ar    1  UNL1       -0.2223
     18 C           2.8608   -0.5515   30.5244 C.ar    1  UNL1        0.1788
     19 N           2.3116    0.6841   31.1736 N.ar    1  UNL1       -0.3069
     20 C          -5.3561    4.0524   24.8716 C.3     1  UNL1        0.0311
     21 C          -3.8891    3.7491   24.7942 C.ar    1  UNL1       -0.0205
     22 C          -3.1215    3.4338   26.0438 C.ar    1  UNL1        0.0103
     23 C          -1.6544    3.1305   25.9663 C.ar    1  UNL1        0.0475
     24 C          -0.9551    3.1427   24.6394 C.ar    1  UNL1        0.0145
     25 C          -1.7227    3.4580   23.3899 C.ar    1  UNL1        0.0011
     26 C          -3.1897    3.7613   23.4673 C.ar    1  UNL1       -0.0008
     27 C          -3.9573    4.0766   22.2178 C.ar    1  UNL1        0.0393
     28 C          -4.2063    5.4457   21.6579 C.ar    1  UNL1        0.1216
     29 N          -5.0136    5.2935   20.4029 N.ar    1  UNL1       -0.1676
     30 N          -5.2635    3.8303   20.1871 N.ar    1  UNL1       -0.2473
     31 C          -6.0314    3.2253   19.0493 C.3     1  UNL1        0.1538
     32 C          -4.6107    3.0781   21.3088 C.ar    1  UNL1        0.0967
@<TRIPOS>BOND
     1    20    21    1
     2    21    22   ar
     3    22    23   ar
     4    23     1    1
     5     1     2    1
     6     2     3    1
     7     3     4    1
     8     4     7    1
     9     7     8    1
    10     8     9   ar
    11     9    10    1
    12     9    11   ar
    13    11    12   ar
    14    12    13   ar
    15    13    14   ar
    16    14    15    1
    17    15    16   ar
    18    16    17   ar
    19    17    18   ar
    20    18    19   ar
    21     4     5    1
    22     5     6    1
    23    23    24   ar
    24    24    25   ar
    25    25    26   ar
    26    26    27    1
    27    27    28   ar
    28    28    29   ar
    29    29    30   ar
    30    30    31    1
    31    30    32   ar
    32    26    21   ar
    33    32    27   ar
    34     6     1    1
    35    19     7    1
    36    14     8   ar
    37    19    15   ar
@<TRIPOS>MOLECULE
*****
 32 37 0 0 0
SMALL
GASTEIGER

@<TRIPOS>ATOM
      1 N          -0.7938    2.7382   20.4573 N.pl3   1  UNL1       -0.3075
      2 C          -0.4644    2.7985   18.9952 C.3     1  UNL1        0.0908
      3 C           0.8424    2.2556   18.4977 C.3     1  UNL1        0.0237
      4 C           1.8199    1.6525   19.4624 C.3     1  UNL1        0.0285
      5 C           1.4906    1.5922   20.9247 C.3     1  UNL1        0.0237
      6 C           0.1838    2.1351   21.4221 C.3     1  UNL1        0.0908
      7 C           3.1268    1.1096   18.9650 C.3     1  UNL1        0.1117
      8 C           3.5526   -0.3284   18.9945 C.ar    1  UNL1        0.0272
      9 C           2.8670   -1.5683   19.4870 C.ar    1  UNL1        0.1379
     10 F           1.4935   -1.4794   20.0830 F       1  UNL1       -0.2044
     11 C           3.5552   -2.8972   19.3835 C.ar    1  UNL1        0.0294
     12 C           4.9288   -2.9860   18.7875 C.ar    1  UNL1        0.0023
     13 C           5.6143   -1.7461   18.2949 C.ar    1  UNL1        0.0014
     14 C           4.9263   -0.4173   18.3984 C.ar    1  UNL1        0.0173
     15 C           5.3494    0.9657   18.0006 C.ar    1  UNL1        0.0804
     16 C           6.4598    1.7655   17.3864 C.ar    1  UNL1        0.1178
     17 N           6.0340    3.2035   17.3570 N.ar    1  UNL1       -0.2223
     18 C           4.6603    3.2924   17.9530 C.ar    1  UNL1        0.1788
     19 N           4.2372    1.9094   18.3508 N.ar    1  UNL1       -0.3069
     20 C          -5.7777    3.9445   19.6170 C.3     1  UNL1        0.0311
     21 C          -4.5926    3.8842   20.5345 C.ar    1  UNL1       -0.0205
     22 C          -3.2857    3.3413   20.0371 C.ar    1  UNL1        0.0103
     23 C          -2.1006    3.2811   20.9547 C.ar    1  UNL1        0.0475
     24 C          -2.2224    3.7637   22.3697 C.ar    1  UNL1        0.0145
     25 C          -3.5293    4.3066   22.8671 C.ar    1  UNL1        0.0011
     26 C          -4.7143    4.3669   21.9496 C.ar    1  UNL1       -0.0008
     27 C          -6.0212    4.9097   22.4470 C.ar    1  UNL1        0.0393
     28 C          -7.1519    4.1039   23.0144 C.ar    1  UNL1        0.1216
     29 N          -8.2563    5.0498   23.3824 N.ar    1  UNL1       -0.1676
     30 N          -7.8080    6.4404   23.0425 N.ar    1  UNL1       -0.2473
     31 C          -8.6019    7.6969   23.2451 C.3     1  UNL1        0.1538
     32 C          -6.4266    6.3538   22.4643 C.ar    1  UNL1        0.0967
@<TRIPOS>BOND
     1    20    21    1
     2    21    22   ar
     3    22    23   ar
     4    23     1    1
     5     1     2    1
     6     2     3    1
     7     3     4    1
     8     4     7    1
     9     7     8    1
    10     8     9   ar
    11     9    10    1
    12     9    11   ar
    13    11    12   ar
    14    12    13   ar
    15    13    14   ar
    16    14    15    1
    17    15    16   ar
    18    16    17   ar
    19    17    18   ar
    20    18    19   ar
    21     4     5    1
    22     5     6    1
    23    23    24   ar
    24    24    25   ar
    25    25    26   ar
    26    26    27    1
    27    27    28   ar
    28    28    29   ar
    29    29    30   ar
    30    30    31    1
    31    30    32   ar
    32    26    21   ar
    33    32    27   ar
    34     6     1    1
    35    19     7    1
    36    14     8   ar
    37    19    15   ar
@<TRIPOS>MOLECULE
*****
 32 37 0 0 0
SMALL
GASTEIGER

@<TRIPOS>ATOM
      1 N           0.5306    1.5711   24.2810 N.pl3   1  UNL1       -0.3075
      2 C           0.0286    1.3366   25.6749 C.3     1  UNL1        0.0908
      3 C          -0.9670    2.2800   26.2821 C.3     1  UNL1        0.0237
      4 C          -1.4605    3.4580   25.4955 C.3     1  UNL1        0.0285
      5 C          -0.9585    3.6926   24.1016 C.3     1  UNL1        0.0237
      6 C           0.0371    2.7491   23.4943 C.3     1  UNL1        0.0908
      7 C          -2.4561    4.4014   26.1028 C.3     1  UNL1        0.1117
      8 C          -3.8866    4.5646   25.6820 C.ar    1  UNL1        0.0272
      9 C          -4.7016    3.8952   24.6154 C.ar    1  UNL1        0.1379
     10 F          -4.0777    2.8485   23.7408 F       1  UNL1       -0.2044
     11 C          -6.1407    4.2727   24.4234 C.ar    1  UNL1        0.0294
     12 C          -6.7645    5.3194   25.2980 C.ar    1  UNL1        0.0023
     13 C          -5.9495    5.9888   26.3647 C.ar    1  UNL1        0.0014
     14 C          -4.5105    5.6114   26.5566 C.ar    1  UNL1        0.0173
     15 C          -3.4657    6.0952   27.5180 C.ar    1  UNL1        0.0804
     16 C          -3.2056    7.0411   28.6527 C.ar    1  UNL1        0.1178
     17 N          -1.7751    6.8779   29.0735 N.ar    1  UNL1       -0.2223
     18 C          -1.1511    5.8311   28.1989 C.ar    1  UNL1        0.1788
     19 N          -2.1960    5.3474   27.2375 N.ar    1  UNL1       -0.3069
     20 C           2.4323   -0.9021   20.1256 C.3     1  UNL1        0.0311
     21 C           2.4770   -0.6089   21.5960 C.ar    1  UNL1       -0.0205
     22 C           1.4814    0.3345   22.2033 C.ar    1  UNL1        0.0103
     23 C           1.5261    0.6277   23.6737 C.ar    1  UNL1        0.0475
     24 C           2.5664   -0.0226   24.5368 C.ar    1  UNL1        0.0145
     25 C           3.5619   -0.9661   23.9295 C.ar    1  UNL1        0.0011
     26 C           3.5173   -1.2592   22.4592 C.ar    1  UNL1       -0.0008
     27 C           4.5128   -2.2027   21.8519 C.ar    1  UNL1        0.0393
     28 C           4.3595   -3.6901   21.7338 C.ar    1  UNL1        0.1216
     29 N           5.5884   -4.2310   21.0650 N.ar    1  UNL1       -0.1676
     30 N           6.5012   -3.0779   20.7699 N.ar    1  UNL1       -0.2473
     31 C           7.8431   -3.1634   20.1051 C.3     1  UNL1        0.1538
     32 C           5.8364   -1.8242   21.2562 C.ar    1  UNL1        0.0967
@<TRIPOS>BOND
     1    20    21    1
     2    21    22   ar
     3    22    23   ar
     4    23     1    1
     5     1     2    1
     6     2     3    1
     7     3     4    1
     8     4     7    1
     9     7     8    1
    10     8     9   ar
    11     9    10    1
    12     9    11   ar
    13    11    12   ar
    14    12    13   ar
    15    13    14   ar
    16    14    15    1
    17    15    16   ar
    18    16    17   ar
    19    17    18   ar
    20    18    19   ar
    21     4     5    1
    22     5     6    1
    23    23    24   ar
    24    24    25   ar
    25    25    26   ar
    26    26    27    1
    27    27    28   ar
    28    28    29   ar
    29    29    30   ar
    30    30    31    1
    31    30    32   ar
    32    26    21   ar
    33    32    27   ar
    34     6     1    1
    35    19     7    1
    36    14     8   ar
    37    19    15   ar
@<TRIPOS>MOLECULE
*****
 32 37 0 0 0
SMALL
GASTEIGER

@<TRIPOS>ATOM
      1 N           1.1072    1.4712   23.0976 N.pl3   1  UNL1       -0.3075
      2 C           0.7506    0.9424   21.7400 C.3     1  UNL1        0.0908
      3 C           1.7701    0.1908   20.9363 C.3     1  UNL1        0.0237
      4 C           3.1461   -0.0319   21.4903 C.3     1  UNL1        0.0285
      5 C           3.5027    0.4969   22.8480 C.3     1  UNL1        0.0237
      6 C           2.4833    1.2485   23.6516 C.3     1  UNL1        0.0908
      7 C           4.1656   -0.7834   20.6866 C.3     1  UNL1        0.1117
      8 C           4.8432   -0.2927   19.4415 C.ar    1  UNL1        0.0272
      9 C           4.7259    0.9910   18.6745 C.ar    1  UNL1        0.1379
     10 F           3.7863    2.0619   19.1436 F       1  UNL1       -0.2044
     11 C           5.5483    1.2037   17.4381 C.ar    1  UNL1        0.0294
     12 C           6.4879    0.1328   16.9690 C.ar    1  UNL1        0.0023
     13 C           6.6052   -1.1509   17.7361 C.ar    1  UNL1        0.0014
     14 C           5.7829   -1.3637   18.9724 C.ar    1  UNL1        0.0173
     15 C           5.6861   -2.5163   19.9275 C.ar    1  UNL1        0.0804
     16 C           6.2070   -3.8905   20.2277 C.ar    1  UNL1        0.1178
     17 N           5.5294   -4.3811   21.4728 N.ar    1  UNL1       -0.2223
     18 C           4.5898   -3.3102   21.9420 C.ar    1  UNL1        0.1788
     19 N           4.6866   -2.1576   20.9869 N.ar    1  UNL1       -0.3069
     20 C          -1.3989    2.2592   27.5807 C.3     1  UNL1        0.0311
     21 C          -1.1653    2.6167   26.1429 C.ar    1  UNL1       -0.0205
     22 C          -0.1458    1.8652   25.3392 C.ar    1  UNL1        0.0103
     23 C           0.0877    2.2227   23.9012 C.ar    1  UNL1        0.0475
     24 C          -0.6982    3.3318   23.2670 C.ar    1  UNL1        0.0145
     25 C          -1.7177    4.0833   24.0706 C.ar    1  UNL1        0.0011
     26 C          -1.9513    3.7258   25.5085 C.ar    1  UNL1       -0.0008
     27 C          -2.9707    4.4773   26.3122 C.ar    1  UNL1        0.0393
     28 C          -4.3920    4.0589   26.5460 C.ar    1  UNL1        0.1216
     29 N          -5.0476    5.1022   27.4014 N.ar    1  UNL1       -0.1676
     30 N          -4.0314    6.1654   27.6962 N.ar    1  UNL1       -0.2473
     31 C          -4.2589    7.3985   28.5197 C.3     1  UNL1        0.1538
     32 C          -2.7478    5.7793   27.0230 C.ar    1  UNL1        0.0967
@<TRIPOS>BOND
     1    20    21    1
     2    21    22   ar
     3    22    23   ar
     4    23     1    1
     5     1     2    1
     6     2     3    1
     7     3     4    1
     8     4     7    1
     9     7     8    1
    10     8     9   ar
    11     9    10    1
    12     9    11   ar
    13    11    12   ar
    14    12    13   ar
    15    13    14   ar
    16    14    15    1
    17    15    16   ar
    18    16    17   ar
    19    17    18   ar
    20    18    19   ar
    21     4     5    1
    22     5     6    1
    23    23    24   ar
    24    24    25   ar
    25    25    26   ar
    26    26    27    1
    27    27    28   ar
    28    28    29   ar
    29    29    30   ar
    30    30    31    1
    31    30    32   ar
    32    26    21   ar
    33    32    27   ar
    34     6     1    1
    35    19     7    1
    36    14     8   ar
    37    19    15   ar
@<TRIPOS>MOLECULE
*****
 32 37 0 0 0
SMALL
GASTEIGER

@<TRIPOS>ATOM
      1 N          -0.0581    2.3810   20.4711 N.pl3   1  UNL1       -0.3075
      2 C           0.9556    1.8039   21.4142 C.3     1  UNL1        0.0908
      3 C           2.2096    1.1800   20.8774 C.3     1  UNL1        0.0237
      4 C           2.4499    1.1331   19.3975 C.3     1  UNL1        0.0285
      5 C           1.4362    1.7102   18.4544 C.3     1  UNL1        0.0237
      6 C           0.1822    2.3341   18.9912 C.3     1  UNL1        0.0908
      7 C           3.7039    0.5091   18.8607 C.3     1  UNL1        0.1117
      8 C           4.0387   -0.9530   18.8786 C.ar    1  UNL1        0.0272
      9 C           3.2916   -2.1475   19.3932 C.ar    1  UNL1        0.1379
     10 F           1.9454   -1.9725   20.0310 F       1  UNL1       -0.2044
     11 C           3.8909   -3.5171   19.2699 C.ar    1  UNL1        0.0294
     12 C           5.2371   -3.6921   18.6321 C.ar    1  UNL1        0.0023
     13 C           5.9842   -2.4975   18.1175 C.ar    1  UNL1        0.0014
     14 C           5.3851   -1.1280   18.2407 C.ar    1  UNL1        0.0173
     15 C           5.8823    0.2259   17.8287 C.ar    1  UNL1        0.0804
     16 C           7.0217    0.9545   17.1798 C.ar    1  UNL1        0.1178
     17 N           6.6869    2.4165   17.1620 N.ar    1  UNL1       -0.2223
     18 C           5.3406    2.5916   17.7999 C.ar    1  UNL1        0.1788
     19 N           4.8433    1.2377   18.2119 N.ar    1  UNL1       -0.3069
     20 C          -4.9492    3.9833   19.7572 C.3     1  UNL1        0.0311
     21 C          -3.7577    3.8061   20.6509 C.ar    1  UNL1       -0.0205
     22 C          -2.5037    3.1821   20.1141 C.ar    1  UNL1        0.0103
     23 C          -1.3121    3.0049   21.0079 C.ar    1  UNL1        0.0475
     24 C          -1.3746    3.4516   22.4385 C.ar    1  UNL1        0.0145
     25 C          -2.6286    4.0755   22.9753 C.ar    1  UNL1        0.0011
     26 C          -3.8201    4.2528   22.0815 C.ar    1  UNL1       -0.0008
     27 C          -5.0741    4.8767   22.6183 C.ar    1  UNL1        0.0393
     28 C          -5.3758    6.3451   22.6704 C.ar    1  UNL1        0.1216
     29 N          -6.7348    6.5177   23.2815 N.ar    1  UNL1       -0.1676
     30 N          -7.2729    5.1560   23.6072 N.ar    1  UNL1       -0.2473
     31 C          -8.6038    4.8603   24.2329 C.3     1  UNL1        0.1538
     32 C          -6.2466    4.1417   23.1973 C.ar    1  UNL1        0.0967
@<TRIPOS>BOND
     1    20    21    1
     2    21    22   ar
     3    22    23   ar
     4    23     1    1
     5     1     2    1
     6     2     3    1
     7     3     4    1
     8     4     7    1
     9     7     8    1
    10     8     9   ar
    11     9    10    1
    12     9    11   ar
    13    11    12   ar
    14    12    13   ar
    15    13    14   ar
    16    14    15    1
    17    15    16   ar
    18    16    17   ar
    19    17    18   ar
    20    18    19   ar
    21     4     5    1
    22     5     6    1
    23    23    24   ar
    24    24    25   ar
    25    25    26   ar
    26    26    27    1
    27    27    28   ar
    28    28    29   ar
    29    29    30   ar
    30    30    31    1
    31    30    32   ar
    32    26    21   ar
    33    32    27   ar
    34     6     1    1
    35    19     7    1
    36    14     8   ar
    37    19    15   ar
@<TRIPOS>MOLECULE
*****
 32 37 0 0 0
SMALL
GASTEIGER

@<TRIPOS>ATOM
      1 N           5.1645   -0.9930   31.9929 N.pl3   1  UNL1       -0.3075
      2 C           3.7023   -0.6943   31.8420 C.3     1  UNL1        0.0908
      3 C           3.0517    0.3318   32.7216 C.3     1  UNL1        0.0237
      4 C           3.8633    1.0593   33.7522 C.3     1  UNL1        0.0285
      5 C           5.3255    0.7606   33.9032 C.3     1  UNL1        0.0237
      6 C           5.9761   -0.2655   33.0235 C.3     1  UNL1        0.0908
      7 C           3.2126    2.0854   34.6318 C.3     1  UNL1        0.1117
      8 C           3.0975    2.0203   36.1261 C.ar    1  UNL1        0.0272
      9 C           3.5559    0.9991   37.1245 C.ar    1  UNL1        0.1379
     10 F           4.2768   -0.2319   36.6612 F       1  UNL1       -0.2044
     11 C           3.2935    1.2091   38.5865 C.ar    1  UNL1        0.0294
     12 C           2.5726    2.4402   39.0497 C.ar    1  UNL1        0.0023
     13 C           2.1142    3.4614   38.0513 C.ar    1  UNL1        0.0014
     14 C           2.3766    3.2515   36.5894 C.ar    1  UNL1        0.0173
     15 C           2.0462    4.0774   35.3816 C.ar    1  UNL1        0.0804
     16 C           1.3965    5.3487   34.9216 C.ar    1  UNL1        0.1178
     17 N           1.5117    5.4137   33.4274 N.ar    1  UNL1       -0.2223
     18 C           2.2325    4.1826   32.9640 C.ar    1  UNL1        0.1788
     19 N           2.5629    3.3567   34.1718 N.ar    1  UNL1       -0.3069
     20 C           7.1743   -5.7405   31.3440 C.3     1  UNL1        0.0311
     21 C           6.8201   -4.3929   30.7888 C.ar    1  UNL1       -0.0205
     22 C           6.1694   -3.3668   31.6685 C.ar    1  UNL1        0.0103
     23 C           5.8151   -2.0191   31.1132 C.ar    1  UNL1        0.0475
     24 C           6.1115   -1.6975   29.6784 C.ar    1  UNL1        0.0145
     25 C           6.7621   -2.7236   28.7988 C.ar    1  UNL1        0.0011
     26 C           7.1164   -4.0713   29.3539 C.ar    1  UNL1       -0.0008
     27 C           7.7670   -5.0974   28.4743 C.ar    1  UNL1        0.0393
     28 C           9.2216   -5.4636   28.4739 C.ar    1  UNL1        0.1216
     29 N           9.4308   -6.5299   27.4400 N.ar    1  UNL1       -0.1676
     30 N           8.1056   -6.8228   26.8014 N.ar    1  UNL1       -0.2473
     31 C           7.8529   -7.8251   25.7143 C.3     1  UNL1        0.1538
     32 C           7.0772   -5.9374   27.4406 C.ar    1  UNL1        0.0967
@<TRIPOS>BOND
     1    20    21    1
     2    21    22   ar
     3    22    23   ar
     4    23     1    1
     5     1     2    1
     6     2     3    1
     7     3     4    1
     8     4     7    1
     9     7     8    1
    10     8     9   ar
    11     9    10    1
    12     9    11   ar
    13    11    12   ar
    14    12    13   ar
    15    13    14   ar
    16    14    15    1
    17    15    16   ar
    18    16    17   ar
    19    17    18   ar
    20    18    19   ar
    21     4     5    1
    22     5     6    1
    23    23    24   ar
    24    24    25   ar
    25    25    26   ar
    26    26    27    1
    27    27    28   ar
    28    28    29   ar
    29    29    30   ar
    30    30    31    1
    31    30    32   ar
    32    26    21   ar
    33    32    27   ar
    34     6     1    1
    35    19     7    1
    36    14     8   ar
    37    19    15   ar
@<TRIPOS>MOLECULE
*****
 32 37 0 0 0
SMALL
GASTEIGER

@<TRIPOS>ATOM
      1 N          -1.9802    3.3844   21.1903 N.pl3   1  UNL1       -0.3075
      2 C          -1.7563    3.4875   19.7107 C.3     1  UNL1        0.0908
      3 C          -0.4486    3.0534   19.1180 C.3     1  UNL1        0.0237
      4 C           0.6353    2.5162   20.0049 C.3     1  UNL1        0.0285
      5 C           0.4114    2.4130   21.4845 C.3     1  UNL1        0.0237
      6 C          -0.8963    2.8471   22.0772 C.3     1  UNL1        0.0908
      7 C           1.9431    2.0820   19.4121 C.3     1  UNL1        0.1117
      8 C           2.4786    0.6810   19.3886 C.ar    1  UNL1        0.0272
      9 C           1.9248   -0.6140   19.9046 C.ar    1  UNL1        0.1379
     10 F           0.5921   -0.6388   20.5923 F       1  UNL1       -0.2044
     11 C           2.7040   -1.8843   19.7328 C.ar    1  UNL1        0.0294
     12 C           4.0367   -1.8594   19.0450 C.ar    1  UNL1        0.0023
     13 C           4.5905   -0.5644   18.5290 C.ar    1  UNL1        0.0014
     14 C           3.8114    0.7059   18.7008 C.ar    1  UNL1        0.0173
     15 C           4.0996    2.1221   18.2993 C.ar    1  UNL1        0.0804
     16 C           5.1014    3.0127   17.6260 C.ar    1  UNL1        0.1178
     17 N           4.5658    4.4136   17.6496 N.ar    1  UNL1       -0.2223
     18 C           3.2330    4.3888   18.3374 C.ar    1  UNL1        0.1788
     19 N           2.9449    2.9726   18.7389 N.ar    1  UNL1       -0.3069
     20 C          -5.0773    3.9614   25.3225 C.3     1  UNL1        0.0311
     21 C          -4.8365    4.1070   23.8491 C.ar    1  UNL1       -0.0205
     22 C          -3.5288    3.6729   23.2564 C.ar    1  UNL1        0.0103
     23 C          -3.2880    3.8185   21.7830 C.ar    1  UNL1        0.0475
     24 C          -4.3549    4.3982   20.9024 C.ar    1  UNL1        0.0145
     25 C          -5.6627    4.8323   21.4951 C.ar    1  UNL1        0.0011
     26 C          -5.9035    4.6867   22.9684 C.ar    1  UNL1       -0.0008
     27 C          -7.2112    5.1209   23.5612 C.ar    1  UNL1        0.0393
     28 C          -8.3928    4.2376   23.8322 C.ar    1  UNL1        0.1216
     29 N          -9.4789    5.0853   24.4254 N.ar    1  UNL1       -0.1676
     30 N          -8.9684    6.4925   24.5210 N.ar    1  UNL1       -0.2473
     31 C          -9.7264    7.6709   25.0567 C.3     1  UNL1        0.1538
     32 C          -7.5669    6.5146   23.9868 C.ar    1  UNL1        0.0967
@<TRIPOS>BOND
     1    20    21    1
     2    21    22   ar
     3    22    23   ar
     4    23     1    1
     5     1     2    1
     6     2     3    1
     7     3     4    1
     8     4     7    1
     9     7     8    1
    10     8     9   ar
    11     9    10    1
    12     9    11   ar
    13    11    12   ar
    14    12    13   ar
    15    13    14   ar
    16    14    15    1
    17    15    16   ar
    18    16    17   ar
    19    17    18   ar
    20    18    19   ar
    21     4     5    1
    22     5     6    1
    23    23    24   ar
    24    24    25   ar
    25    25    26   ar
    26    26    27    1
    27    27    28   ar
    28    28    29   ar
    29    29    30   ar
    30    30    31    1
    31    30    32   ar
    32    26    21   ar
    33    32    27   ar
    34     6     1    1
    35    19     7    1
    36    14     8   ar
    37    19    15   ar
@<TRIPOS>MOLECULE
*****
 32 37 0 0 0
SMALL
GASTEIGER

@<TRIPOS>ATOM
      1 N           5.5157   -1.3646   32.6596 N.pl3   1  UNL1       -0.3075
      2 C           4.5601   -1.7946   33.7328 C.3     1  UNL1        0.0908
      3 C           3.9526   -0.7741   34.6491 C.3     1  UNL1        0.0237
      4 C           4.3007    0.6764   34.4921 C.3     1  UNL1        0.0285
      5 C           5.2564    1.1065   33.4188 C.3     1  UNL1        0.0237
      6 C           5.8639    0.0860   32.5026 C.3     1  UNL1        0.0908
      7 C           3.6932    1.6969   35.4083 C.3     1  UNL1        0.1117
      8 C           2.7401    2.7842   35.0088 C.ar    1  UNL1        0.0272
      9 C           2.1459    3.1613   33.6842 C.ar    1  UNL1        0.1379
     10 F           2.4960    2.3770   32.4546 F       1  UNL1       -0.2044
     11 C           1.2015    4.3229   33.5893 C.ar    1  UNL1        0.0294
     12 C           0.8514    5.1072   34.8190 C.ar    1  UNL1        0.0023
     13 C           1.4456    4.7301   36.1436 C.ar    1  UNL1        0.0014
     14 C           2.3900    3.5686   36.2386 C.ar    1  UNL1        0.0173
     15 C           3.1267    2.9661   37.3980 C.ar    1  UNL1        0.0804
     16 C           3.3655    3.0786   38.8746 C.ar    1  UNL1        0.1178
     17 N           4.3186    1.9913   39.2741 N.ar    1  UNL1       -0.2223
     18 C           4.6687    1.2069   38.0444 C.ar    1  UNL1        0.1788
     19 N           3.9321    1.8094   36.8849 N.ar    1  UNL1       -0.3069
     20 C           7.5041   -2.6400   28.0315 C.3     1  UNL1        0.0311
     21 C           7.1174   -3.0228   29.4293 C.ar    1  UNL1       -0.0205
     22 C           6.5099   -2.0023   30.3455 C.ar    1  UNL1        0.0103
     23 C           6.1232   -2.3851   31.7434 C.ar    1  UNL1        0.0475
     24 C           6.3440   -3.7884   32.2250 C.ar    1  UNL1        0.0145
     25 C           6.9515   -4.8089   31.3087 C.ar    1  UNL1        0.0011
     26 C           7.3382   -4.4262   29.9109 C.ar    1  UNL1       -0.0008
     27 C           7.9457   -5.4467   28.9947 C.ar    1  UNL1        0.0393
     28 C           9.3601   -5.9437   29.0428 C.ar    1  UNL1        0.1216
     29 N           9.5340   -6.9535   27.9473 N.ar    1  UNL1       -0.1676
     30 N           8.2271   -7.0806   27.2223 N.ar    1  UNL1       -0.2473
     31 C           7.9504   -7.9809   26.0548 C.3     1  UNL1        0.1538
     32 C           7.2454   -6.1492   27.8696 C.ar    1  UNL1        0.0967
@<TRIPOS>BOND
     1    20    21    1
     2    21    22   ar
     3    22    23   ar
     4    23     1    1
     5     1     2    1
     6     2     3    1
     7     3     4    1
     8     4     7    1
     9     7     8    1
    10     8     9   ar
    11     9    10    1
    12     9    11   ar
    13    11    12   ar
    14    12    13   ar
    15    13    14   ar
    16    14    15    1
    17    15    16   ar
    18    16    17   ar
    19    17    18   ar
    20    18    19   ar
    21     4     5    1
    22     5     6    1
    23    23    24   ar
    24    24    25   ar
    25    25    26   ar
    26    26    27    1
    27    27    28   ar
    28    28    29   ar
    29    29    30   ar
    30    30    31    1
    31    30    32   ar
    32    26    21   ar
    33    32    27   ar
    34     6     1    1
    35    19     7    1
    36    14     8   ar
    37    19    15   ar
