@<TRIPOS>MOLECULE
*****
 30 34 0 0 0
SMALL
GASTEIGER

@<TRIPOS>ATOM
      1 C          -7.3907  -19.4572   21.1287 C.ar    1  UNL1        0.0009
      2 C          -7.7856  -19.8153   22.5308 C.ar    1  UNL1       -0.0002
      3 C          -9.1484  -19.4526   23.0421 C.ar    1  UNL1       -0.0026
      4 C         -10.1162  -18.7318   22.1512 C.ar    1  UNL1       -0.0010
      5 C          -9.7213  -18.3736   20.7491 C.ar    1  UNL1        0.0467
      6 C          -8.3586  -18.7363   20.2379 C.ar    1  UNL1        0.0144
      7 N         -10.8790  -17.6680   20.1073 N.am    1  UNL1       -0.2839
      8 C         -11.9894  -17.5900   21.1128 C.2     1  UNL1        0.2292
      9 O         -13.3350  -16.9645   20.8936 O.2     1  UNL1       -0.2745
     10 C         -11.5180  -18.2475   22.3760 C.3     1  UNL1        0.0938
     11 C         -10.9111  -18.9323   23.5646 C.3     1  UNL1        0.0449
     12 C         -11.7025  -19.0796   24.8302 C.3     1  UNL1        0.1430
     13 O         -13.1008  -18.5421   24.9073 O.3     1  UNL1       -0.3537
     14 C         -13.7077  -17.8574   23.7188 C.3     1  UNL1        0.1430
     15 C         -12.9163  -17.7101   22.4531 C.3     1  UNL1        0.0449
     16 H         -10.9055  -17.3175   19.1877 H       1  UNL1        0.1549
     17 C          -3.5255  -19.2195   20.2605 C.ar    1  UNL1        0.0357
     18 C          -3.3024  -20.5452   19.5952 C.ar    1  UNL1        0.0027
     19 C          -4.4421  -21.5083   19.4410 C.ar    1  UNL1       -0.0042
     20 C          -5.8048  -21.1456   19.9522 C.ar    1  UNL1       -0.0218
     21 C          -6.9445  -22.1086   19.7981 C.3     1  UNL1        0.0310
     22 C          -6.0280  -19.8198   20.6176 C.ar    1  UNL1       -0.0038
     23 C          -4.8883  -18.8568   20.7717 C.ar    1  UNL1        0.0027
     24 C           1.3080  -17.0979   20.1356 C.3     1  UNL1        0.0736
     25 C          -0.1641  -17.2813   20.3572 C.ar    1  UNL1        0.1404
     26 N          -1.1000  -16.2679   20.9464 N.ar    1  UNL1       -0.1336
     27 N          -2.4731  -16.8706   20.9819 N.ar    1  UNL1       -0.1293
     28 C          -2.3858  -18.2565   20.4146 C.ar    1  UNL1        0.1629
     29 N          -0.9588  -18.5103   20.0286 N.ar    1  UNL1       -0.3246
     30 H          -0.6057  -19.3382   19.6296 H       1  UNL1        0.1686
@<TRIPOS>BOND
     1    24    25    1
     2    25    26   ar
     3    26    27   ar
     4    27    28   ar
     5    28    17    1
     6    17    18   ar
     7    18    19   ar
     8    19    20   ar
     9    20    21    1
    10    20    22   ar
    11    22     1    1
    12     1     2   ar
    13     2     3   ar
    14     3     4   ar
    15     4     5   ar
    16     5     6   ar
    17     5     7    1
    18     7     8   am
    19     8     9    2
    20     8    10    1
    21    10    11    1
    22    11    12    1
    23    12    13    1
    24    13    14    1
    25    14    15    1
    26    22    23   ar
    27    28    29   ar
    28    29    25   ar
    29    23    17   ar
    30     6     1   ar
    31    15    10    1
    32    10     4    1
    33     7    16    1
    34    29    30    1
@<TRIPOS>MOLECULE
*****
 30 34 0 0 0
SMALL
GASTEIGER

@<TRIPOS>ATOM
      1 C         -14.1574   -1.6403   18.9750 C.ar    1  UNL1        0.0009
      2 C         -12.6747   -1.6557   19.2014 C.ar    1  UNL1       -0.0002
      3 C         -11.9196   -2.9502   19.1381 C.ar    1  UNL1       -0.0026
      4 C         -12.6473   -4.2295   18.8484 C.ar    1  UNL1       -0.0010
      5 C         -14.1301   -4.2141   18.6220 C.ar    1  UNL1        0.0467
      6 C         -14.8851   -2.9196   18.6853 C.ar    1  UNL1        0.0144
      7 N         -14.5733   -5.6227   18.3581 N.am    1  UNL1       -0.2839
      8 C         -13.3645   -6.5086   18.4215 C.2     1  UNL1        0.2292
      9 O         -13.3487   -7.9945   18.2177 O.2     1  UNL1       -0.2745
     10 C         -12.1742   -5.6475   18.7245 C.3     1  UNL1        0.0938
     11 C         -11.0828   -4.6646   19.0292 C.3     1  UNL1        0.0449
     12 C          -9.6679   -5.1384   19.1815 C.3     1  UNL1        0.1430
     13 O          -9.3442   -6.5951   19.0292 O.3     1  UNL1       -0.3537
     14 C         -10.4355   -7.5780   18.7246 C.3     1  UNL1        0.1430
     15 C         -11.8505   -7.1042   18.5722 C.3     1  UNL1        0.0449
     16 H         -15.4957   -5.9145   18.1754 H       1  UNL1        0.1549
     17 C         -16.7159    1.1549   20.1544 C.ar    1  UNL1        0.0357
     18 C         -16.4224    2.2434   19.1649 C.ar    1  UNL1        0.0027
     19 C         -15.3739    2.0373   18.1121 C.ar    1  UNL1       -0.0042
     20 C         -14.6190    0.7428   18.0488 C.ar    1  UNL1       -0.0218
     21 C         -13.5705    0.5367   16.9961 C.3     1  UNL1        0.0310
     22 C         -14.9124   -0.3458   19.0383 C.ar    1  UNL1       -0.0038
     23 C         -15.9608   -0.1397   20.0911 C.ar    1  UNL1        0.0027
     24 C         -19.3530    3.0717   24.3079 C.3     1  UNL1        0.0736
     25 C         -18.9764    2.2421   23.1163 C.ar    1  UNL1        0.1404
     26 N         -19.7789    1.1144   22.5380 N.ar    1  UNL1       -0.1336
     27 N         -19.0297    0.5699   21.3581 N.ar    1  UNL1       -0.1293
     28 C         -17.7643    1.3610   21.2071 C.ar    1  UNL1        0.1629
     29 N         -17.7314    2.3945   22.2938 N.ar    1  UNL1       -0.3246
     30 H         -17.0179    3.0566   22.4413 H       1  UNL1        0.1686
@<TRIPOS>BOND
     1    24    25    1
     2    25    26   ar
     3    26    27   ar
     4    27    28   ar
     5    28    17    1
     6    17    18   ar
     7    18    19   ar
     8    19    20   ar
     9    20    21    1
    10    20    22   ar
    11    22     1    1
    12     1     2   ar
    13     2     3   ar
    14     3     4   ar
    15     4     5   ar
    16     5     6   ar
    17     5     7    1
    18     7     8   am
    19     8     9    2
    20     8    10    1
    21    10    11    1
    22    11    12    1
    23    12    13    1
    24    13    14    1
    25    14    15    1
    26    22    23   ar
    27    28    29   ar
    28    29    25   ar
    29    23    17   ar
    30     6     1   ar
    31    15    10    1
    32    10     4    1
    33     7    16    1
    34    29    30    1
@<TRIPOS>MOLECULE
*****
 30 34 0 0 0
SMALL
GASTEIGER

@<TRIPOS>ATOM
      1 C           0.1500    3.0946   18.6541 C.ar    1  UNL1        0.0009
      2 C          -0.6371    3.5843   17.4749 C.ar    1  UNL1       -0.0002
      3 C          -2.1021    3.8727   17.6184 C.ar    1  UNL1       -0.0026
      4 C          -2.7801    3.6713   18.9412 C.ar    1  UNL1       -0.0010
      5 C          -1.9929    3.1816   20.1205 C.ar    1  UNL1        0.0467
      6 C          -0.5280    2.8933   19.9770 C.ar    1  UNL1        0.0144
      7 N          -2.9264    3.0781   21.2901 N.am    1  UNL1       -0.2839
      8 C          -4.2904    3.5038   20.8337 C.2     1  UNL1        0.2292
      9 O          -5.5276    3.5540   21.6802 O.2     1  UNL1       -0.2745
     10 C          -4.2000    3.8704   19.3819 C.3     1  UNL1        0.0938
     11 C          -3.9570    4.2007   17.9391 C.3     1  UNL1        0.0449
     12 C          -5.0879    4.6819   17.0792 C.3     1  UNL1        0.1430
     13 O          -6.4617    4.8328   17.6621 O.3     1  UNL1       -0.3537
     14 C          -6.7047    4.5026   19.1049 C.3     1  UNL1        0.1430
     15 C          -5.5738    4.0214   19.9648 C.3     1  UNL1        0.0449
     16 H          -2.6861    2.7826   22.1980 H       1  UNL1        0.1549
     17 C           3.5592    1.0999   18.2691 C.ar    1  UNL1        0.0357
     18 C           4.5450    2.2296   18.2235 C.ar    1  UNL1        0.0027
     19 C           4.0657    3.6477   18.3215 C.ar    1  UNL1       -0.0042
     20 C           2.6008    3.9360   18.4650 C.ar    1  UNL1       -0.0218
     21 C           2.1215    5.3540   18.5629 C.3     1  UNL1        0.0310
     22 C           1.6149    2.8063   18.5106 C.ar    1  UNL1       -0.0038
     23 C           2.0942    1.3883   18.4127 C.ar    1  UNL1        0.0027
     24 C           4.1018   -4.0861   19.0998 C.3     1  UNL1        0.0736
     25 C           4.2879   -2.7018   18.5531 C.ar    1  UNL1        0.1404
     26 N           5.2641   -2.2984   17.4881 N.ar    1  UNL1       -0.1336
     27 N           5.1099   -0.8251   17.2520 N.ar    1  UNL1       -0.1293
     28 C           4.0385   -0.3181   18.1712 C.ar    1  UNL1        0.1629
     29 N           3.5304   -1.4779   18.9753 N.ar    1  UNL1       -0.3246
     30 H           2.8239   -1.4422   19.6599 H       1  UNL1        0.1686
@<TRIPOS>BOND
     1    24    25    1
     2    25    26   ar
     3    26    27   ar
     4    27    28   ar
     5    28    17    1
     6    17    18   ar
     7    18    19   ar
     8    19    20   ar
     9    20    21    1
    10    20    22   ar
    11    22     1    1
    12     1     2   ar
    13     2     3   ar
    14     3     4   ar
    15     4     5   ar
    16     5     6   ar
    17     5     7    1
    18     7     8   am
    19     8     9    2
    20     8    10    1
    21    10    11    1
    22    11    12    1
    23    12    13    1
    24    13    14    1
    25    14    15    1
    26    22    23   ar
    27    28    29   ar
    28    29    25   ar
    29    23    17   ar
    30     6     1   ar
    31    15    10    1
    32    10     4    1
    33     7    16    1
    34    29    30    1
@<TRIPOS>MOLECULE
*****
 30 34 0 0 0
SMALL
GASTEIGER

@<TRIPOS>ATOM
      1 C           0.5011    2.8894   18.8596 C.ar    1  UNL1        0.0009
      2 C          -0.0536    2.6989   20.2401 C.ar    1  UNL1       -0.0002
      3 C          -1.4977    2.9970   20.5160 C.ar    1  UNL1       -0.0026
      4 C          -2.3869    3.4855   19.4112 C.ar    1  UNL1       -0.0010
      5 C          -1.8321    3.6760   18.0305 C.ar    1  UNL1        0.0467
      6 C          -0.3882    3.3779   17.7548 C.ar    1  UNL1        0.0144
      7 N          -2.9419    4.1667   17.1487 N.am    1  UNL1       -0.2839
      8 C          -4.1825    4.2796   17.9843 C.2     1  UNL1        0.2292
      9 O          -5.5296    4.7337   17.5057 O.2     1  UNL1       -0.2745
     10 C          -3.8395    3.8586   19.3826 C.3     1  UNL1        0.0938
     11 C          -3.3504    3.4132   20.7288 C.3     1  UNL1        0.0449
     12 C          -4.2942    3.3724   21.8939 C.3     1  UNL1        0.1430
     13 O          -5.7272    3.7770   21.7128 O.3     1  UNL1       -0.3537
     14 C          -6.2164    4.2224   20.3666 C.3     1  UNL1        0.1430
     15 C          -5.2725    4.2632   19.2015 C.3     1  UNL1        0.0449
     16 H          -2.8689    4.3777   16.1899 H       1  UNL1        0.1549
     17 C           3.8618    0.8712   18.2409 C.ar    1  UNL1        0.0357
     18 C           4.8330    1.9952   18.0322 C.ar    1  UNL1        0.0027
     19 C           4.3602    3.4172   18.0993 C.ar    1  UNL1       -0.0042
     20 C           2.9163    3.7152   18.3751 C.ar    1  UNL1       -0.0218
     21 C           2.4435    5.1372   18.4423 C.3     1  UNL1        0.0310
     22 C           1.9450    2.5913   18.5838 C.ar    1  UNL1       -0.0038
     23 C           2.4178    1.1694   18.5167 C.ar    1  UNL1        0.0027
     24 C           4.2324   -4.3392   19.0115 C.3     1  UNL1        0.0736
     25 C           4.5049   -2.9457   18.5280 C.ar    1  UNL1        0.1404
     26 N           5.6192   -2.5321   17.6130 N.ar    1  UNL1       -0.1336
     27 N           5.5140   -1.0518   17.3941 N.ar    1  UNL1       -0.1293
     28 C           4.3346   -0.5507   18.1738 C.ar    1  UNL1        0.1629
     29 N           3.7110   -1.7212   18.8745 N.ar    1  UNL1       -0.3246
     30 H           2.9195   -1.6910   19.4593 H       1  UNL1        0.1686
@<TRIPOS>BOND
     1    24    25    1
     2    25    26   ar
     3    26    27   ar
     4    27    28   ar
     5    28    17    1
     6    17    18   ar
     7    18    19   ar
     8    19    20   ar
     9    20    21    1
    10    20    22   ar
    11    22     1    1
    12     1     2   ar
    13     2     3   ar
    14     3     4   ar
    15     4     5   ar
    16     5     6   ar
    17     5     7    1
    18     7     8   am
    19     8     9    2
    20     8    10    1
    21    10    11    1
    22    11    12    1
    23    12    13    1
    24    13    14    1
    25    14    15    1
    26    22    23   ar
    27    28    29   ar
    28    29    25   ar
    29    23    17   ar
    30     6     1   ar
    31    15    10    1
    32    10     4    1
    33     7    16    1
    34    29    30    1
@<TRIPOS>MOLECULE
*****
 30 34 0 0 0
SMALL
GASTEIGER

@<TRIPOS>ATOM
      1 C           7.0205   -3.9962   25.4516 C.ar    1  UNL1        0.0009
      2 C           6.9257   -2.6569   26.1203 C.ar    1  UNL1       -0.0002
      3 C           6.8464   -2.5690   27.6157 C.ar    1  UNL1       -0.0026
      4 C           6.8620   -3.8205   28.4423 C.ar    1  UNL1       -0.0010
      5 C           6.9568   -5.1600   27.7736 C.ar    1  UNL1        0.0467
      6 C           7.0360   -5.2478   26.2784 C.ar    1  UNL1        0.0144
      7 N           6.9511   -6.2129   28.8420 N.am    1  UNL1       -0.2839
      8 C           6.8528   -5.5242   30.1710 C.2     1  UNL1        0.2292
      9 O           6.8160   -6.1960   31.5116 O.2     1  UNL1       -0.2745
     10 C           6.7977   -4.0457   29.9240 C.3     1  UNL1        0.0938
     11 C           6.7518   -2.6008   29.5238 C.3     1  UNL1        0.0449
     12 C           6.6503   -1.5346   30.5740 C.3     1  UNL1        0.1430
     13 O           6.5946   -1.9133   32.0243 O.3     1  UNL1       -0.3537
     14 C           6.6405   -3.3582   32.4245 C.3     1  UNL1        0.1430
     15 C           6.7420   -4.4244   31.3743 C.3     1  UNL1        0.0449
     16 H           7.0028   -7.1852   28.6966 H       1  UNL1        0.1549
     17 C           6.0658   -3.6248   21.6175 C.ar    1  UNL1        0.0357
     18 C           7.2582   -4.2597   20.9657 C.ar    1  UNL1        0.0027
     19 C           8.3715   -4.8068   21.8092 C.ar    1  UNL1       -0.0042
     20 C           8.2922   -4.7189   23.3045 C.ar    1  UNL1       -0.0218
     21 C           9.4054   -5.2660   24.1480 C.3     1  UNL1        0.0310
     22 C           7.0997   -4.0840   23.9564 C.ar    1  UNL1       -0.0038
     23 C           5.9866   -3.5370   23.1129 C.ar    1  UNL1        0.0027
     24 C           1.7888   -0.9416   20.0721 C.3     1  UNL1        0.0736
     25 C           2.9867   -1.8444   20.0637 C.ar    1  UNL1        0.1404
     26 N           3.4924   -2.6273   18.8884 N.ar    1  UNL1       -0.1336
     27 N           4.7074   -3.3895   19.3274 N.ar    1  UNL1       -0.1293
     28 C           4.9526   -3.0777   20.7740 C.ar    1  UNL1        0.1629
     29 N           3.8891   -2.1228   21.2291 N.ar    1  UNL1       -0.3246
     30 H           3.7992   -1.7450   22.1338 H       1  UNL1        0.1686
@<TRIPOS>BOND
     1    24    25    1
     2    25    26   ar
     3    26    27   ar
     4    27    28   ar
     5    28    17    1
     6    17    18   ar
     7    18    19   ar
     8    19    20   ar
     9    20    21    1
    10    20    22   ar
    11    22     1    1
    12     1     2   ar
    13     2     3   ar
    14     3     4   ar
    15     4     5   ar
    16     5     6   ar
    17     5     7    1
    18     7     8   am
    19     8     9    2
    20     8    10    1
    21    10    11    1
    22    11    12    1
    23    12    13    1
    24    13    14    1
    25    14    15    1
    26    22    23   ar
    27    28    29   ar
    28    29    25   ar
    29    23    17   ar
    30     6     1   ar
    31    15    10    1
    32    10     4    1
    33     7    16    1
    34    29    30    1
@<TRIPOS>MOLECULE
*****
 30 34 0 0 0
SMALL
GASTEIGER

@<TRIPOS>ATOM
      1 C           7.2030   -4.7710   23.5239 C.ar    1  UNL1        0.0009
      2 C           8.1632   -4.5421   22.3946 C.ar    1  UNL1       -0.0002
      3 C           7.7380   -3.7427   21.1987 C.ar    1  UNL1       -0.0026
      4 C           6.3523   -3.1722   21.1322 C.ar    1  UNL1       -0.0010
      5 C           5.3919   -3.4010   22.2616 C.ar    1  UNL1        0.0467
      6 C           5.8173   -4.2004   23.4574 C.ar    1  UNL1        0.0144
      7 N           4.1008   -2.7195   21.9174 N.am    1  UNL1       -0.2839
      8 C           4.2631   -2.0694   20.5754 C.2     1  UNL1        0.2292
      9 O           3.2176   -1.2785   19.8465 O.2     1  UNL1       -0.2745
     10 C           5.6547   -2.3492   20.0900 C.3     1  UNL1        0.0938
     11 C           7.0679   -2.7084   19.7385 C.3     1  UNL1        0.0449
     12 C           7.6581   -2.2464   18.4392 C.3     1  UNL1        0.1430
     13 O           6.8350   -1.4251   17.4915 O.3     1  UNL1       -0.3537
     14 C           5.4218   -1.0659   17.8431 C.3     1  UNL1        0.1430
     15 C           4.8316   -1.5280   19.1423 C.3     1  UNL1        0.0449
     16 H           3.2892   -2.7019   22.4745 H       1  UNL1        0.1549
     17 C           7.7196   -5.8889   27.2967 C.ar    1  UNL1        0.0357
     18 C           8.4789   -7.1691   27.1115 C.ar    1  UNL1        0.0027
     19 C           8.8130   -7.6500   25.7304 C.ar    1  UNL1       -0.0042
     20 C           8.3877   -6.8506   24.5346 C.ar    1  UNL1       -0.0218
     21 C           8.7217   -7.3315   23.1536 C.3     1  UNL1        0.0310
     22 C           7.6283   -5.5703   24.7197 C.ar    1  UNL1       -0.0038
     23 C           7.2942   -5.0895   26.1007 C.ar    1  UNL1        0.0027
     24 C           6.1480   -2.8361   31.3079 C.3     1  UNL1        0.0736
     25 C           6.6632   -4.0048   30.5214 C.ar    1  UNL1        0.1404
     26 N           7.0798   -5.3313   31.0842 N.ar    1  UNL1       -0.1336
     27 N           7.5263   -6.1986   29.9446 N.ar    1  UNL1       -0.1293
     28 C           7.3855   -5.4080   28.6777 C.ar    1  UNL1        0.1629
     29 N           6.8521   -4.0522   29.0342 N.ar    1  UNL1       -0.3246
     30 H           6.6598   -3.3217   28.4028 H       1  UNL1        0.1686
@<TRIPOS>BOND
     1    24    25    1
     2    25    26   ar
     3    26    27   ar
     4    27    28   ar
     5    28    17    1
     6    17    18   ar
     7    18    19   ar
     8    19    20   ar
     9    20    21    1
    10    20    22   ar
    11    22     1    1
    12     1     2   ar
    13     2     3   ar
    14     3     4   ar
    15     4     5   ar
    16     5     6   ar
    17     5     7    1
    18     7     8   am
    19     8     9    2
    20     8    10    1
    21    10    11    1
    22    11    12    1
    23    12    13    1
    24    13    14    1
    25    14    15    1
    26    22    23   ar
    27    28    29   ar
    28    29    25   ar
    29    23    17   ar
    30     6     1   ar
    31    15    10    1
    32    10     4    1
    33     7    16    1
    34    29    30    1
@<TRIPOS>MOLECULE
*****
 30 34 0 0 0
SMALL
GASTEIGER

@<TRIPOS>ATOM
      1 C           1.6755    0.8750   20.5634 C.ar    1  UNL1        0.0009
      2 C           2.2042    1.0123   21.9604 C.ar    1  UNL1       -0.0002
      3 C           3.0768   -0.0607   22.5411 C.ar    1  UNL1       -0.0026
      4 C           3.4207   -1.2712   21.7246 C.ar    1  UNL1       -0.0010
      5 C           2.8919   -1.4086   20.3276 C.ar    1  UNL1        0.0467
      6 C           2.0194   -0.3356   19.7470 C.ar    1  UNL1        0.0144
      7 N           3.3965   -2.7050   19.7664 N.am    1  UNL1       -0.2839
      8 C           4.2371   -3.3687   20.8166 C.2     1  UNL1        0.2292
      9 O           4.9394   -4.6871   20.6805 O.2     1  UNL1       -0.2745
     10 C           4.2520   -2.4826   22.0268 C.3     1  UNL1        0.0938
     11 C           4.1750   -1.4984   23.1561 C.3     1  UNL1        0.0449
     12 C           4.8949   -1.7751   24.4426 C.3     1  UNL1        0.1430
     13 O           5.6918   -3.0361   24.5998 O.3     1  UNL1       -0.3537
     14 C           5.7688   -4.0204   23.4706 C.3     1  UNL1        0.1430
     15 C           5.0489   -3.7437   22.1841 C.3     1  UNL1        0.0449
     16 H           3.2089   -3.0581   18.8668 H       1  UNL1        0.1549
     17 C          -1.4833    3.1780   19.8791 C.ar    1  UNL1        0.0357
     18 C          -0.9424    4.0942   18.8218 C.ar    1  UNL1        0.0027
     19 C           0.4712    3.9372   18.3449 C.ar    1  UNL1       -0.0042
     20 C           1.3438    2.8642   18.9255 C.ar    1  UNL1       -0.0218
     21 C           2.7573    2.7073   18.4487 C.3     1  UNL1        0.0310
     22 C           0.8029    1.9480   19.9829 C.ar    1  UNL1       -0.0038
     23 C          -0.6106    2.1049   20.4597 C.ar    1  UNL1        0.0027
     24 C          -5.7165    3.5134   23.0172 C.3     1  UNL1        0.0736
     25 C          -4.8425    3.4891   21.7983 C.ar    1  UNL1        0.1404
     26 N          -5.3013    3.6638   20.3810 N.ar    1  UNL1       -0.1336
     27 N          -4.0987    3.5685   19.4895 N.ar    1  UNL1       -0.1293
     28 C          -2.8968    3.3350   20.3559 C.ar    1  UNL1        0.1629
     29 N          -3.3565    3.2859   21.7829 N.ar    1  UNL1       -0.3246
     30 H          -2.7835    3.1450   22.5709 H       1  UNL1        0.1686
@<TRIPOS>BOND
     1    24    25    1
     2    25    26   ar
     3    26    27   ar
     4    27    28   ar
     5    28    17    1
     6    17    18   ar
     7    18    19   ar
     8    19    20   ar
     9    20    21    1
    10    20    22   ar
    11    22     1    1
    12     1     2   ar
    13     2     3   ar
    14     3     4   ar
    15     4     5   ar
    16     5     6   ar
    17     5     7    1
    18     7     8   am
    19     8     9    2
    20     8    10    1
    21    10    11    1
    22    11    12    1
    23    12    13    1
    24    13    14    1
    25    14    15    1
    26    22    23   ar
    27    28    29   ar
    28    29    25   ar
    29    23    17   ar
    30     6     1   ar
    31    15    10    1
    32    10     4    1
    33     7    16    1
    34    29    30    1
@<TRIPOS>MOLECULE
*****
 30 34 0 0 0
SMALL
GASTEIGER

@<TRIPOS>ATOM
      1 C           1.6925    1.4193   20.4398 C.ar    1  UNL1        0.0009
      2 C           1.9302    0.5400   21.6316 C.ar    1  UNL1       -0.0002
      3 C           2.8276   -0.6562   21.5142 C.ar    1  UNL1       -0.0026
      4 C           3.4873   -0.9732   20.2049 C.ar    1  UNL1       -0.0010
      5 C           3.2497   -0.0939   19.0130 C.ar    1  UNL1        0.0467
      6 C           2.3523    1.1022   19.1305 C.ar    1  UNL1        0.0144
      7 N           4.0313   -0.6531   17.8613 N.am    1  UNL1       -0.2839
      8 C           4.7519   -1.8780   18.3413 C.2     1  UNL1        0.2292
      9 O           5.6509   -2.7516   17.5176 O.2     1  UNL1       -0.2745
     10 C           4.4158   -2.0758   19.7898 C.3     1  UNL1        0.0938
     11 C           3.9908   -2.1446   21.2267 C.3     1  UNL1        0.0449
     12 C           4.4946   -3.2508   22.1056 C.3     1  UNL1        0.1430
     13 O           5.4234   -4.2881   21.5476 O.3     1  UNL1       -0.3537
     14 C           5.8484   -4.2193   20.1108 C.3     1  UNL1        0.1430
     15 C           5.3445   -3.1131   19.2318 C.3     1  UNL1        0.0449
     16 H           4.0652   -0.2815   16.9502 H       1  UNL1        0.1549
     17 C          -1.5909    3.6423   20.6033 C.ar    1  UNL1        0.0357
     18 C          -0.9996    5.0078   20.7922 C.ar    1  UNL1        0.0027
     19 C           0.4892    5.1771   20.8638 C.ar    1  UNL1       -0.0042
     20 C           1.3865    3.9810   20.7463 C.ar    1  UNL1       -0.0218
     21 C           2.8752    4.1502   20.8178 C.3     1  UNL1        0.0310
     22 C           0.7952    2.6154   20.5573 C.ar    1  UNL1       -0.0038
     23 C          -0.6935    2.4461   20.4858 C.ar    1  UNL1        0.0027
     24 C          -6.5401    3.4422   18.7742 C.3     1  UNL1        0.0736
     25 C          -5.3545    3.3811   19.6910 C.ar    1  UNL1        0.1404
     26 N          -5.3864    3.0441   21.1523 N.ar    1  UNL1       -0.1336
     27 N          -3.9805    3.1010   21.6719 N.ar    1  UNL1       -0.1293
     28 C          -3.0796    3.4731   20.5318 C.ar    1  UNL1        0.1629
     29 N          -3.9288    3.6462   19.3075 N.ar    1  UNL1       -0.3246
     30 H          -3.6069    3.8908   18.4098 H       1  UNL1        0.1686
@<TRIPOS>BOND
     1    24    25    1
     2    25    26   ar
     3    26    27   ar
     4    27    28   ar
     5    28    17    1
     6    17    18   ar
     7    18    19   ar
     8    19    20   ar
     9    20    21    1
    10    20    22   ar
    11    22     1    1
    12     1     2   ar
    13     2     3   ar
    14     3     4   ar
    15     4     5   ar
    16     5     6   ar
    17     5     7    1
    18     7     8   am
    19     8     9    2
    20     8    10    1
    21    10    11    1
    22    11    12    1
    23    12    13    1
    24    13    14    1
    25    14    15    1
    26    22    23   ar
    27    28    29   ar
    28    29    25   ar
    29    23    17   ar
    30     6     1   ar
    31    15    10    1
    32    10     4    1
    33     7    16    1
    34    29    30    1
@<TRIPOS>MOLECULE
*****
 30 34 0 0 0
SMALL
GASTEIGER

@<TRIPOS>ATOM
      1 C           6.8048   -4.2814   22.8143 C.ar    1  UNL1        0.0009
      2 C           5.3662   -3.8588   22.8565 C.ar    1  UNL1       -0.0002
      3 C           4.7892   -3.0486   21.7338 C.ar    1  UNL1       -0.0026
      4 C           5.6508   -2.6610   20.5687 C.ar    1  UNL1       -0.0010
      5 C           7.0895   -3.0836   20.5265 C.ar    1  UNL1        0.0467
      6 C           7.6665   -3.8938   21.6492 C.ar    1  UNL1        0.0144
      7 N           7.6904   -2.5565   19.2571 N.am    1  UNL1       -0.2839
      8 C           6.6231   -1.8081   18.5149 C.2     1  UNL1        0.2292
      9 O           6.7874   -1.1166   17.1941 O.2     1  UNL1       -0.2745
     10 C           5.3625   -1.8727   19.3255 C.3     1  UNL1        0.0938
     11 C           4.1835   -2.0214   20.2408 C.3     1  UNL1        0.0449
     12 C           2.8661   -1.4058   19.8728 C.3     1  UNL1        0.1430
     13 O           2.7277   -0.6415   18.5895 O.3     1  UNL1       -0.3537
     14 C           3.9068   -0.4928   17.6743 C.3     1  UNL1        0.1430
     15 C           5.2242   -1.1084   18.0423 C.3     1  UNL1        0.0449
     16 H           8.6217   -2.6800   18.9628 H       1  UNL1        0.1549
     17 C           7.6276   -5.5562   26.4815 C.ar    1  UNL1        0.0357
     18 C           8.5358   -6.7120   26.1827 C.ar    1  UNL1        0.0027
     19 C           8.8670   -7.0576   24.7610 C.ar    1  UNL1       -0.0042
     20 C           8.2900   -6.2475   23.6383 C.ar    1  UNL1       -0.0218
     21 C           8.6212   -6.5930   22.2168 C.3     1  UNL1        0.0310
     22 C           7.3818   -5.0916   23.9371 C.ar    1  UNL1       -0.0038
     23 C           7.0506   -4.7460   25.3586 C.ar    1  UNL1        0.0027
     24 C           6.9439   -5.9044   31.7056 C.3     1  UNL1        0.0736
     25 C           6.9822   -5.3707   30.3043 C.ar    1  UNL1        0.1404
     26 N           6.5914   -3.9870   29.8770 N.ar    1  UNL1       -0.1336
     27 N           6.7856   -3.8880   28.3929 N.ar    1  UNL1       -0.1293
     28 C           7.2964   -5.2106   27.9030 C.ar    1  UNL1        0.1629
     29 N           7.4179   -6.1269   29.0844 N.ar    1  UNL1       -0.3246
     30 H           7.7290   -7.0607   29.0628 H       1  UNL1        0.1686
@<TRIPOS>BOND
     1    24    25    1
     2    25    26   ar
     3    26    27   ar
     4    27    28   ar
     5    28    17    1
     6    17    18   ar
     7    18    19   ar
     8    19    20   ar
     9    20    21    1
    10    20    22   ar
    11    22     1    1
    12     1     2   ar
    13     2     3   ar
    14     3     4   ar
    15     4     5   ar
    16     5     6   ar
    17     5     7    1
    18     7     8   am
    19     8     9    2
    20     8    10    1
    21    10    11    1
    22    11    12    1
    23    12    13    1
    24    13    14    1
    25    14    15    1
    26    22    23   ar
    27    28    29   ar
    28    29    25   ar
    29    23    17   ar
    30     6     1   ar
    31    15    10    1
    32    10     4    1
    33     7    16    1
    34    29    30    1
