@<TRIPOS>MOLECULE
*****
 43 47 0 0 0
SMALL
GASTEIGER

@<TRIPOS>ATOM
      1 C           3.4819    1.2244   26.5753 C.3     1  UNL1        0.0972
      2 C           2.9454   -0.0817   26.0691 C.3     1  UNL1        0.0431
      3 C           2.9117   -0.0195   24.5708 C.3     1  UNL1        0.0968
      4 N           3.4274    1.3250   24.1510 N.am    1  UNL1       -0.2623
      5 C           3.5663    1.8148   22.7400 C.2     1  UNL1        0.3073
      6 O           4.1004    3.1907   22.4729 O.2     1  UNL1       -0.2523
      7 N           3.1711    0.9286   21.5962 N.am    1  UNL1       -0.2626
      8 C           2.6245   -0.4639   21.7076 C.3     1  UNL1        0.0964
      9 C           2.3687   -0.9739   20.3204 C.3     1  UNL1        0.0390
     10 C           2.7573    0.1034   19.3515 C.3     1  UNL1        0.0759
     11 C           3.2532    1.2791   20.1401 C.3     1  UNL1        0.1106
     12 C           3.7798    2.0938   25.3898 C.3     1  UNL1        0.1147
     13 C           4.9863    1.2853   28.6928 C.3     1  UNL1        0.1152
     14 N           3.6849    1.5959   28.0144 N.am    1  UNL1       -0.2742
     15 C           2.5867    2.2780   28.7750 C.2     1  UNL1        0.2491
     16 O           2.7897    2.6494   30.2140 O.2     1  UNL1       -0.2699
     17 C           1.2854    2.5885   28.0966 C.ar    1  UNL1        0.0536
     18 C           0.2116    1.5440   28.0197 C.ar    1  UNL1        0.0045
     19 C          -1.0896    1.8546   27.3413 C.ar    1  UNL1        0.0001
     20 C          -1.3171    3.2098   26.7399 C.ar    1  UNL1        0.0000
     21 C          -0.2434    4.2543   26.8168 C.ar    1  UNL1        0.0001
     22 C           1.0578    3.9437   27.4952 C.ar    1  UNL1        0.0045
     23 C          -2.6185    3.5204   26.0615 C.ar    1  UNL1       -0.0000
     24 C          -2.7855    3.2436   24.5968 C.ar    1  UNL1       -0.0001
     25 C          -4.0868    3.5542   23.9184 C.ar    1  UNL1        0.0039
     26 C          -5.2211    4.1415   24.7048 C.ar    1  UNL1        0.0714
     27 C          -5.0540    4.4183   26.1696 C.ar    1  UNL1        0.0039
     28 C          -3.7528    4.1077   26.8479 C.ar    1  UNL1       -0.0001
     29 C          -6.5224    4.4521   24.0265 C.3     1  UNL1        0.4186
     30 F          -7.8237    4.7627   23.3482 F       1  UNL1       -0.1659
     31 F          -6.1148    3.6059   22.8570 F       1  UNL1       -0.1659
     32 F          -6.9300    5.2984   25.1960 F       1  UNL1       -0.1659
     33 N           2.6659    0.0195   17.8567 N.3     1  UNL1       -0.2971
     34 H           2.6234    0.9778   17.5100 H       1  UNL1        0.1233
     35 C           3.7427   -0.6756   17.0774 C.3     1  UNL1        0.0689
     36 C           5.1815   -0.4959   17.4616 C.3     1  UNL1        0.0218
     37 C           5.9797   -1.6685   17.9493 C.3     1  UNL1        0.0278
     38 C           5.5116   -2.4514   19.1400 C.ar    1  UNL1       -0.0221
     39 C           5.9470   -2.0517   20.5186 C.ar    1  UNL1       -0.0043
     40 C           5.4789   -2.8345   21.7095 C.ar    1  UNL1       -0.0003
     41 C           4.5754   -4.0170   21.5216 C.ar    1  UNL1       -0.0000
     42 C           4.1400   -4.4168   20.1430 C.ar    1  UNL1       -0.0003
     43 C           4.6081   -3.6339   18.9522 C.ar    1  UNL1       -0.0043
@<TRIPOS>BOND
     1    13    14    1
     2    14    15   am
     3    15    16    2
     4    15    17    1
     5    17    18   ar
     6    18    19   ar
     7    19    20   ar
     8    20    23    1
     9    23    24   ar
    10    24    25   ar
    11    25    26   ar
    12    26    29    1
    13    29    30    1
    14    29    31    1
    15    29    32    1
    16    26    27   ar
    17    27    28   ar
    18    20    21   ar
    19    21    22   ar
    20     1    14    1
    21     1     2    1
    22     2     3    1
    23     3     4    1
    24     4     5   am
    25     5     6    2
    26     5     7   am
    27     7     8    1
    28     8     9    1
    29     9    10    1
    30    10    33    1
    31    33    35    1
    32    35    36    1
    33    36    37    1
    34    37    38    1
    35    38    39   ar
    36    39    40   ar
    37    40    41   ar
    38    41    42   ar
    39    42    43   ar
    40    10    11    1
    41     4    12    1
    42    22    17   ar
    43    12     1    1
    44    28    23   ar
    45    11     7    1
    46    43    38   ar
    47    33    34    1
@<TRIPOS>MOLECULE
*****
 43 47 0 0 0
SMALL
GASTEIGER

@<TRIPOS>ATOM
      1 C           3.4716    2.0524   33.5671 C.3     1  UNL1        0.0972
      2 C           4.3853    2.5029   32.4661 C.3     1  UNL1        0.0431
      3 C           3.6151    2.4644   31.1795 C.3     1  UNL1        0.0968
      4 N           2.2253    1.9900   31.4853 N.am    1  UNL1       -0.2623
      5 C           1.1186    1.8031   30.4903 C.2     1  UNL1        0.3073
      6 O          -0.2261    1.3194   30.9463 O.2     1  UNL1       -0.2523
      7 N           1.3565    2.0998   29.0394 N.am    1  UNL1       -0.2626
      8 C           2.6414    2.5875   28.4383 C.3     1  UNL1        0.0964
      9 C           2.4303    2.7500   26.9621 C.3     1  UNL1        0.0390
     10 C           1.0149    2.3628   26.6509 C.3     1  UNL1        0.0759
     11 C           0.3513    1.9610   27.9347 C.3     1  UNL1        0.1106
     12 C           2.1367    1.7354   32.9609 C.3     1  UNL1        0.1147
     13 C           3.3773    2.9908   35.9879 C.3     1  UNL1        0.1152
     14 N           3.8300    1.9388   35.0192 N.am    1  UNL1       -0.2742
     15 C           4.6410    0.7732   35.5026 C.2     1  UNL1        0.2491
     16 O           4.9993    0.6596   36.9548 O.2     1  UNL1       -0.2699
     17 C           5.0937   -0.2788   34.5339 C.ar    1  UNL1        0.0536
     18 C           4.1910   -1.4293   34.2001 C.ar    1  UNL1        0.0045
     19 C           4.6437   -2.4812   33.2315 C.ar    1  UNL1        0.0001
     20 C           5.9991   -2.3827   32.5965 C.ar    1  UNL1        0.0000
     21 C           6.9018   -1.2322   32.9303 C.ar    1  UNL1        0.0001
     22 C           6.4491   -0.1802   33.8989 C.ar    1  UNL1        0.0045
     23 C           6.4518   -3.4347   31.6278 C.ar    1  UNL1       -0.0000
     24 C           6.8137   -4.8038   32.1223 C.ar    1  UNL1       -0.0001
     25 C           7.2664   -5.8558   31.1536 C.ar    1  UNL1        0.0039
     26 C           7.3572   -5.5387   29.6903 C.ar    1  UNL1        0.0714
     27 C           6.9954   -4.1695   29.1958 C.ar    1  UNL1        0.0039
     28 C           6.5427   -3.1176   30.1645 C.ar    1  UNL1       -0.0001
     29 C           7.8099   -6.5906   28.7216 C.3     1  UNL1        0.4186
     30 F           8.2626   -7.6426   27.7529 F       1  UNL1       -0.1659
     31 F           8.7521   -7.1356   29.7537 F       1  UNL1       -0.1659
     32 F           6.8677   -6.0456   27.6895 F       1  UNL1       -0.1659
     33 N           0.3755    2.3753   25.2941 N.3     1  UNL1       -0.2971
     34 H           0.6832    3.2307   24.8314 H       1  UNL1        0.1233
     35 C           0.6283    1.2496   24.3355 C.3     1  UNL1        0.0689
     36 C           1.9778    1.0951   23.6992 C.3     1  UNL1        0.0218
     37 C           2.7005   -0.2168   23.7824 C.3     1  UNL1        0.0278
     38 C           3.0030   -0.9870   22.5314 C.ar    1  UNL1       -0.0221
     39 C           4.0162   -2.0928   22.5580 C.ar    1  UNL1       -0.0043
     40 C           4.3187   -2.8631   21.3070 C.ar    1  UNL1       -0.0003
     41 C           3.6080   -2.5278   20.0294 C.ar    1  UNL1       -0.0000
     42 C           2.5947   -1.4220   20.0027 C.ar    1  UNL1       -0.0003
     43 C           2.2922   -0.6517   21.2537 C.ar    1  UNL1       -0.0043
@<TRIPOS>BOND
     1    13    14    1
     2    14    15   am
     3    15    16    2
     4    15    17    1
     5    17    18   ar
     6    18    19   ar
     7    19    20   ar
     8    20    23    1
     9    23    24   ar
    10    24    25   ar
    11    25    26   ar
    12    26    29    1
    13    29    30    1
    14    29    31    1
    15    29    32    1
    16    26    27   ar
    17    27    28   ar
    18    20    21   ar
    19    21    22   ar
    20     1    14    1
    21     1     2    1
    22     2     3    1
    23     3     4    1
    24     4     5   am
    25     5     6    2
    26     5     7   am
    27     7     8    1
    28     8     9    1
    29     9    10    1
    30    10    33    1
    31    33    35    1
    32    35    36    1
    33    36    37    1
    34    37    38    1
    35    38    39   ar
    36    39    40   ar
    37    40    41   ar
    38    41    42   ar
    39    42    43   ar
    40    10    11    1
    41     4    12    1
    42    22    17   ar
    43    12     1    1
    44    28    23   ar
    45    11     7    1
    46    43    38   ar
    47    33    34    1
@<TRIPOS>MOLECULE
*****
 43 47 0 0 0
SMALL
GASTEIGER

@<TRIPOS>ATOM
      1 C           5.4100   -2.2411   21.7541 C.3     1  UNL1        0.0972
      2 C           4.7169   -3.0680   22.7961 C.3     1  UNL1        0.0431
      3 C           4.4040   -2.1775   23.9620 C.3     1  UNL1        0.0968
      4 N           4.9038   -0.8002   23.6405 N.am    1  UNL1       -0.2623
      5 C           4.8000    0.4048   24.5277 C.2     1  UNL1        0.3073
      6 O           5.3484    1.7234   24.0689 O.2     1  UNL1       -0.2523
      7 N           4.1480    0.2912   25.8737 N.am    1  UNL1       -0.2626
      8 C           3.5570   -0.9545   26.4648 C.3     1  UNL1        0.0964
      9 C           3.0161   -0.6123   27.8215 C.3     1  UNL1        0.0390
     10 C           3.2729    0.8448   28.0688 C.3     1  UNL1        0.0759
     11 C           3.9724    1.4031   26.8650 C.3     1  UNL1        0.1106
     12 C           5.5254   -0.8395   22.2759 C.3     1  UNL1        0.1147
     13 C           7.0339   -3.7111   20.3570 C.3     1  UNL1        0.1152
     14 N           5.9013   -2.7299   20.4238 N.am    1  UNL1       -0.2742
     15 C           5.2600   -2.2375   19.1604 C.2     1  UNL1        0.2491
     16 O           5.7513   -2.7263   17.8301 O.2     1  UNL1       -0.2699
     17 C           4.1273   -1.2563   19.2272 C.ar    1  UNL1        0.0536
     18 C           4.3193    0.1458   18.7299 C.ar    1  UNL1        0.0045
     19 C           3.1867    1.1269   18.7967 C.ar    1  UNL1        0.0001
     20 C           1.8621    0.7060   19.3609 C.ar    1  UNL1        0.0000
     21 C           1.6701   -0.6961   19.8582 C.ar    1  UNL1        0.0001
     22 C           2.8027   -1.6772   19.7913 C.ar    1  UNL1        0.0045
     23 C           0.7295    1.6872   19.4277 C.ar    1  UNL1       -0.0000
     24 C           0.4134    2.5497   18.2419 C.ar    1  UNL1       -0.0001
     25 C          -0.7192    3.5309   18.3087 C.ar    1  UNL1        0.0039
     26 C          -1.5358    3.6496   19.5614 C.ar    1  UNL1        0.0714
     27 C          -1.2196    2.7871   20.7472 C.ar    1  UNL1        0.0039
     28 C          -0.0871    1.8059   20.6804 C.ar    1  UNL1       -0.0001
     29 C          -2.6684    4.6308   19.6282 C.3     1  UNL1        0.4186
     30 F          -3.8009    5.6119   19.6951 F       1  UNL1       -0.1659
     31 F          -3.1968    3.9376   20.8490 F       1  UNL1       -0.1659
     32 F          -2.1400    5.3239   18.4075 F       1  UNL1       -0.1659
     33 N           2.8962    1.6092   29.3032 N.3     1  UNL1       -0.2971
     34 H           2.8032    2.5868   29.0273 H       1  UNL1        0.1233
     35 C           1.6489    1.2512   30.0556 C.3     1  UNL1        0.0689
     36 C           0.3126    1.7146   29.5562 C.3     1  UNL1        0.0218
     37 C          -0.3709    0.9741   28.4450 C.3     1  UNL1        0.0278
     38 C          -0.5532    1.6292   27.1081 C.ar    1  UNL1       -0.0221
     39 C          -1.5576    2.7310   26.9435 C.ar    1  UNL1       -0.0043
     40 C          -1.7400    3.3862   25.6066 C.ar    1  UNL1       -0.0003
     41 C          -0.9178    2.9396   24.4341 C.ar    1  UNL1       -0.0000
     42 C           0.0867    1.8378   24.5987 C.ar    1  UNL1       -0.0003
     43 C           0.2690    1.1826   25.9356 C.ar    1  UNL1       -0.0043
@<TRIPOS>BOND
     1    13    14    1
     2    14    15   am
     3    15    16    2
     4    15    17    1
     5    17    18   ar
     6    18    19   ar
     7    19    20   ar
     8    20    23    1
     9    23    24   ar
    10    24    25   ar
    11    25    26   ar
    12    26    29    1
    13    29    30    1
    14    29    31    1
    15    29    32    1
    16    26    27   ar
    17    27    28   ar
    18    20    21   ar
    19    21    22   ar
    20     1    14    1
    21     1     2    1
    22     2     3    1
    23     3     4    1
    24     4     5   am
    25     5     6    2
    26     5     7   am
    27     7     8    1
    28     8     9    1
    29     9    10    1
    30    10    33    1
    31    33    35    1
    32    35    36    1
    33    36    37    1
    34    37    38    1
    35    38    39   ar
    36    39    40   ar
    37    40    41   ar
    38    41    42   ar
    39    42    43   ar
    40    10    11    1
    41     4    12    1
    42    22    17   ar
    43    12     1    1
    44    28    23   ar
    45    11     7    1
    46    43    38   ar
    47    33    34    1
@<TRIPOS>MOLECULE
*****
 43 47 0 0 0
SMALL
GASTEIGER

@<TRIPOS>ATOM
      1 C           3.8261    1.8784   33.9266 C.3     1  UNL1        0.0972
      2 C           4.7120    2.4577   32.8638 C.3     1  UNL1        0.0431
      3 C           3.8918    2.6300   31.6198 C.3     1  UNL1        0.0968
      4 N           2.4990    2.1572   31.9138 N.am    1  UNL1       -0.2623
      5 C           1.3487    2.1502   30.9511 C.2     1  UNL1        0.3073
      6 O           0.0064    1.6449   31.3901 O.2     1  UNL1       -0.2523
      7 N           1.5408    2.6483   29.5494 N.am    1  UNL1       -0.2626
      8 C           2.8180    3.1805   28.9700 C.3     1  UNL1        0.0964
      9 C           2.5560    3.5629   27.5434 C.3     1  UNL1        0.0390
     10 C           1.1168    3.2671   27.2411 C.3     1  UNL1        0.0759
     11 C           0.4894    2.7019   28.4809 C.3     1  UNL1        0.1106
     12 C           2.4584    1.6926   33.3394 C.3     1  UNL1        0.1147
     13 C           3.8906    2.4743   36.4546 C.3     1  UNL1        0.1152
     14 N           4.2360    1.5435   35.3302 N.am    1  UNL1       -0.2742
     15 C           4.9912    0.2780   35.6093 C.2     1  UNL1        0.2491
     16 O           5.4010   -0.0569   37.0128 O.2     1  UNL1       -0.2699
     17 C           5.3366   -0.6529   34.4848 C.ar    1  UNL1        0.0536
     18 C           4.3324   -1.6611   34.0105 C.ar    1  UNL1        0.0045
     19 C           4.6778   -2.5919   32.8861 C.ar    1  UNL1        0.0001
     20 C           6.0274   -2.5144   32.2360 C.ar    1  UNL1        0.0000
     21 C           7.0316   -1.5061   32.7103 C.ar    1  UNL1        0.0001
     22 C           6.6862   -0.5754   33.8347 C.ar    1  UNL1        0.0045
     23 C           6.3728   -3.4452   31.1115 C.ar    1  UNL1       -0.0000
     24 C           6.8145   -4.8477   31.4077 C.ar    1  UNL1       -0.0001
     25 C           7.1599   -5.7785   30.2832 C.ar    1  UNL1        0.0039
     26 C           7.0636   -5.3067   28.8626 C.ar    1  UNL1        0.0714
     27 C           6.6218   -3.9041   28.5664 C.ar    1  UNL1        0.0039
     28 C           6.2765   -2.9734   29.6909 C.ar    1  UNL1       -0.0001
     29 C           7.4089   -6.2375   27.7381 C.3     1  UNL1        0.4186
     30 F           7.7543   -7.1682   26.6137 F       1  UNL1       -0.1659
     31 F           6.7727   -5.2935   26.7614 F       1  UNL1       -0.1659
     32 F           8.0452   -7.1814   28.7149 F       1  UNL1       -0.1659
     33 N           0.4264    3.4964   25.9293 N.3     1  UNL1       -0.2971
     34 H           1.1489    3.7556   25.2576 H       1  UNL1        0.1233
     35 C          -0.3742    2.3946   25.3006 C.3     1  UNL1        0.0689
     36 C           0.2620    1.0623   25.0358 C.3     1  UNL1        0.0218
     37 C           1.5866    0.9896   24.3354 C.3     1  UNL1        0.0278
     38 C           2.6681    0.0967   24.8673 C.ar    1  UNL1       -0.0221
     39 C           3.0386    0.1509   26.3198 C.ar    1  UNL1       -0.0043
     40 C           4.1202   -0.7419   26.8518 C.ar    1  UNL1       -0.0003
     41 C           4.8313   -1.6889   25.9313 C.ar    1  UNL1       -0.0000
     42 C           4.4608   -1.7431   24.4787 C.ar    1  UNL1       -0.0003
     43 C           3.3793   -0.8503   23.9468 C.ar    1  UNL1       -0.0043
@<TRIPOS>BOND
     1    13    14    1
     2    14    15   am
     3    15    16    2
     4    15    17    1
     5    17    18   ar
     6    18    19   ar
     7    19    20   ar
     8    20    23    1
     9    23    24   ar
    10    24    25   ar
    11    25    26   ar
    12    26    29    1
    13    29    30    1
    14    29    31    1
    15    29    32    1
    16    26    27   ar
    17    27    28   ar
    18    20    21   ar
    19    21    22   ar
    20     1    14    1
    21     1     2    1
    22     2     3    1
    23     3     4    1
    24     4     5   am
    25     5     6    2
    26     5     7   am
    27     7     8    1
    28     8     9    1
    29     9    10    1
    30    10    33    1
    31    33    35    1
    32    35    36    1
    33    36    37    1
    34    37    38    1
    35    38    39   ar
    36    39    40   ar
    37    40    41   ar
    38    41    42   ar
    39    42    43   ar
    40    10    11    1
    41     4    12    1
    42    22    17   ar
    43    12     1    1
    44    28    23   ar
    45    11     7    1
    46    43    38   ar
    47    33    34    1
@<TRIPOS>MOLECULE
*****
 43 47 0 0 0
SMALL
GASTEIGER

@<TRIPOS>ATOM
      1 C          -2.7985    5.2381   24.6963 C.3     1  UNL1        0.0972
      2 C          -3.3319    3.8547   24.9237 C.3     1  UNL1        0.0431
      3 C          -2.4244    3.1621   25.8967 C.3     1  UNL1        0.0968
      4 N          -1.3302    4.1175   26.2707 N.am    1  UNL1       -0.2623
      5 C          -0.2026    3.8388   27.2199 C.2     1  UNL1        0.3073
      6 O           0.8230    4.8974   27.4976 O.2     1  UNL1       -0.2523
      7 N          -0.1008    2.5014   27.8914 N.am    1  UNL1       -0.2626
      8 C          -1.0468    1.3509   27.7130 C.3     1  UNL1        0.0964
      9 C          -0.5658    0.2180   28.5706 C.3     1  UNL1        0.0390
     10 C           0.6774    0.6684   29.2790 C.3     1  UNL1        0.0759
     11 C           0.9647    2.0796   28.8592 C.3     1  UNL1        0.1106
     12 C          -1.5614    5.4005   25.5288 C.3     1  UNL1        0.1147
     13 C          -4.3107    7.3238   24.3597 C.3     1  UNL1        0.1152
     14 N          -3.3972    6.2767   23.7947 N.am    1  UNL1       -0.2742
     15 C          -3.0824    6.2683   22.3282 C.2     1  UNL1        0.2491
     16 O          -3.6810    7.3070   21.4266 O.2     1  UNL1       -0.2699
     17 C          -2.1688    5.2213   21.7631 C.ar    1  UNL1        0.0536
     18 C          -0.6827    5.4197   21.8069 C.ar    1  UNL1        0.0045
     19 C           0.2307    4.3727   21.2419 C.ar    1  UNL1        0.0001
     20 C          -0.3420    3.1272   20.6331 C.ar    1  UNL1        0.0000
     21 C          -1.8281    2.9287   20.5893 C.ar    1  UNL1        0.0001
     22 C          -2.7415    3.9757   21.1543 C.ar    1  UNL1        0.0045
     23 C           0.5715    2.0801   20.0681 C.ar    1  UNL1       -0.0000
     24 C           0.3510    0.6341   20.4002 C.ar    1  UNL1       -0.0001
     25 C           1.2646   -0.4130   19.8352 C.ar    1  UNL1        0.0039
     26 C           2.3986   -0.0140   18.9380 C.ar    1  UNL1        0.0714
     27 C           2.6190    1.4321   18.6059 C.ar    1  UNL1        0.0039
     28 C           1.7055    2.4791   19.1709 C.ar    1  UNL1       -0.0001
     29 C           3.3120   -1.0610   18.3730 C.3     1  UNL1        0.4186
     30 F           4.2255   -2.1080   17.8080 F       1  UNL1       -0.1659
     31 F           3.2318   -1.8259   19.6608 F       1  UNL1       -0.1659
     32 F           3.3923   -0.2960   17.0853 F       1  UNL1       -0.1659
     33 N           1.4904   -0.1489   30.2386 N.3     1  UNL1       -0.2971
     34 H           0.9744   -1.0140   30.3993 H       1  UNL1        0.1233
     35 C           2.8948   -0.5414   29.8867 C.3     1  UNL1        0.0689
     36 C           3.2310   -0.9451   28.4817 C.3     1  UNL1        0.0218
     37 C           3.7121    0.0826   27.5007 C.3     1  UNL1        0.0278
     38 C           3.3780   -0.0558   26.0450 C.ar    1  UNL1       -0.0221
     39 C           2.3594    0.8507   25.4198 C.ar    1  UNL1       -0.0043
     40 C           2.0252    0.7123   23.9641 C.ar    1  UNL1       -0.0003
     41 C           2.7096   -0.3326   23.1335 C.ar    1  UNL1       -0.0000
     42 C           3.7281   -1.2392   23.7587 C.ar    1  UNL1       -0.0003
     43 C           4.0623   -1.1008   25.2144 C.ar    1  UNL1       -0.0043
@<TRIPOS>BOND
     1    13    14    1
     2    14    15   am
     3    15    16    2
     4    15    17    1
     5    17    18   ar
     6    18    19   ar
     7    19    20   ar
     8    20    23    1
     9    23    24   ar
    10    24    25   ar
    11    25    26   ar
    12    26    29    1
    13    29    30    1
    14    29    31    1
    15    29    32    1
    16    26    27   ar
    17    27    28   ar
    18    20    21   ar
    19    21    22   ar
    20     1    14    1
    21     1     2    1
    22     2     3    1
    23     3     4    1
    24     4     5   am
    25     5     6    2
    26     5     7   am
    27     7     8    1
    28     8     9    1
    29     9    10    1
    30    10    33    1
    31    33    35    1
    32    35    36    1
    33    36    37    1
    34    37    38    1
    35    38    39   ar
    36    39    40   ar
    37    40    41   ar
    38    41    42   ar
    39    42    43   ar
    40    10    11    1
    41     4    12    1
    42    22    17   ar
    43    12     1    1
    44    28    23   ar
    45    11     7    1
    46    43    38   ar
    47    33    34    1
@<TRIPOS>MOLECULE
*****
 43 47 0 0 0
SMALL
GASTEIGER

@<TRIPOS>ATOM
      1 C           3.6316    0.7133   27.7944 C.3     1  UNL1        0.0972
      2 C           3.1353   -0.5847   27.2296 C.3     1  UNL1        0.0431
      3 C           3.3704   -0.5658   25.7483 C.3     1  UNL1        0.0968
      4 N           4.0121    0.7439   25.3975 N.am    1  UNL1       -0.2623
      5 C           4.4207    1.1855   24.0234 C.2     1  UNL1        0.3073
      6 O           5.0548    2.5303   23.8255 O.2     1  UNL1       -0.2523
      7 N           4.1952    0.2823   22.8473 N.am    1  UNL1       -0.2626
      8 C           3.5755   -1.0832   22.8903 C.3     1  UNL1        0.0964
      9 C           3.5470   -1.6235   21.4913 C.3     1  UNL1        0.0390
     10 C           4.1491   -0.5920   20.5837 C.3     1  UNL1        0.0759
     11 C           4.5496    0.5858   21.4218 C.3     1  UNL1        0.1106
     12 C           4.1735    1.5344   26.6620 C.3     1  UNL1        0.1147
     13 C           4.7375    0.7755   30.1445 C.3     1  UNL1        0.1152
     14 N           3.5928    1.1189   29.2379 N.am    1  UNL1       -0.2742
     15 C           2.4094    1.8680   29.7750 C.2     1  UNL1        0.2491
     16 O           2.3706    2.2736   31.2185 O.2     1  UNL1       -0.2699
     17 C           1.2647    2.2114   28.8684 C.ar    1  UNL1        0.0536
     18 C           0.1278    1.2478   28.6979 C.ar    1  UNL1        0.0045
     19 C          -1.0168    1.5913   27.7913 C.ar    1  UNL1        0.0001
     20 C          -1.0246    2.8982   27.0553 C.ar    1  UNL1        0.0000
     21 C           0.1123    3.8618   27.2258 C.ar    1  UNL1        0.0001
     22 C           1.2569    3.5183   28.1323 C.ar    1  UNL1        0.0045
     23 C          -2.1693    3.2416   26.1487 C.ar    1  UNL1       -0.0000
     24 C          -1.9831    3.2100   24.6607 C.ar    1  UNL1       -0.0001
     25 C          -3.1278    3.5534   23.7541 C.ar    1  UNL1        0.0039
     26 C          -4.4587    3.9285   24.3357 C.ar    1  UNL1        0.0714
     27 C          -4.6448    3.9601   25.8238 C.ar    1  UNL1        0.0039
     28 C          -3.5001    3.6167   26.7303 C.ar    1  UNL1       -0.0001
     29 C          -5.6033    4.2719   23.4292 C.3     1  UNL1        0.4186
     30 F          -6.7480    4.6153   22.5227 F       1  UNL1       -0.1659
     31 F          -4.6713    4.2765   22.2540 F       1  UNL1       -0.1659
     32 F          -6.5354    4.2672   24.6044 F       1  UNL1       -0.1659
     33 N           4.3204   -0.7166   19.0987 N.3     1  UNL1       -0.2971
     34 H           4.6245   -1.6730   18.9166 H       1  UNL1        0.1233
     35 C           3.1612   -0.4493   18.1850 C.3     1  UNL1        0.0689
     36 C           2.4589    0.8753   18.2322 C.3     1  UNL1        0.0218
     37 C           1.1804    1.0194   19.0033 C.3     1  UNL1        0.0278
     38 C           1.2033    1.5745   20.3965 C.ar    1  UNL1       -0.0221
     39 C           0.6281    0.7787   21.5305 C.ar    1  UNL1       -0.0043
     40 C           0.6510    1.3338   22.9238 C.ar    1  UNL1       -0.0003
     41 C           1.2491    2.6847   23.1832 C.ar    1  UNL1       -0.0000
     42 C           1.8243    3.4805   22.0492 C.ar    1  UNL1       -0.0003
     43 C           1.8014    2.9255   20.6559 C.ar    1  UNL1       -0.0043
@<TRIPOS>BOND
     1    13    14    1
     2    14    15   am
     3    15    16    2
     4    15    17    1
     5    17    18   ar
     6    18    19   ar
     7    19    20   ar
     8    20    23    1
     9    23    24   ar
    10    24    25   ar
    11    25    26   ar
    12    26    29    1
    13    29    30    1
    14    29    31    1
    15    29    32    1
    16    26    27   ar
    17    27    28   ar
    18    20    21   ar
    19    21    22   ar
    20     1    14    1
    21     1     2    1
    22     2     3    1
    23     3     4    1
    24     4     5   am
    25     5     6    2
    26     5     7   am
    27     7     8    1
    28     8     9    1
    29     9    10    1
    30    10    33    1
    31    33    35    1
    32    35    36    1
    33    36    37    1
    34    37    38    1
    35    38    39   ar
    36    39    40   ar
    37    40    41   ar
    38    41    42   ar
    39    42    43   ar
    40    10    11    1
    41     4    12    1
    42    22    17   ar
    43    12     1    1
    44    28    23   ar
    45    11     7    1
    46    43    38   ar
    47    33    34    1
@<TRIPOS>MOLECULE
*****
 43 47 0 0 0
SMALL
GASTEIGER

@<TRIPOS>ATOM
      1 C           3.2492   -0.3317   19.5676 C.3     1  UNL1        0.0972
      2 C           2.0217   -0.8357   20.2670 C.3     1  UNL1        0.0431
      3 C           1.6139    0.1888   21.2839 C.3     1  UNL1        0.0968
      4 N           2.5894    1.3261   21.2129 N.am    1  UNL1       -0.2623
      5 C           2.5595    2.5671   22.0549 C.2     1  UNL1        0.3073
      6 O           3.6076    3.6241   21.8701 O.2     1  UNL1       -0.2523
      7 N           1.4816    2.7511   23.0815 N.am    1  UNL1       -0.2626
      8 C           0.3723    1.7858   23.3781 C.3     1  UNL1        0.0964
      9 C          -0.4713    2.3708   24.4718 C.3     1  UNL1        0.0390
     10 C           0.1166    3.6977   24.8512 C.3     1  UNL1        0.0759
     11 C           1.3236    3.9327   23.9920 C.3     1  UNL1        0.1106
     12 C           3.6000    1.0044   20.1522 C.3     1  UNL1        0.1147
     13 C           3.7096   -0.7133   17.0392 C.3     1  UNL1        0.1152
     14 N           3.9949   -1.0394   18.4753 N.am    1  UNL1       -0.2742
     15 C           5.0258   -2.0733   18.8191 C.2     1  UNL1        0.2491
     16 O           5.7715   -2.7810   17.7268 O.2     1  UNL1       -0.2699
     17 C           5.3112   -2.3994   20.2552 C.ar    1  UNL1        0.0536
     18 C           4.5080   -3.4528   20.9589 C.ar    1  UNL1        0.0045
     19 C           4.7934   -3.7789   22.3949 C.ar    1  UNL1        0.0001
     20 C           5.8819   -3.0516   23.1272 C.ar    1  UNL1        0.0000
     21 C           6.6850   -1.9982   22.4235 C.ar    1  UNL1        0.0001
     22 C           6.3997   -1.6722   20.9875 C.ar    1  UNL1        0.0045
     23 C           6.1672   -3.3778   24.5633 C.ar    1  UNL1       -0.0000
     24 C           5.8750   -2.3686   25.6339 C.ar    1  UNL1       -0.0001
     25 C           6.1604   -2.6948   27.0700 C.ar    1  UNL1        0.0039
     26 C           6.7378   -4.0301   27.4354 C.ar    1  UNL1        0.0714
     27 C           7.0300   -5.0392   26.3647 C.ar    1  UNL1        0.0039
     28 C           6.7446   -4.7131   24.9287 C.ar    1  UNL1       -0.0001
     29 C           7.0231   -4.3563   28.8714 C.3     1  UNL1        0.4186
     30 F           7.3085   -4.6824   30.3074 F       1  UNL1       -0.1659
     31 F           6.0537   -5.4989   28.8045 F       1  UNL1       -0.1659
     32 F           7.9925   -3.2136   28.9383 F       1  UNL1       -0.1659
     33 N          -0.4100    4.6264   25.9048 N.3     1  UNL1       -0.2971
     34 H           0.2748    5.3755   26.0060 H       1  UNL1        0.1233
     35 C          -1.7467    5.2829   25.7257 C.3     1  UNL1        0.0689
     36 C          -2.8471    5.0252   26.7119 C.3     1  UNL1        0.0218
     37 C          -3.8317    3.9207   26.4655 C.3     1  UNL1        0.0278
     38 C          -4.7188    3.9626   25.2567 C.ar    1  UNL1       -0.0221
     39 C          -4.3183    3.2360   24.0070 C.ar    1  UNL1       -0.0043
     40 C          -5.2054    3.2778   22.7981 C.ar    1  UNL1       -0.0003
     41 C          -6.4929    4.0463   22.8389 C.ar    1  UNL1       -0.0000
     42 C          -6.8934    4.7729   24.0886 C.ar    1  UNL1       -0.0003
     43 C          -6.0064    4.7311   25.2975 C.ar    1  UNL1       -0.0043
@<TRIPOS>BOND
     1    13    14    1
     2    14    15   am
     3    15    16    2
     4    15    17    1
     5    17    18   ar
     6    18    19   ar
     7    19    20   ar
     8    20    23    1
     9    23    24   ar
    10    24    25   ar
    11    25    26   ar
    12    26    29    1
    13    29    30    1
    14    29    31    1
    15    29    32    1
    16    26    27   ar
    17    27    28   ar
    18    20    21   ar
    19    21    22   ar
    20     1    14    1
    21     1     2    1
    22     2     3    1
    23     3     4    1
    24     4     5   am
    25     5     6    2
    26     5     7   am
    27     7     8    1
    28     8     9    1
    29     9    10    1
    30    10    33    1
    31    33    35    1
    32    35    36    1
    33    36    37    1
    34    37    38    1
    35    38    39   ar
    36    39    40   ar
    37    40    41   ar
    38    41    42   ar
    39    42    43   ar
    40    10    11    1
    41     4    12    1
    42    22    17   ar
    43    12     1    1
    44    28    23   ar
    45    11     7    1
    46    43    38   ar
    47    33    34    1
@<TRIPOS>MOLECULE
*****
 43 47 0 0 0
SMALL
GASTEIGER

@<TRIPOS>ATOM
      1 C          -0.3367    2.4412   24.3974 C.3     1  UNL1        0.0972
      2 C           0.0921    1.1064   24.9304 C.3     1  UNL1        0.0431
      3 C           1.3602    0.7139   24.2318 C.3     1  UNL1        0.0968
      4 N           1.7149    1.8061   23.2669 N.am    1  UNL1       -0.2623
      5 C           2.9088    1.8272   22.3590 C.2     1  UNL1        0.3073
      6 O           3.1343    2.9937   21.4435 O.2     1  UNL1       -0.2523
      7 N           3.8772    0.6817   22.3668 N.am    1  UNL1       -0.2626
      8 C           3.7834   -0.5464   23.2231 C.3     1  UNL1        0.0964
      9 C           4.9576   -1.4240   22.9052 C.3     1  UNL1        0.0390
     10 C           5.7771   -0.7383   21.8524 C.3     1  UNL1        0.0759
     11 C           5.1093    0.5631   21.5197 C.3     1  UNL1        0.1106
     12 C           0.6662    2.8737   23.3692 C.3     1  UNL1        0.1147
     13 C          -2.4580    3.8096   23.7824 C.3     1  UNL1        0.1152
     14 N          -1.5547    3.2088   24.8185 N.am    1  UNL1       -0.2742
     15 C          -1.8695    3.3757   26.2755 C.2     1  UNL1        0.2491
     16 O          -3.0874    4.1433   26.6966 O.2     1  UNL1       -0.2699
     17 C          -0.9662    2.7749   27.3115 C.ar    1  UNL1        0.0536
     18 C          -1.2854    1.4310   27.8964 C.ar    1  UNL1        0.0045
     19 C          -0.3821    0.8303   28.9323 C.ar    1  UNL1        0.0001
     20 C           0.8402    1.5735   29.3835 C.ar    1  UNL1        0.0000
     21 C           1.1593    2.9174   28.7987 C.ar    1  UNL1        0.0001
     22 C           0.2561    3.5181   27.7627 C.ar    1  UNL1        0.0045
     23 C           1.7434    0.9727   30.4195 C.ar    1  UNL1       -0.0000
     24 C           2.4064   -0.3478   30.1617 C.ar    1  UNL1       -0.0001
     25 C           3.3097   -0.9486   31.1977 C.ar    1  UNL1        0.0039
     26 C           3.5499   -0.2288   32.4916 C.ar    1  UNL1        0.0714
     27 C           2.8868    1.0919   32.7494 C.ar    1  UNL1        0.0039
     28 C           1.9836    1.6926   31.7134 C.ar    1  UNL1       -0.0001
     29 C           4.4530   -0.8295   33.5276 C.3     1  UNL1        0.4186
     30 F           5.3562   -1.4302   34.5636 F       1  UNL1       -0.1659
     31 F           4.0505   -2.2039   33.0816 F       1  UNL1       -0.1659
     32 F           4.8556    0.5449   33.9736 F       1  UNL1       -0.1659
     33 N           7.0422   -1.2620   21.2399 N.3     1  UNL1       -0.2971
     34 H           7.6764   -1.4743   22.0101 H       1  UNL1        0.1233
     35 C           7.0033   -2.4786   20.3632 C.3     1  UNL1        0.0689
     36 C           6.5876   -2.3552   18.9273 C.3     1  UNL1        0.0218
     37 C           5.1949   -2.7296   18.5147 C.3     1  UNL1        0.0278
     38 C           4.0628   -1.7718   18.7403 C.ar    1  UNL1       -0.0221
     39 C           3.0277   -2.0669   19.7850 C.ar    1  UNL1       -0.0043
     40 C           1.8956   -1.1092   20.0107 C.ar    1  UNL1       -0.0003
     41 C           1.7985    0.1437   19.1916 C.ar    1  UNL1       -0.0000
     42 C           2.8336    0.4388   18.1468 C.ar    1  UNL1       -0.0003
     43 C           3.9658   -0.5190   17.9212 C.ar    1  UNL1       -0.0043
@<TRIPOS>BOND
     1    13    14    1
     2    14    15   am
     3    15    16    2
     4    15    17    1
     5    17    18   ar
     6    18    19   ar
     7    19    20   ar
     8    20    23    1
     9    23    24   ar
    10    24    25   ar
    11    25    26   ar
    12    26    29    1
    13    29    30    1
    14    29    31    1
    15    29    32    1
    16    26    27   ar
    17    27    28   ar
    18    20    21   ar
    19    21    22   ar
    20     1    14    1
    21     1     2    1
    22     2     3    1
    23     3     4    1
    24     4     5   am
    25     5     6    2
    26     5     7   am
    27     7     8    1
    28     8     9    1
    29     9    10    1
    30    10    33    1
    31    33    35    1
    32    35    36    1
    33    36    37    1
    34    37    38    1
    35    38    39   ar
    36    39    40   ar
    37    40    41   ar
    38    41    42   ar
    39    42    43   ar
    40    10    11    1
    41     4    12    1
    42    22    17   ar
    43    12     1    1
    44    28    23   ar
    45    11     7    1
    46    43    38   ar
    47    33    34    1
@<TRIPOS>MOLECULE
*****
 43 47 0 0 0
SMALL
GASTEIGER

@<TRIPOS>ATOM
      1 C          -2.7494    5.0848   21.3053 C.3     1  UNL1        0.0972
      2 C          -2.9792    3.6573   20.9060 C.3     1  UNL1        0.0431
      3 C          -1.6896    3.1135   20.3663 C.3     1  UNL1        0.0968
      4 N          -0.6627    4.2049   20.4321 N.am    1  UNL1       -0.2623
      5 C           0.7679    4.0970   19.9945 C.2     1  UNL1        0.3073
      6 O           1.6822    5.2793   20.1214 O.2     1  UNL1       -0.2523
      7 N           1.2842    2.8068   19.4298 N.am    1  UNL1       -0.2626
      8 C           0.4923    1.5466   19.2431 C.3     1  UNL1        0.0964
      9 C           1.4017    0.5112   18.6506 C.3     1  UNL1        0.0390
     10 C           2.7557    1.1315   18.4712 C.3     1  UNL1        0.0759
     11 C           2.6830    2.5503   18.9528 C.3     1  UNL1        0.1106
     12 C          -1.3178    5.4232   21.0124 C.3     1  UNL1        0.1147
     13 C          -4.5986    6.8835   20.9966 C.3     1  UNL1        0.1152
     14 N          -3.7718    6.0111   21.8941 N.am    1  UNL1       -0.2742
     15 C          -3.9673    6.0652   23.3802 C.2     1  UNL1        0.2491
     16 O          -4.9896    6.9915   23.9690 O.2     1  UNL1       -0.2699
     17 C          -3.1405    5.1928   24.2777 C.ar    1  UNL1        0.0536
     18 C          -1.8310    5.6933   24.8114 C.ar    1  UNL1        0.0045
     19 C          -1.0043    4.8209   25.7088 C.ar    1  UNL1        0.0001
     20 C          -1.4870    3.4481   26.0726 C.ar    1  UNL1        0.0000
     21 C          -2.7964    2.9476   25.5390 C.ar    1  UNL1        0.0001
     22 C          -3.6232    3.8200   24.6415 C.ar    1  UNL1        0.0045
     23 C          -0.6602    2.5757   26.9701 C.ar    1  UNL1       -0.0000
     24 C           0.8105    2.8315   27.1174 C.ar    1  UNL1       -0.0001
     25 C           1.6373    1.9591   28.0149 C.ar    1  UNL1        0.0039
     26 C           0.9934    0.8310   28.7651 C.ar    1  UNL1        0.0714
     27 C          -0.4774    0.5752   28.6177 C.ar    1  UNL1        0.0039
     28 C          -1.3041    1.4476   27.7202 C.ar    1  UNL1       -0.0001
     29 C           1.8201   -0.0414   29.6625 C.3     1  UNL1        0.4186
     30 F           2.6468   -0.9137   30.5600 F       1  UNL1       -0.1659
     31 F           2.0382   -1.0001   28.5297 F       1  UNL1       -0.1659
     32 F           1.6020    0.9174   30.7953 F       1  UNL1       -0.1659
     33 N           3.9691    0.4523   17.9090 N.3     1  UNL1       -0.2971
     34 H           4.6493    0.3902   18.6665 H       1  UNL1        0.1233
     35 C           3.8531   -0.9212   17.3174 C.3     1  UNL1        0.0689
     36 C           4.4418   -2.0993   18.0355 C.3     1  UNL1        0.0218
     37 C           3.6210   -2.8522   19.0402 C.3     1  UNL1        0.0278
     38 C           3.8498   -2.6385   20.5071 C.ar    1  UNL1       -0.0221
     39 C           3.3300   -1.3999   21.1745 C.ar    1  UNL1       -0.0043
     40 C           3.5588   -1.1861   22.6415 C.ar    1  UNL1       -0.0003
     41 C           4.3075   -2.2109   23.4409 C.ar    1  UNL1       -0.0000
     42 C           4.8273   -3.4495   22.7735 C.ar    1  UNL1       -0.0003
     43 C           4.5985   -3.6633   21.3065 C.ar    1  UNL1       -0.0043
@<TRIPOS>BOND
     1    13    14    1
     2    14    15   am
     3    15    16    2
     4    15    17    1
     5    17    18   ar
     6    18    19   ar
     7    19    20   ar
     8    20    23    1
     9    23    24   ar
    10    24    25   ar
    11    25    26   ar
    12    26    29    1
    13    29    30    1
    14    29    31    1
    15    29    32    1
    16    26    27   ar
    17    27    28   ar
    18    20    21   ar
    19    21    22   ar
    20     1    14    1
    21     1     2    1
    22     2     3    1
    23     3     4    1
    24     4     5   am
    25     5     6    2
    26     5     7   am
    27     7     8    1
    28     8     9    1
    29     9    10    1
    30    10    33    1
    31    33    35    1
    32    35    36    1
    33    36    37    1
    34    37    38    1
    35    38    39   ar
    36    39    40   ar
    37    40    41   ar
    38    41    42   ar
    39    42    43   ar
    40    10    11    1
    41     4    12    1
    42    22    17   ar
    43    12     1    1
    44    28    23   ar
    45    11     7    1
    46    43    38   ar
    47    33    34    1
