@<TRIPOS>MOLECULE
*****
 19 20 0 0 0
SMALL
GASTEIGER

@<TRIPOS>ATOM
      1 C          -9.6912  -19.2920   20.0909 C.3     1  UNL1        0.0341
      2 C          -8.5353  -18.7364   20.8689 C.2     1  UNL1        0.0151
      3 C          -9.0995  -17.6701   21.7603 C.2     1  UNL1        0.0015
      4 C          -8.8333  -16.6291   22.8071 C.3     1  UNL1        0.1347
      5 O         -10.1570  -15.9974   23.1212 O.3     1  UNL1       -0.3800
      6 C          -7.8212  -15.9442   23.6769 C.3     1  UNL1        0.0634
      7 C          -6.3846  -15.8327   24.0935 C.3     1  UNL1        0.1202
      8 C          -7.0764  -14.7965   24.9287 C.3     1  UNL1        0.0322
      9 O          -5.2742  -15.2327   24.9040 O.3     1  UNL1       -0.3561
     10 C          -4.9795  -16.3300   23.9248 C.3     1  UNL1        0.1401
     11 C          -4.0521  -17.2783   23.2242 C.3     1  UNL1        0.0360
     12 C          -3.8968  -18.3764   22.2142 C.3     1  UNL1        0.0211
     13 C          -2.8638  -19.2675   21.5907 C.3     1  UNL1        0.0044
     14 C          -2.5549  -18.0600   22.8051 C.3     1  UNL1        0.0044
     15 C          -4.5630  -19.2757   21.2155 C.2     1  UNL1       -0.0234
     16 C          -5.8391  -19.6907   20.5451 C.2     1  UNL1        0.0371
     17 C          -7.3199  -19.4897   20.4159 C.2     1  UNL1        0.1912
     18 O          -7.7909  -20.4697   19.3826 O.2     1  UNL1       -0.2869
     19 H         -10.0362  -15.3129   23.7978 H       1  UNL1        0.2108
@<TRIPOS>BOND
     1     1     2    1
     2     2     3    2
     3     3     4    1
     4     4     5    1
     5     4     6    1
     6     6     7    1
     7     7     8    1
     8     7     9    1
     9     9    10    1
    10    10    11    1
    11    11    12    1
    12    12    13    1
    13    12    14    1
    14    12    15    1
    15    15    16    2
    16    16    17    1
    17    17    18    2
    18    17     2    1
    19    10     7    1
    20     5    19    1
@<TRIPOS>MOLECULE
*****
 19 20 0 0 0
SMALL
GASTEIGER

@<TRIPOS>ATOM
      1 C          -5.4655  -15.1670   25.2386 C.3     1  UNL1        0.0341
      2 C          -5.7134  -16.1649   24.1464 C.2     1  UNL1        0.0151
      3 C          -4.3822  -16.7750   23.8214 C.2     1  UNL1        0.0015
      4 C          -3.6132  -17.7538   22.9841 C.3     1  UNL1        0.1347
      5 O          -2.1821  -17.6512   23.4214 O.3     1  UNL1       -0.3800
      6 C          -3.6508  -18.7903   21.9006 C.3     1  UNL1        0.0634
      7 C          -4.4828  -19.5555   20.9146 C.3     1  UNL1        0.1202
      8 C          -3.0959  -20.0811   20.6901 C.3     1  UNL1        0.0322
      9 O          -4.6609  -20.5686   19.8228 O.3     1  UNL1       -0.3561
     10 C          -5.8452  -19.8066   20.3393 C.3     1  UNL1        0.1401
     11 C          -7.3054  -19.4636   20.3574 C.3     1  UNL1        0.0360
     12 C          -8.3997  -18.6357   20.9631 C.3     1  UNL1        0.0211
     13 C          -9.8769  -18.3892   20.8773 C.3     1  UNL1        0.0044
     14 C          -8.9848  -19.5246   19.9060 C.3     1  UNL1        0.0044
     15 C          -8.7808  -17.5855   21.9641 C.2     1  UNL1       -0.0234
     16 C          -8.3277  -16.6466   23.0425 C.2     1  UNL1        0.0371
     17 C          -7.1842  -16.1170   23.8561 C.2     1  UNL1        0.1912
     18 O          -7.7651  -15.0922   24.7847 O.2     1  UNL1       -0.2869
     19 H          -1.6412  -18.2693   22.9053 H       1  UNL1        0.2108
@<TRIPOS>BOND
     1     1     2    1
     2     2     3    2
     3     3     4    1
     4     4     5    1
     5     4     6    1
     6     6     7    1
     7     7     8    1
     8     7     9    1
     9     9    10    1
    10    10    11    1
    11    11    12    1
    12    12    13    1
    13    12    14    1
    14    12    15    1
    15    15    16    2
    16    16    17    1
    17    17    18    2
    18    17     2    1
    19    10     7    1
    20     5    19    1
@<TRIPOS>MOLECULE
*****
 19 20 0 0 0
SMALL
GASTEIGER

@<TRIPOS>ATOM
      1 C          -7.3793  -14.9635   24.9572 C.3     1  UNL1        0.0341
      2 C          -7.0748  -16.0257   23.9428 C.2     1  UNL1        0.0151
      3 C          -8.3774  -16.3623   23.2795 C.2     1  UNL1        0.0015
      4 C          -9.0949  -17.1907   22.2551 C.3     1  UNL1        0.1347
      5 O         -10.5375  -16.7848   22.3186 O.3     1  UNL1       -0.3800
      6 C          -8.9995  -18.2476   21.1951 C.3     1  UNL1        0.0634
      7 C          -8.1215  -19.1977   20.4359 C.3     1  UNL1        0.1202
      8 C          -9.4846  -19.4370   19.8575 C.3     1  UNL1        0.0322
      9 O          -7.8862  -20.2606   19.4039 O.3     1  UNL1       -0.3561
     10 C          -6.7396  -19.7393   20.2185 C.3     1  UNL1        0.1401
     11 C          -5.2927  -19.7003   20.6120 C.3     1  UNL1        0.0360
     12 C          -4.2400  -19.0933   21.4914 C.3     1  UNL1        0.0211
     13 C          -2.7706  -19.1555   21.7867 C.3     1  UNL1        0.0044
     14 C          -3.6030  -20.1164   20.5984 C.3     1  UNL1        0.0044
     15 C          -3.9159  -18.1108   22.5776 C.2     1  UNL1       -0.0234
     16 C          -4.4232  -17.0649   23.5256 C.2     1  UNL1        0.0371
     17 C          -5.6008  -16.2876   24.0346 C.2     1  UNL1        0.1912
     18 O          -5.0746  -15.3729   25.1006 O.2     1  UNL1       -0.2869
     19 H         -11.0461  -17.2963   21.6700 H       1  UNL1        0.2108
@<TRIPOS>BOND
     1     1     2    1
     2     2     3    2
     3     3     4    1
     4     4     5    1
     5     4     6    1
     6     6     7    1
     7     7     8    1
     8     7     9    1
     9     9    10    1
    10    10    11    1
    11    11    12    1
    12    12    13    1
    13    12    14    1
    14    12    15    1
    15    15    16    2
    16    16    17    1
    17    17    18    2
    18    17     2    1
    19    10     7    1
    20     5    19    1
@<TRIPOS>MOLECULE
*****
 19 20 0 0 0
SMALL
GASTEIGER

@<TRIPOS>ATOM
      1 C          -9.8103  -19.4663   20.0147 C.3     1  UNL1        0.0341
      2 C          -8.6613  -18.9140   20.8053 C.2     1  UNL1        0.0151
      3 C          -7.4644  -19.7444   20.4476 C.2     1  UNL1        0.0015
      4 C          -6.0001  -19.9999   20.6490 C.3     1  UNL1        0.1347
      5 O          -5.6495  -21.1640   19.7704 O.3     1  UNL1       -0.3800
      6 C          -4.7334  -19.5996   21.3454 C.3     1  UNL1        0.0634
      7 C          -4.0663  -18.6704   22.3158 C.3     1  UNL1        0.1202
      8 C          -2.9552  -19.5748   21.8715 C.3     1  UNL1        0.0322
      9 O          -2.8754  -18.1677   23.0767 O.3     1  UNL1       -0.3561
     10 C          -4.2108  -17.5074   23.2521 C.3     1  UNL1        0.1401
     11 C          -5.1209  -16.4799   23.8570 C.3     1  UNL1        0.0360
     12 C          -6.5076  -15.9140   23.9385 C.3     1  UNL1        0.0211
     13 C          -7.3045  -14.8386   24.6158 C.3     1  UNL1        0.0044
     14 C          -5.6057  -15.1351   24.8493 C.3     1  UNL1        0.0044
     15 C          -7.9309  -15.9895   23.4706 C.2     1  UNL1       -0.0234
     16 C          -8.9386  -16.6824   22.6020 C.2     1  UNL1        0.0371
     17 C          -9.2109  -17.7726   21.6084 C.2     1  UNL1        0.1912
     18 O         -10.6694  -17.6816   21.2703 O.2     1  UNL1       -0.2869
     19 H          -4.7062  -21.3689   19.8662 H       1  UNL1        0.2108
@<TRIPOS>BOND
     1     1     2    1
     2     2     3    2
     3     3     4    1
     4     4     5    1
     5     4     6    1
     6     6     7    1
     7     7     8    1
     8     7     9    1
     9     9    10    1
    10    10    11    1
    11    11    12    1
    12    12    13    1
    13    12    14    1
    14    12    15    1
    15    15    16    2
    16    16    17    1
    17    17    18    2
    18    17     2    1
    19    10     7    1
    20     5    19    1
@<TRIPOS>MOLECULE
*****
 19 20 0 0 0
SMALL
GASTEIGER

@<TRIPOS>ATOM
      1 C          -5.4572  -14.7927   25.9904 C.3     1  UNL1        0.0341
      2 C          -6.0375  -15.9030   25.1655 C.2     1  UNL1        0.0151
      3 C          -4.9200  -16.4225   24.3103 C.2     1  UNL1        0.0015
      4 C          -4.4842  -17.4027   23.2617 C.3     1  UNL1        0.1347
      5 O          -3.0289  -17.1375   23.0140 O.3     1  UNL1       -0.3800
      6 C          -4.8686  -18.5324   22.3528 C.3     1  UNL1        0.0634
      7 C          -5.9510  -19.4529   21.8721 C.3     1  UNL1        0.1202
      8 C          -4.7499  -19.8745   21.0786 C.3     1  UNL1        0.0322
      9 O          -6.4670  -20.5722   21.0172 O.3     1  UNL1       -0.3561
     10 C          -7.3878  -19.8720   21.9721 C.3     1  UNL1        0.1401
     11 C          -8.7228  -19.6565   22.6212 C.3     1  UNL1        0.0360
     12 C          -9.5322  -18.8751   23.6133 C.3     1  UNL1        0.0211
     13 C         -10.9164  -18.7661   24.1810 C.3     1  UNL1        0.0044
     14 C         -10.4108  -19.9033   22.9646 C.3     1  UNL1        0.0044
     15 C          -9.5589  -17.7755   24.6333 C.2     1  UNL1       -0.0234
     16 C          -8.7946  -16.7072   25.3575 C.2     1  UNL1        0.0371
     17 C          -7.4819  -16.0092   25.5559 C.2     1  UNL1        0.1912
     18 O          -7.7155  -14.9586   26.6008 O.2     1  UNL1       -0.2869
     19 H          -2.6988  -17.7506   22.3387 H       1  UNL1        0.2108
@<TRIPOS>BOND
     1     1     2    1
     2     2     3    2
     3     3     4    1
     4     4     5    1
     5     4     6    1
     6     6     7    1
     7     7     8    1
     8     7     9    1
     9     9    10    1
    10    10    11    1
    11    11    12    1
    12    12    13    1
    13    12    14    1
    14    12    15    1
    15    15    16    2
    16    16    17    1
    17    17    18    2
    18    17     2    1
    19    10     7    1
    20     5    19    1
@<TRIPOS>MOLECULE
*****
 19 20 0 0 0
SMALL
GASTEIGER

@<TRIPOS>ATOM
      1 C         -11.8377  -17.3221   22.9525 C.3     1  UNL1        0.0341
      2 C         -10.3472  -17.4755   22.8823 C.2     1  UNL1        0.0151
      3 C          -9.7720  -16.4398   23.8023 C.2     1  UNL1        0.0015
      4 C          -8.5396  -15.8193   24.3907 C.3     1  UNL1        0.1347
      5 O          -9.0115  -14.7327   25.3107 O.3     1  UNL1       -0.3800
      6 C          -7.0413  -15.8111   24.4606 C.3     1  UNL1        0.0634
      7 C          -5.7527  -16.4179   23.9900 C.3     1  UNL1        0.1202
      8 C          -5.3117  -15.3427   24.9384 C.3     1  UNL1        0.0322
      9 O          -4.2562  -16.5176   23.9665 O.3     1  UNL1       -0.3561
     10 C          -5.0830  -17.4468   23.1281 C.3     1  UNL1        0.1401
     11 C          -5.2449  -18.5714   22.1487 C.3     1  UNL1        0.0360
     12 C          -6.1869  -19.4344   21.3627 C.3     1  UNL1        0.0211
     13 C          -6.2063  -20.5685   20.3810 C.3     1  UNL1        0.0044
     14 C          -4.7766  -19.8486   21.0636 C.3     1  UNL1        0.0044
     15 C          -7.6100  -19.7620   21.0196 C.2     1  UNL1       -0.0234
     16 C          -9.0622  -19.4501   21.2285 C.2     1  UNL1        0.0371
     17 C         -10.0826  -18.5977   21.9229 C.2     1  UNL1        0.1912
     18 O         -11.4240  -19.0766   21.4524 O.2     1  UNL1       -0.2869
     19 H          -8.2456  -14.2987   25.7182 H       1  UNL1        0.2108
@<TRIPOS>BOND
     1     1     2    1
     2     2     3    2
     3     3     4    1
     4     4     5    1
     5     4     6    1
     6     6     7    1
     7     7     8    1
     8     7     9    1
     9     9    10    1
    10    10    11    1
    11    11    12    1
    12    12    13    1
    13    12    14    1
    14    12    15    1
    15    15    16    2
    16    16    17    1
    17    17    18    2
    18    17     2    1
    19    10     7    1
    20     5    19    1
@<TRIPOS>MOLECULE
*****
 19 20 0 0 0
SMALL
GASTEIGER

@<TRIPOS>ATOM
      1 C          -5.6562  -16.6141   23.8601 C.3     1  UNL1        0.0341
      2 C          -6.8622  -17.0777   23.0979 C.2     1  UNL1        0.0151
      3 C          -6.3558  -17.9892   22.0196 C.2     1  UNL1        0.0015
      4 C          -6.6898  -18.8726   20.8542 C.3     1  UNL1        0.1347
      5 O          -5.3868  -19.4204   20.3520 O.3     1  UNL1       -0.3800
      6 C          -7.7578  -19.4473   19.9717 C.3     1  UNL1        0.0634
      7 C          -9.2211  -19.5309   19.6523 C.3     1  UNL1        0.1202
      8 C          -8.5835  -20.4178   18.6242 C.3     1  UNL1        0.0322
      9 O         -10.3836  -20.0327   18.8482 O.3     1  UNL1       -0.3561
     10 C         -10.6148  -19.0969   19.9974 C.3     1  UNL1        0.1401
     11 C         -11.4966  -18.2830   20.8975 C.3     1  UNL1        0.0360
     12 C         -11.5864  -17.3477   22.0666 C.3     1  UNL1        0.0211
     13 C         -12.5789  -16.5815   22.8902 C.3     1  UNL1        0.0044
     14 C         -12.9662  -17.6064   21.5382 C.3     1  UNL1        0.0044
     15 C         -10.8558  -16.5879   23.1339 C.2     1  UNL1       -0.0234
     16 C          -9.5367  -16.2448   23.7602 C.2     1  UNL1        0.0371
     17 C          -8.0479  -16.4274   23.7468 C.2     1  UNL1        0.1912
     18 O          -7.5102  -15.5974   24.8746 O.2     1  UNL1       -0.2869
     19 H          -5.5514  -20.0017   19.5932 H       1  UNL1        0.2108
@<TRIPOS>BOND
     1     1     2    1
     2     2     3    2
     3     3     4    1
     4     4     5    1
     5     4     6    1
     6     6     7    1
     7     7     8    1
     8     7     9    1
     9     9    10    1
    10    10    11    1
    11    11    12    1
    12    12    13    1
    13    12    14    1
    14    12    15    1
    15    15    16    2
    16    16    17    1
    17    17    18    2
    18    17     2    1
    19    10     7    1
    20     5    19    1
@<TRIPOS>MOLECULE
*****
 19 20 0 0 0
SMALL
GASTEIGER

@<TRIPOS>ATOM
      1 C         -15.2330   -1.2547   19.8308 C.3     1  UNL1        0.0341
      2 C         -14.6812   -2.6217   19.5534 C.2     1  UNL1        0.0151
      3 C         -13.1968   -2.4579   19.4139 C.2     1  UNL1        0.0015
      4 C         -11.8726   -3.1164   19.1623 C.3     1  UNL1        0.1347
      5 O         -10.8419   -2.0282   19.2194 O.3     1  UNL1       -0.3800
      6 C         -11.1294   -4.3880   18.8786 C.3     1  UNL1        0.0634
      7 C         -11.2028   -5.8691   18.6529 C.3     1  UNL1        0.1202
      8 C          -9.7383   -5.5660   18.5376 C.3     1  UNL1        0.0322
      9 O         -10.5858   -7.2073   18.3727 O.3     1  UNL1       -0.3561
     10 C         -12.0698   -7.0894   18.5567 C.3     1  UNL1        0.1401
     11 C         -13.4550   -7.6615   18.6206 C.3     1  UNL1        0.0360
     12 C         -14.9185   -7.4037   18.8244 C.3     1  UNL1        0.0211
     13 C         -16.2450   -8.1032   18.8617 C.3     1  UNL1        0.0044
     14 C         -14.7088   -8.8670   18.5699 C.3     1  UNL1        0.0044
     15 C         -15.9958   -6.3979   19.1033 C.2     1  UNL1       -0.0234
     16 C         -16.3449   -4.9634   19.3688 C.2     1  UNL1        0.0371
     17 C         -15.8548   -3.5557   19.5366 C.2     1  UNL1        0.1912
     18 O         -17.0679   -2.7151   19.8046 O.2     1  UNL1       -0.2869
     19 H          -9.9629   -2.4068   19.0617 H       1  UNL1        0.2108
@<TRIPOS>BOND
     1     1     2    1
     2     2     3    2
     3     3     4    1
     4     4     5    1
     5     4     6    1
     6     6     7    1
     7     7     8    1
     8     7     9    1
     9     9    10    1
    10    10    11    1
    11    11    12    1
    12    12    13    1
    13    12    14    1
    14    12    15    1
    15    15    16    2
    16    16    17    1
    17    17    18    2
    18    17     2    1
    19    10     7    1
    20     5    19    1
@<TRIPOS>MOLECULE
*****
 19 20 0 0 0
SMALL
GASTEIGER

@<TRIPOS>ATOM
      1 C         -12.5151  -18.0403   21.1592 C.3     1  UNL1        0.0341
      2 C         -11.0688  -17.9071   21.5340 C.2     1  UNL1        0.0151
      3 C         -10.3073  -18.8070   20.6065 C.2     1  UNL1        0.0015
      4 C          -8.9726  -19.3462   20.1846 C.3     1  UNL1        0.1347
      5 O          -9.2378  -20.2902   19.0495 O.3     1  UNL1       -0.3800
      6 C          -7.4886  -19.3535   20.4024 C.3     1  UNL1        0.0634
      7 C          -6.3262  -18.8266   21.1906 C.3     1  UNL1        0.1202
      8 C          -5.6902  -19.7607   20.2043 C.3     1  UNL1        0.0322
      9 O          -4.8640  -18.7401   21.5138 O.3     1  UNL1       -0.3561
     10 C          -5.8547  -17.9327   22.2991 C.3     1  UNL1        0.1401
     11 C          -6.2237  -16.9557   23.3758 C.3     1  UNL1        0.0360
     12 C          -7.3160  -16.2058   24.0790 C.3     1  UNL1        0.0211
     13 C          -7.5458  -15.2205   25.1865 C.3     1  UNL1        0.0044
     14 C          -5.9974  -15.8461   24.6971 C.3     1  UNL1        0.0044
     15 C          -8.7849  -15.9210   24.1853 C.2     1  UNL1       -0.0234
     16 C         -10.1640  -16.1919   23.6611 C.2     1  UNL1        0.0371
     17 C         -11.0154  -16.9322   22.6727 C.2     1  UNL1        0.1912
     18 O         -12.4316  -16.5160   22.9395 O.2     1  UNL1       -0.2869
     19 H          -8.3994  -20.6673   18.7400 H       1  UNL1        0.2108
@<TRIPOS>BOND
     1     1     2    1
     2     2     3    2
     3     3     4    1
     4     4     5    1
     5     4     6    1
     6     6     7    1
     7     7     8    1
     8     7     9    1
     9     9    10    1
    10    10    11    1
    11    11    12    1
    12    12    13    1
    13    12    14    1
    14    12    15    1
    15    15    16    2
    16    16    17    1
    17    17    18    2
    18    17     2    1
    19    10     7    1
    20     5    19    1
