@<TRIPOS>MOLECULE
*****
 38 40 0 0 0
SMALL
GASTEIGER

@<TRIPOS>ATOM
      1 C           6.5759   -2.9052   25.8533 C.2     1  UNL1        0.2485
      2 O           6.9990   -1.5487   25.3730 O.2     1  UNL1       -0.2726
      3 N           5.8202   -3.8227   24.9384 N.am    1  UNL1       -0.2823
      4 H           5.5425   -4.7130   25.2536 H       1  UNL1        0.1549
      5 C           5.6146   -2.0079   31.3221 C.ar    1  UNL1        0.1054
      6 C           5.0129   -1.2671   30.1649 C.ar    1  UNL1        0.0181
      7 C           5.3839   -1.6410   28.7604 C.ar    1  UNL1       -0.0011
      8 C           6.3566   -2.7557   28.5131 C.ar    1  UNL1        0.0022
      9 C           6.9582   -3.4966   29.6703 C.ar    1  UNL1       -0.0030
     10 C           6.5872   -3.1227   31.0747 C.ar    1  UNL1        0.0155
     11 C           7.8820   -4.5430   29.1209 C.3     1  UNL1        0.1206
     12 N           7.8512   -4.4488   27.6242 N.am    1  UNL1       -0.2655
     13 C           8.6270   -5.3083   26.6705 C.2     1  UNL1        0.2269
     14 C           9.5360   -6.3796   27.1958 C.3     1  UNL1        0.0949
     15 O           8.4938   -5.0964   25.1915 O.2     1  UNL1       -0.2748
     16 C           6.9084   -3.3442   27.2486 C.3     1  UNL1        0.1750
     17 S           5.2436   -1.6341   32.7265 S.O2    1  UNL1        0.0086
     18 O           6.6697   -1.2610   33.0039 O.2     1  UNL1       -0.1686
     19 O           3.8174   -2.0071   32.4491 O.2     1  UNL1       -0.1686
     20 C           5.7913   -0.3982   34.9452 C.3     1  UNL1        0.0276
     21 C           4.8726   -1.2602   34.1310 C.3     1  UNL1        0.1560
     22 C           5.4877   -3.3836   23.5432 C.ar    1  UNL1        0.0503
     23 C           4.3128   -2.4833   23.3002 C.ar    1  UNL1        0.0144
     24 C           3.9803   -2.0443   21.9049 C.ar    1  UNL1       -0.0002
     25 C           4.8226   -2.5055   20.7527 C.ar    1  UNL1        0.0182
     26 C           5.9974   -3.4059   20.9957 C.ar    1  UNL1       -0.0002
     27 C           6.3300   -3.8449   22.3909 C.ar    1  UNL1        0.0144
     28 C           4.4900   -2.0665   19.3575 C.3     1  UNL1        0.2827
     29 O           5.2886   -0.8132   19.5615 O.3     1  UNL1       -0.3692
     30 H           5.6634   -0.8107   20.4561 H       1  UNL1        0.2112
     31 C           4.1575   -1.6274   17.9622 C.3     1  UNL1        0.4311
     32 F           3.8250   -1.1884   16.5670 F       1  UNL1       -0.1669
     33 F           3.0770   -0.7368   18.5000 F       1  UNL1       -0.1669
     34 F           4.7669   -2.1179   17.5466 F       1  UNL1       -0.1669
     35 C           3.6915   -3.3197   19.1534 C.3     1  UNL1        0.4311
     36 F           2.8930   -4.5730   18.9494 F       1  UNL1       -0.1669
     37 F           2.9316   -3.0207   19.4964 F       1  UNL1       -0.1669
     38 F           4.6611   -4.2676   18.5120 F       1  UNL1       -0.1669
@<TRIPOS>BOND
     1    20    21    1
     2    21    17    1
     3    17    18    2
     4    17    19    2
     5    17     5    1
     6     5     6   ar
     7     6     7   ar
     8     7     8   ar
     9     8     9   ar
    10     9    10   ar
    11     9    11    1
    12    11    12    1
    13    12    13   am
    14    13    14    1
    15    13    15    2
    16    12    16    1
    17    16     1    1
    18     1     2    2
    19     1     3   am
    20     3    22    1
    21    22    23   ar
    22    23    24   ar
    23    24    25   ar
    24    25    28    1
    25    28    29    1
    26    28    31    1
    27    31    32    1
    28    31    33    1
    29    31    34    1
    30    28    35    1
    31    35    36    1
    32    35    37    1
    33    35    38    1
    34    25    26   ar
    35    26    27   ar
    36    10     5   ar
    37    27    22   ar
    38    16     8    1
    39     3     4    1
    40    29    30    1
@<TRIPOS>MOLECULE
*****
 38 40 0 0 0
SMALL
GASTEIGER

@<TRIPOS>ATOM
      1 C           3.3864    0.1174   26.3635 C.2     1  UNL1        0.2485
      2 O           4.2391    1.2498   26.8539 O.2     1  UNL1       -0.2726
      3 N           2.9823   -0.9790   27.3040 N.am    1  UNL1       -0.2823
      4 H           2.4227   -1.7223   26.9822 H       1  UNL1        0.1549
      5 C           4.1483   -2.3212   21.3525 C.ar    1  UNL1        0.1054
      6 C           4.8829   -2.6218   22.6253 C.ar    1  UNL1        0.0181
      7 C           4.5491   -1.8696   23.8795 C.ar    1  UNL1       -0.0011
      8 C           3.4808   -0.8169   23.8609 C.ar    1  UNL1        0.0022
      9 C           2.7462   -0.5163   22.5881 C.ar    1  UNL1       -0.0030
     10 C           3.0799   -1.2685   21.3339 C.ar    1  UNL1        0.0155
     11 C           1.7493    0.5677   22.8732 C.3     1  UNL1        0.1206
     12 N           1.8678    0.9370   24.3221 N.am    1  UNL1       -0.2655
     13 C           1.0583    1.9790   25.0355 C.2     1  UNL1        0.2269
     14 C           0.0173    2.7604   24.2899 C.3     1  UNL1        0.0949
     15 O           1.2897    2.2397   26.4944 O.2     1  UNL1       -0.2748
     16 C           2.9379    0.0813   24.9326 C.3     1  UNL1        0.1750
     17 S           4.4820   -3.0733   20.0984 S.O2    1  UNL1        0.0086
     18 O           4.5699   -4.3471   20.8857 O.2     1  UNL1       -0.1686
     19 O           4.3941   -1.7996   19.3111 O.2     1  UNL1       -0.1686
     20 C           4.5373   -5.2967   18.7554 C.3     1  UNL1        0.0276
     21 C           4.8157   -3.8255   18.8442 C.3     1  UNL1        0.1560
     22 C           3.4309   -0.9429   28.7349 C.ar    1  UNL1        0.0503
     23 C           4.8532   -1.2677   29.0835 C.ar    1  UNL1        0.0144
     24 C           5.3017   -1.2316   30.5144 C.ar    1  UNL1       -0.0002
     25 C           4.3280   -0.8707   31.5968 C.ar    1  UNL1        0.0182
     26 C           2.9057   -0.5458   31.2482 C.ar    1  UNL1       -0.0002
     27 C           2.4572   -0.5819   29.8173 C.ar    1  UNL1        0.0144
     28 C           4.7765   -0.8345   33.0277 C.3     1  UNL1        0.2827
     29 O           4.3672    0.6056   33.1196 O.3     1  UNL1       -0.3692
     30 H           4.0055    0.8940   32.2671 H       1  UNL1        0.2112
     31 C           5.2251   -0.7984   34.4586 C.3     1  UNL1        0.4311
     32 F           5.6736   -0.7623   35.8895 F       1  UNL1       -0.1669
     33 F           6.3205    0.1581   34.0911 F       1  UNL1       -0.1669
     34 F           4.6153   -1.3565   34.7770 F       1  UNL1       -0.1669
     35 C           5.1858   -2.2747   32.9357 C.3     1  UNL1        0.4311
     36 F           5.5952   -3.7148   32.8438 F       1  UNL1       -0.1669
     37 F           4.3703   -2.6153   32.8774 F       1  UNL1       -0.1669
     38 F           6.6839   -2.2310   32.9991 F       1  UNL1       -0.1669
@<TRIPOS>BOND
     1    20    21    1
     2    21    17    1
     3    17    18    2
     4    17    19    2
     5    17     5    1
     6     5     6   ar
     7     6     7   ar
     8     7     8   ar
     9     8     9   ar
    10     9    10   ar
    11     9    11    1
    12    11    12    1
    13    12    13   am
    14    13    14    1
    15    13    15    2
    16    12    16    1
    17    16     1    1
    18     1     2    2
    19     1     3   am
    20     3    22    1
    21    22    23   ar
    22    23    24   ar
    23    24    25   ar
    24    25    28    1
    25    28    29    1
    26    28    31    1
    27    31    32    1
    28    31    33    1
    29    31    34    1
    30    28    35    1
    31    35    36    1
    32    35    37    1
    33    35    38    1
    34    25    26   ar
    35    26    27   ar
    36    10     5   ar
    37    27    22   ar
    38    16     8    1
    39     3     4    1
    40    29    30    1
@<TRIPOS>MOLECULE
*****
 38 40 0 0 0
SMALL
GASTEIGER

@<TRIPOS>ATOM
      1 C           1.3766    1.4086   24.4249 C.2     1  UNL1        0.2485
      2 O           2.1546    2.4244   23.6421 O.2     1  UNL1       -0.2726
      3 N           1.5003   -0.0491   24.0934 N.am    1  UNL1       -0.2823
      4 H           0.9897   -0.7158   24.6072 H       1  UNL1        0.1549
      5 C          -3.4322    4.0326   25.7003 C.ar    1  UNL1        0.1054
      6 C          -2.8677    3.7946   24.3311 C.ar    1  UNL1        0.0181
      7 C          -1.5629    3.0718   24.1730 C.ar    1  UNL1       -0.0011
      8 C          -0.8225    2.5870   25.3841 C.ar    1  UNL1        0.0022
      9 C          -1.3870    2.8251   26.7533 C.ar    1  UNL1       -0.0030
     10 C          -2.6918    3.5479   26.9114 C.ar    1  UNL1        0.0155
     11 C          -0.4384    2.2356   27.7547 C.3     1  UNL1        0.1206
     12 N           0.7123    1.6332   27.0043 N.am    1  UNL1       -0.2655
     13 C           1.8932    0.9360   27.6123 C.2     1  UNL1        0.2269
     14 C           1.9948    0.7935   29.1021 C.3     1  UNL1        0.0949
     15 O           2.9724    0.3813   26.7305 O.2     1  UNL1       -0.2748
     16 C           0.4749    1.8504   25.5392 C.3     1  UNL1        0.1750
     17 S          -4.7370    4.7554   25.8584 S.O2    1  UNL1        0.0086
     18 O          -4.6811    4.5322   27.3406 O.2     1  UNL1       -0.1686
     19 O          -4.7929    4.9787   24.3761 O.2     1  UNL1       -0.1686
     20 C          -7.0459    5.4658   24.9022 C.3     1  UNL1        0.0276
     21 C          -6.0418    5.4782   26.0164 C.3     1  UNL1        0.1560
     22 C           2.4020   -0.4909   22.9791 C.ar    1  UNL1        0.0503
     23 C           2.0234   -0.2155   21.5540 C.ar    1  UNL1        0.0144
     24 C           2.9251   -0.6574   20.4396 C.ar    1  UNL1       -0.0002
     25 C           4.2054   -1.3745   20.7503 C.ar    1  UNL1        0.0182
     26 C           4.5840   -1.6499   22.1754 C.ar    1  UNL1       -0.0002
     27 C           3.6823   -1.2081   23.2897 C.ar    1  UNL1        0.0144
     28 C           5.1071   -1.8163   19.6360 C.3     1  UNL1        0.2827
     29 O           6.0807   -0.7330   19.9943 O.3     1  UNL1       -0.3692
     30 H           5.7408   -0.2301   20.7509 H       1  UNL1        0.2112
     31 C           6.0088   -2.2582   18.5217 C.3     1  UNL1        0.4311
     32 F           6.9105   -2.7000   17.4073 F       1  UNL1       -0.1669
     33 F           5.5207   -1.1199   17.6754 F       1  UNL1       -0.1669
     34 F           6.3597   -2.9571   18.9374 F       1  UNL1       -0.1669
     35 C           4.1335   -2.8997   19.2777 C.3     1  UNL1        0.4311
     36 F           3.1598   -3.9830   18.9194 F       1  UNL1       -0.1669
     37 F           3.7523   -2.4814   18.5963 F       1  UNL1       -0.1669
     38 F           4.4127   -3.9835   20.2763 F       1  UNL1       -0.1669
@<TRIPOS>BOND
     1    20    21    1
     2    21    17    1
     3    17    18    2
     4    17    19    2
     5    17     5    1
     6     5     6   ar
     7     6     7   ar
     8     7     8   ar
     9     8     9   ar
    10     9    10   ar
    11     9    11    1
    12    11    12    1
    13    12    13   am
    14    13    14    1
    15    13    15    2
    16    12    16    1
    17    16     1    1
    18     1     2    2
    19     1     3   am
    20     3    22    1
    21    22    23   ar
    22    23    24   ar
    23    24    25   ar
    24    25    28    1
    25    28    29    1
    26    28    31    1
    27    31    32    1
    28    31    33    1
    29    31    34    1
    30    28    35    1
    31    35    36    1
    32    35    37    1
    33    35    38    1
    34    25    26   ar
    35    26    27   ar
    36    10     5   ar
    37    27    22   ar
    38    16     8    1
    39     3     4    1
    40    29    30    1
@<TRIPOS>MOLECULE
*****
 38 40 0 0 0
SMALL
GASTEIGER

@<TRIPOS>ATOM
      1 C           6.4849   -2.9014   23.9329 C.2     1  UNL1        0.2485
      2 O           7.0149   -1.5778   23.4669 O.2     1  UNL1       -0.2726
      3 N           5.1503   -3.3869   23.4499 N.am    1  UNL1       -0.2823
      4 H           4.8024   -4.2556   23.7558 H       1  UNL1        0.1549
      5 C           8.2928   -3.4164   29.2341 C.ar    1  UNL1        0.1054
      6 C           7.4320   -2.3227   28.6746 C.ar    1  UNL1        0.0181
      7 C           7.0414   -2.3423   27.2265 C.ar    1  UNL1       -0.0011
      8 C           7.5116   -3.4554   26.3379 C.ar    1  UNL1        0.0022
      9 C           8.3724   -4.5491   26.8973 C.ar    1  UNL1       -0.0030
     10 C           8.7630   -4.5295   28.3454 C.ar    1  UNL1        0.0155
     11 C           8.6821   -5.5090   25.7870 C.3     1  UNL1        0.1206
     12 N           8.0127   -5.0087   24.5415 N.am    1  UNL1       -0.2655
     13 C           8.0586   -5.6626   23.1922 C.2     1  UNL1        0.2269
     14 C           8.8271   -6.9368   23.0022 C.3     1  UNL1        0.0949
     15 O           7.3362   -5.0425   22.0332 O.2     1  UNL1       -0.2748
     16 C           7.2893   -3.7395   24.8819 C.3     1  UNL1        0.1750
     17 S           8.6834   -3.3968   30.6822 S.O2    1  UNL1        0.0086
     18 O           8.5781   -1.9006   30.6904 O.2     1  UNL1       -0.1686
     19 O           8.7887   -4.8931   30.6740 O.2     1  UNL1       -0.1686
     20 C           8.9224   -2.1181   32.9311 C.3     1  UNL1        0.0276
     21 C           9.0740   -3.3773   32.1303 C.3     1  UNL1        0.1560
     22 C           4.3459   -2.5489   22.5010 C.ar    1  UNL1        0.0503
     23 C           4.3589   -2.8564   21.0329 C.ar    1  UNL1        0.0144
     24 C           3.5544   -2.0183   20.0839 C.ar    1  UNL1       -0.0002
     25 C           2.7370   -0.8728   20.6030 C.ar    1  UNL1        0.0182
     26 C           2.7240   -0.5653   22.0711 C.ar    1  UNL1       -0.0002
     27 C           3.5284   -1.4034   23.0200 C.ar    1  UNL1        0.0144
     28 C           1.9325   -0.0347   19.6540 C.3     1  UNL1        0.2827
     29 O           0.6670   -0.6005   20.2272 O.3     1  UNL1       -0.3692
     30 H           0.8847   -1.2334   20.9293 H       1  UNL1        0.2112
     31 C           1.1281    0.8033   18.7051 C.3     1  UNL1        0.4311
     32 F           0.3236    1.6414   17.7561 F       1  UNL1       -0.1669
     33 F           1.2256    1.9653   19.6486 F       1  UNL1       -0.1669
     34 F           1.0130    0.1826   18.0838 F       1  UNL1       -0.1669
     35 C           3.1980    0.5310   19.0809 C.3     1  UNL1        0.4311
     36 F           4.4634    1.0968   18.5078 F       1  UNL1       -0.1669
     37 F           3.1315    0.1560   18.2812 F       1  UNL1       -0.1669
     38 F           3.7651    1.3562   20.1978 F       1  UNL1       -0.1669
@<TRIPOS>BOND
     1    20    21    1
     2    21    17    1
     3    17    18    2
     4    17    19    2
     5    17     5    1
     6     5     6   ar
     7     6     7   ar
     8     7     8   ar
     9     8     9   ar
    10     9    10   ar
    11     9    11    1
    12    11    12    1
    13    12    13   am
    14    13    14    1
    15    13    15    2
    16    12    16    1
    17    16     1    1
    18     1     2    2
    19     1     3   am
    20     3    22    1
    21    22    23   ar
    22    23    24   ar
    23    24    25   ar
    24    25    28    1
    25    28    29    1
    26    28    31    1
    27    31    32    1
    28    31    33    1
    29    31    34    1
    30    28    35    1
    31    35    36    1
    32    35    37    1
    33    35    38    1
    34    25    26   ar
    35    26    27   ar
    36    10     5   ar
    37    27    22   ar
    38    16     8    1
    39     3     4    1
    40    29    30    1
@<TRIPOS>MOLECULE
*****
 38 40 0 0 0
SMALL
GASTEIGER

@<TRIPOS>ATOM
      1 C          -0.1541    2.8572   21.0092 C.2     1  UNL1        0.2485
      2 O          -1.5380    2.3241   20.7846 O.2     1  UNL1       -0.2726
      3 N           0.1302    3.7288   22.1965 N.am    1  UNL1       -0.2823
      4 H           1.0386    4.0787   22.3440 H       1  UNL1        0.1549
      5 C           3.3266   -1.1826   19.2200 C.ar    1  UNL1        0.1054
      6 C           2.2953   -1.2923   20.3036 C.ar    1  UNL1        0.0181
      7 C           1.4468   -0.1062   20.6545 C.ar    1  UNL1       -0.0011
      8 C           1.6296    1.1898   19.9217 C.ar    1  UNL1        0.0022
      9 C           2.6609    1.2995   18.8380 C.ar    1  UNL1       -0.0030
     10 C           3.5094    0.1134   18.4872 C.ar    1  UNL1        0.0155
     11 C           2.6142    2.6964   18.2933 C.3     1  UNL1        0.1206
     12 N           1.5539    3.4499   19.0404 N.am    1  UNL1       -0.2655
     13 C           1.1696    4.8831   18.8198 C.2     1  UNL1        0.2269
     14 C           1.8706    5.6947   17.7711 C.3     1  UNL1        0.0949
     15 O           0.0844    5.5045   19.6480 O.2     1  UNL1       -0.2748
     16 C           0.9455    2.5188   20.0467 C.3     1  UNL1        0.1750
     17 S           4.1750   -2.3688   18.8691 S.O2    1  UNL1        0.0086
     18 O           5.2230   -1.4534   18.3089 O.2     1  UNL1       -0.1686
     19 O           3.1270   -3.2841   19.4294 O.2     1  UNL1       -0.1686
     20 C           4.5499   -4.9395   18.8478 C.3     1  UNL1        0.0276
     21 C           5.0235   -3.5549   18.5183 C.3     1  UNL1        0.1560
     22 C          -0.9693    4.0672   23.1590 C.ar    1  UNL1        0.0503
     23 C          -1.1608    3.2443   24.3984 C.ar    1  UNL1        0.0144
     24 C          -2.2604    3.5828   25.3609 C.ar    1  UNL1       -0.0002
     25 C          -3.1685    4.7440   25.0840 C.ar    1  UNL1        0.0182
     26 C          -2.9771    5.5669   23.8445 C.ar    1  UNL1       -0.0002
     27 C          -1.8775    5.2284   22.8821 C.ar    1  UNL1        0.0144
     28 C          -4.2681    5.0824   26.0465 C.3     1  UNL1        0.2827
     29 O          -3.2704    5.7350   26.9568 O.3     1  UNL1       -0.3692
     30 H          -2.3849    5.6694   26.5662 H       1  UNL1        0.2112
     31 C          -5.3677    5.4208   27.0090 C.3     1  UNL1        0.4311
     32 F          -6.4672    5.7593   27.9715 F       1  UNL1       -0.1669
     33 F          -5.2077    6.8756   26.6803 F       1  UNL1       -0.1669
     34 F          -5.5406    4.5926   27.2709 F       1  UNL1       -0.1669
     35 C          -5.2658    4.4298   25.1362 C.3     1  UNL1        0.4311
     36 F          -6.2635    3.7772   24.2259 F       1  UNL1       -0.1669
     37 F          -5.0248    3.5923   25.2946 F       1  UNL1       -0.1669
     38 F          -6.0250    5.5806   24.5452 F       1  UNL1       -0.1669
@<TRIPOS>BOND
     1    20    21    1
     2    21    17    1
     3    17    18    2
     4    17    19    2
     5    17     5    1
     6     5     6   ar
     7     6     7   ar
     8     7     8   ar
     9     8     9   ar
    10     9    10   ar
    11     9    11    1
    12    11    12    1
    13    12    13   am
    14    13    14    1
    15    13    15    2
    16    12    16    1
    17    16     1    1
    18     1     2    2
    19     1     3   am
    20     3    22    1
    21    22    23   ar
    22    23    24   ar
    23    24    25   ar
    24    25    28    1
    25    28    29    1
    26    28    31    1
    27    31    32    1
    28    31    33    1
    29    31    34    1
    30    28    35    1
    31    35    36    1
    32    35    37    1
    33    35    38    1
    34    25    26   ar
    35    26    27   ar
    36    10     5   ar
    37    27    22   ar
    38    16     8    1
    39     3     4    1
    40    29    30    1
@<TRIPOS>MOLECULE
*****
 38 40 0 0 0
SMALL
GASTEIGER

@<TRIPOS>ATOM
      1 C           4.9892   -2.6550   22.0977 C.2     1  UNL1        0.2485
      2 O           4.1362   -3.8098   22.5320 O.2     1  UNL1       -0.2726
      3 N           6.2963   -2.3885   22.7836 N.am    1  UNL1       -0.2823
      4 H           6.8562   -1.6305   22.4986 H       1  UNL1        0.1549
      5 C           1.2138    1.2007   20.5113 C.ar    1  UNL1        0.1054
      6 C           1.3033    0.5177   21.8437 C.ar    1  UNL1        0.0181
      7 C           2.3822   -0.4930   22.0975 C.ar    1  UNL1       -0.0011
      8 C           3.3717   -0.8207   21.0189 C.ar    1  UNL1        0.0022
      9 C           3.2822   -0.1377   19.6864 C.ar    1  UNL1       -0.0030
     10 C           2.2033    0.8730   19.4326 C.ar    1  UNL1        0.0155
     11 C           4.3904   -0.6615   18.8216 C.3     1  UNL1        0.1206
     12 N           5.1646   -1.6682   19.6197 N.am    1  UNL1       -0.2655
     13 C           6.3589   -2.4410   19.1435 C.2     1  UNL1        0.2269
     14 C           6.8785   -2.2358   17.7514 C.3     1  UNL1        0.0949
     15 O           7.0334   -3.4188   20.0593 O.2     1  UNL1       -0.2748
     16 C           4.5351   -1.7666   20.9776 C.3     1  UNL1        0.1750
     17 S           0.1349    2.2114   20.2575 S.O2    1  UNL1        0.0086
     18 O          -0.4022    1.9852   21.6396 O.2     1  UNL1       -0.1686
     19 O           0.6720    2.4377   18.8753 O.2     1  UNL1       -0.1686
     20 C          -2.2969    3.0477   20.6276 C.3     1  UNL1        0.0276
     21 C          -0.9440    3.2221   20.0037 C.3     1  UNL1        0.1560
     22 C           6.7504   -3.2768   23.9037 C.ar    1  UNL1        0.0503
     23 C           6.3581   -2.9619   25.3168 C.ar    1  UNL1        0.0144
     24 C           6.8122   -3.8503   26.4369 C.ar    1  UNL1       -0.0002
     25 C           7.6585   -5.0535   26.1439 C.ar    1  UNL1        0.0182
     26 C           8.0508   -5.3684   24.7308 C.ar    1  UNL1       -0.0002
     27 C           7.5967   -4.4800   23.6107 C.ar    1  UNL1        0.0144
     28 C           8.1126   -5.9419   27.2640 C.3     1  UNL1        0.2827
     29 O           8.9038   -4.8069   27.8434 O.3     1  UNL1       -0.3692
     30 H           8.7976   -4.0206   27.2854 H       1  UNL1        0.2112
     31 C           8.5667   -6.8302   28.3841 C.3     1  UNL1        0.4311
     32 F           9.0208   -7.7186   29.5042 F       1  UNL1       -0.1669
     33 F           7.3459   -6.4596   29.1730 F       1  UNL1       -0.1669
     34 F           9.3149   -7.1114   28.0024 F       1  UNL1       -0.1669
     35 C           7.3214   -7.0769   26.6846 C.3     1  UNL1        0.4311
     36 F           6.5301   -8.2119   26.1052 F       1  UNL1       -0.1669
     37 F           6.5184   -6.7661   26.8927 F       1  UNL1       -0.1669
     38 F           8.3648   -8.0013   26.1309 F       1  UNL1       -0.1669
@<TRIPOS>BOND
     1    20    21    1
     2    21    17    1
     3    17    18    2
     4    17    19    2
     5    17     5    1
     6     5     6   ar
     7     6     7   ar
     8     7     8   ar
     9     8     9   ar
    10     9    10   ar
    11     9    11    1
    12    11    12    1
    13    12    13   am
    14    13    14    1
    15    13    15    2
    16    12    16    1
    17    16     1    1
    18     1     2    2
    19     1     3   am
    20     3    22    1
    21    22    23   ar
    22    23    24   ar
    23    24    25   ar
    24    25    28    1
    25    28    29    1
    26    28    31    1
    27    31    32    1
    28    31    33    1
    29    31    34    1
    30    28    35    1
    31    35    36    1
    32    35    37    1
    33    35    38    1
    34    25    26   ar
    35    26    27   ar
    36    10     5   ar
    37    27    22   ar
    38    16     8    1
    39     3     4    1
    40    29    30    1
@<TRIPOS>MOLECULE
*****
 38 40 0 0 0
SMALL
GASTEIGER

@<TRIPOS>ATOM
      1 C           5.4644   -0.5570   31.6786 C.2     1  UNL1        0.2485
      2 O           6.4492    0.5238   32.0130 O.2     1  UNL1       -0.2726
      3 N           4.3280   -0.8513   32.6125 N.am    1  UNL1       -0.2823
      4 H           3.6816   -1.5606   32.3930 H       1  UNL1        0.1549
      5 C           7.5320   -5.2597   29.3884 C.ar    1  UNL1        0.1054
      6 C           7.6185   -4.8405   30.8259 C.ar    1  UNL1        0.0181
      7 C           7.0067   -3.5440   31.2672 C.ar    1  UNL1       -0.0011
      8 C           6.3084   -2.6667   30.2709 C.ar    1  UNL1        0.0022
      9 C           6.2220   -3.0859   28.8333 C.ar    1  UNL1       -0.0030
     10 C           6.8337   -4.3824   28.3920 C.ar    1  UNL1        0.0155
     11 C           5.4759   -2.0218   28.0842 C.3     1  UNL1        0.1206
     12 N           5.1013   -0.9449   29.0589 N.am    1  UNL1       -0.2655
     13 C           4.3449    0.3102   28.7385 C.2     1  UNL1        0.2269
     14 C           3.8918    0.5747   27.3332 C.3     1  UNL1        0.0949
     15 O           4.0416    1.3008   29.8232 O.2     1  UNL1       -0.2748
     16 C           5.6158   -1.3435   30.4104 C.3     1  UNL1        0.1750
     17 S           8.1438   -6.5563   28.9471 S.O2    1  UNL1        0.0086
     18 O           7.3598   -6.4915   27.6699 O.2     1  UNL1       -0.1686
     19 O           8.9277   -6.6210   30.2242 O.2     1  UNL1       -0.1686
     20 C           8.3592   -8.4607   27.1931 C.3     1  UNL1        0.0276
     21 C           8.7555   -7.8528   28.5058 C.3     1  UNL1        0.1560
     22 C           4.1766   -0.0647   33.8807 C.ar    1  UNL1        0.0503
     23 C           4.7582   -0.5868   35.1610 C.ar    1  UNL1        0.0144
     24 C           4.6068    0.1997   36.4292 C.ar    1  UNL1       -0.0002
     25 C           3.8737    1.5083   36.4173 C.ar    1  UNL1        0.0182
     26 C           3.2920    2.0303   35.1370 C.ar    1  UNL1       -0.0002
     27 C           3.4434    1.2438   33.8687 C.ar    1  UNL1        0.0144
     28 C           3.7222    2.2948   37.6855 C.3     1  UNL1        0.2827
     29 O           4.6969    3.3122   37.1709 O.3     1  UNL1       -0.3692
     30 H           4.9993    3.0520   36.2868 H       1  UNL1        0.2112
     31 C           3.5708    3.0813   38.9537 C.3     1  UNL1        0.4311
     32 F           3.4193    3.8678   40.2220 F       1  UNL1       -0.1669
     33 F           4.9751    2.7253   39.3422 F       1  UNL1       -0.1669
     34 F           2.7367    3.3466   38.8173 F       1  UNL1       -0.1669
     35 C           2.7476    1.2773   38.2001 C.3     1  UNL1        0.4311
     36 F           1.7729    0.2599   38.7147 F       1  UNL1       -0.1669
     37 F           2.0989    1.4467   37.6212 F       1  UNL1       -0.1669
     38 F           3.4694    0.6294   39.3443 F       1  UNL1       -0.1669
@<TRIPOS>BOND
     1    20    21    1
     2    21    17    1
     3    17    18    2
     4    17    19    2
     5    17     5    1
     6     5     6   ar
     7     6     7   ar
     8     7     8   ar
     9     8     9   ar
    10     9    10   ar
    11     9    11    1
    12    11    12    1
    13    12    13   am
    14    13    14    1
    15    13    15    2
    16    12    16    1
    17    16     1    1
    18     1     2    2
    19     1     3   am
    20     3    22    1
    21    22    23   ar
    22    23    24   ar
    23    24    25   ar
    24    25    28    1
    25    28    29    1
    26    28    31    1
    27    31    32    1
    28    31    33    1
    29    31    34    1
    30    28    35    1
    31    35    36    1
    32    35    37    1
    33    35    38    1
    34    25    26   ar
    35    26    27   ar
    36    10     5   ar
    37    27    22   ar
    38    16     8    1
    39     3     4    1
    40    29    30    1
@<TRIPOS>MOLECULE
*****
 38 40 0 0 0
SMALL
GASTEIGER

@<TRIPOS>ATOM
      1 C           4.9038   -0.6643   32.3936 C.2     1  UNL1        0.2485
      2 O           3.7199   -1.4861   32.8096 O.2     1  UNL1       -0.2726
      3 N           5.3286    0.5118   33.2220 N.am    1  UNL1       -0.2823
      4 H           6.1057    1.0512   32.9491 H       1  UNL1        0.1549
      5 C           4.5878   -1.2473   26.8082 C.ar    1  UNL1        0.1054
      6 C           3.4847   -0.8375   27.7383 C.ar    1  UNL1        0.0181
      7 C           3.7462   -0.7319   29.2116 C.ar    1  UNL1       -0.0011
      8 C           5.1108   -1.0361   29.7547 C.ar    1  UNL1        0.0022
      9 C           6.2140   -1.4459   28.8247 C.ar    1  UNL1       -0.0030
     10 C           5.9525   -1.5515   27.3514 C.ar    1  UNL1        0.0155
     11 C           7.4479   -1.6817   29.6445 C.3     1  UNL1        0.1206
     12 N           7.1073   -1.4176   31.0812 N.am    1  UNL1       -0.2655
     13 C           8.0462   -1.5323   32.2454 C.2     1  UNL1        0.2269
     14 C           9.4710   -1.9445   32.0221 C.3     1  UNL1        0.0949
     15 O           7.5602   -1.2347   33.6330 O.2     1  UNL1       -0.2748
     16 C           5.6629   -1.0186   31.1493 C.3     1  UNL1        0.1750
     17 S           4.3263   -1.3528   25.3350 S.O2    1  UNL1        0.0086
     18 O           3.1691   -0.4084   25.4727 O.2     1  UNL1       -0.1686
     19 O           5.4835   -2.2972   25.1973 O.2     1  UNL1       -0.1686
     20 C           2.9628   -0.6557   23.2362 C.3     1  UNL1        0.0276
     21 C           4.0648   -1.4584   23.8617 C.3     1  UNL1        0.1560
     22 C           4.5695    0.8661   34.4663 C.ar    1  UNL1        0.0503
     23 C           3.4191    1.8260   34.3953 C.ar    1  UNL1        0.0144
     24 C           2.6600    2.1803   35.6396 C.ar    1  UNL1       -0.0002
     25 C           3.0513    1.5748   36.9549 C.ar    1  UNL1        0.0182
     26 C           4.2018    0.6149   37.0259 C.ar    1  UNL1       -0.0002
     27 C           4.9608    0.2606   35.7817 C.ar    1  UNL1        0.0144
     28 C           2.2922    1.9291   38.1992 C.3     1  UNL1        0.2827
     29 O           2.1980    0.4751   38.5557 O.3     1  UNL1       -0.3692
     30 H           2.6405   -0.0543   37.8739 H       1  UNL1        0.2112
     31 C           1.5332    2.2834   39.4435 C.3     1  UNL1        0.4311
     32 F           0.7741    2.6377   40.6878 F       1  UNL1       -0.1669
     33 F           0.4177    1.3733   39.0222 F       1  UNL1       -0.1669
     34 F           2.1323    2.8423   39.7800 F       1  UNL1       -0.1669
     35 C           2.3865    3.3830   37.8427 C.3     1  UNL1        0.4311
     36 F           2.4807    4.8370   37.4862 F       1  UNL1       -0.1669
     37 F           3.2664    3.4551   37.9146 F       1  UNL1       -0.1669
     38 F           0.9639    3.7889   37.5949 F       1  UNL1       -0.1669
@<TRIPOS>BOND
     1    20    21    1
     2    21    17    1
     3    17    18    2
     4    17    19    2
     5    17     5    1
     6     5     6   ar
     7     6     7   ar
     8     7     8   ar
     9     8     9   ar
    10     9    10   ar
    11     9    11    1
    12    11    12    1
    13    12    13   am
    14    13    14    1
    15    13    15    2
    16    12    16    1
    17    16     1    1
    18     1     2    2
    19     1     3   am
    20     3    22    1
    21    22    23   ar
    22    23    24   ar
    23    24    25   ar
    24    25    28    1
    25    28    29    1
    26    28    31    1
    27    31    32    1
    28    31    33    1
    29    31    34    1
    30    28    35    1
    31    35    36    1
    32    35    37    1
    33    35    38    1
    34    25    26   ar
    35    26    27   ar
    36    10     5   ar
    37    27    22   ar
    38    16     8    1
    39     3     4    1
    40    29    30    1
@<TRIPOS>MOLECULE
*****
 38 40 0 0 0
SMALL
GASTEIGER

@<TRIPOS>ATOM
      1 C           3.7836   -0.3545   25.8841 C.2     1  UNL1        0.2485
      2 O           4.5844    0.8321   26.3320 O.2     1  UNL1       -0.2726
      3 N           3.4021   -1.4176   26.8712 N.am    1  UNL1       -0.2823
      4 H           2.8765   -2.1965   26.5772 H       1  UNL1        0.1549
      5 C           0.4786    1.7492   21.8483 C.ar    1  UNL1        0.1054
      6 C           0.5872    2.2241   23.2669 C.ar    1  UNL1        0.0181
      7 C           1.5270    1.5420   24.2164 C.ar    1  UNL1       -0.0011
      8 C           2.3583    0.3850   23.7471 C.ar    1  UNL1        0.0022
      9 C           2.2497   -0.0900   22.3285 C.ar    1  UNL1       -0.0030
     10 C           1.3098    0.5921   21.3791 C.ar    1  UNL1        0.0155
     11 C           3.1887   -1.2467   22.1537 C.3     1  UNL1        0.1206
     12 N           3.8776   -1.4865   23.4644 N.am    1  UNL1       -0.2655
     13 C           4.9002   -2.5484   23.7417 C.2     1  UNL1        0.2269
     14 C           5.3174   -3.4907   22.6517 C.3     1  UNL1        0.0949
     15 O           5.5055   -2.6680   25.1089 O.2     1  UNL1       -0.2748
     16 C           3.3644   -0.4781   24.4492 C.3     1  UNL1        0.1750
     17 S          -0.4613    2.4312   20.8988 S.O2    1  UNL1        0.0086
     18 O          -1.3572    2.7936   22.0460 O.2     1  UNL1       -0.1686
     19 O           0.4346    2.0689   19.7517 O.2     1  UNL1       -0.1686
     20 C          -2.8339    3.3289   20.3376 C.3     1  UNL1        0.0276
     21 C          -1.4011    3.1133   19.9494 C.3     1  UNL1        0.1560
     22 C           3.8213   -1.2940   28.3060 C.ar    1  UNL1        0.0503
     23 C           5.2115   -1.6793   28.7171 C.ar    1  UNL1        0.0144
     24 C           5.6307   -1.5557   30.1520 C.ar    1  UNL1       -0.0002
     25 C           4.6599   -1.0468   31.1759 C.ar    1  UNL1        0.0182
     26 C           3.2697   -0.6615   30.7648 C.ar    1  UNL1       -0.0002
     27 C           2.8504   -0.7851   29.3299 C.ar    1  UNL1        0.0144
     28 C           5.0791   -0.9232   32.6108 C.3     1  UNL1        0.2827
     29 O           4.7142    0.5316   32.5921 O.3     1  UNL1       -0.3692
     30 H           4.3800    0.7699   31.7132 H       1  UNL1        0.2112
     31 C           5.4983   -0.7996   34.0457 C.3     1  UNL1        0.4311
     32 F           5.9176   -0.6760   35.4806 F       1  UNL1       -0.1669
     33 F           4.2345   -1.4846   34.4740 F       1  UNL1       -0.1669
     34 F           6.2693   -0.3892   33.8979 F       1  UNL1       -0.1669
     35 C           5.4440   -2.3780   32.6295 C.3     1  UNL1        0.4311
     36 F           5.8089   -3.8328   32.6482 F       1  UNL1       -0.1669
     37 F           4.6214   -2.6967   32.5495 F       1  UNL1       -0.1669
     38 F           6.9375   -2.3759   32.7688 F       1  UNL1       -0.1669
@<TRIPOS>BOND
     1    20    21    1
     2    21    17    1
     3    17    18    2
     4    17    19    2
     5    17     5    1
     6     5     6   ar
     7     6     7   ar
     8     7     8   ar
     9     8     9   ar
    10     9    10   ar
    11     9    11    1
    12    11    12    1
    13    12    13   am
    14    13    14    1
    15    13    15    2
    16    12    16    1
    17    16     1    1
    18     1     2    2
    19     1     3   am
    20     3    22    1
    21    22    23   ar
    22    23    24   ar
    23    24    25   ar
    24    25    28    1
    25    28    29    1
    26    28    31    1
    27    31    32    1
    28    31    33    1
    29    31    34    1
    30    28    35    1
    31    35    36    1
    32    35    37    1
    33    35    38    1
    34    25    26   ar
    35    26    27   ar
    36    10     5   ar
    37    27    22   ar
    38    16     8    1
    39     3     4    1
    40    29    30    1
