@<TRIPOS>MOLECULE
*****
 28 31 0 0 0
SMALL
GASTEIGER

@<TRIPOS>ATOM
      1 N          -7.9339  -19.5320   21.5028 N.3     1  UNL1       -0.2586
      2 C          -8.5931  -19.1249   22.7872 C.3     1  UNL1        0.0982
      3 C          -9.4555  -20.1018   23.5301 C.3     1  UNL1        0.0224
      4 C         -10.1146  -19.6947   24.8146 C.3     1  UNL1        0.0065
      5 C          -9.9115  -18.3108   25.3561 C.3     1  UNL1        0.0277
      6 C          -9.0491  -17.3338   24.6131 C.ar    1  UNL1       -0.0073
      7 C          -8.8459  -15.9498   25.1546 C.ar    1  UNL1       -0.0015
      8 C          -7.9835  -14.9729   24.4117 C.ar    1  UNL1        0.0203
      9 C          -7.3244  -15.3800   23.1273 C.ar    1  UNL1        0.0985
     10 N          -7.5275  -16.7640   22.5858 N.ar    1  UNL1       -0.2471
     11 C          -8.3899  -17.7409   23.3287 C.ar    1  UNL1        0.0695
     12 C          -8.5836  -19.2071   20.1905 C.3     1  UNL1        0.0730
     13 C         -10.0791  -19.2080   20.0733 C.3     1  UNL1        0.0188
     14 C         -10.8124  -17.9240   19.8211 C.3     1  UNL1        0.0183
     15 N         -10.1901  -15.6928   20.9977 N.3     1  UNL1       -0.3211
     16 C         -11.0151  -16.9441   20.9386 C.3     1  UNL1        0.0652
     17 H         -10.4585  -15.1469   21.8164 H       1  UNL1        0.1189
     18 H         -10.3483  -15.1411   20.1545 H       1  UNL1        0.1189
     19 C          -6.6249  -20.2641   21.5307 C.3     1  UNL1        0.1979
     20 C          -5.3519  -19.5367   21.2142 C.2     1  UNL1        0.3675
     21 N          -4.6488  -18.5597   22.1093 N.2     1  UNL1       -0.0337
     22 C          -3.4207  -18.0777   21.3954 C.2     1  UNL1        0.2318
     23 C          -2.3462  -17.1082   21.7895 C.2     1  UNL1        0.0498
     24 C          -1.2158  -16.8178   20.8473 C.2     1  UNL1       -0.0002
     25 C          -1.1600  -17.4968   19.5110 C.2     1  UNL1       -0.0172
     26 C          -2.2345  -18.4663   19.1169 C.3     1  UNL1        0.1037
     27 C          -3.3649  -18.7568   20.0591 C.2     1  UNL1        0.2175
     28 N          -4.5584  -19.6585   19.9470 N.2     1  UNL1       -0.0375
@<TRIPOS>BOND
     1    15    16    1
     2    16    14    1
     3    14    13    1
     4    13    12    1
     5    12     1    1
     6     1    19    1
     7    19    20    1
     8    20    21    2
     9    21    22    1
    10    22    23    2
    11    23    24    1
    12    24    25    2
    13    25    26    1
    14    26    27    1
    15    27    28    2
    16     2     1    1
    17     2     3    1
    18     3     4    1
    19     4     5    1
    20     5     6    1
    21     6     7   ar
    22     7     8   ar
    23     8     9   ar
    24     9    10   ar
    25    10    11   ar
    26    28    20    1
    27    11     2    1
    28    27    22    1
    29    11     6   ar
    30    15    17    1
    31    15    18    1
@<TRIPOS>MOLECULE
*****
 28 31 0 0 0
SMALL
GASTEIGER

@<TRIPOS>ATOM
      1 N          -8.0494  -18.0425   22.9097 N.3     1  UNL1       -0.2586
      2 C          -9.5241  -18.1329   23.1690 C.3     1  UNL1        0.0982
      3 C         -10.0291  -18.8526   24.3843 C.3     1  UNL1        0.0224
      4 C         -11.5038  -18.9429   24.6437 C.3     1  UNL1        0.0065
      5 C         -12.4734  -18.3137   23.6877 C.3     1  UNL1        0.0277
      6 C         -11.9683  -17.5940   22.4724 C.ar    1  UNL1       -0.0073
      7 C         -12.9379  -16.9648   21.5164 C.ar    1  UNL1       -0.0015
      8 C         -12.4328  -16.2451   20.3011 C.ar    1  UNL1        0.0203
      9 C         -10.9582  -16.1547   20.0418 C.ar    1  UNL1        0.0985
     10 N          -9.9886  -16.7840   20.9977 N.ar    1  UNL1       -0.2471
     11 C         -10.4937  -17.5036   22.2130 C.ar    1  UNL1        0.0695
     12 C          -7.2995  -16.7948   23.2710 C.3     1  UNL1        0.0730
     13 C          -7.9849  -15.7035   24.0387 C.3     1  UNL1        0.0188
     14 C          -8.0000  -15.7371   25.5383 C.3     1  UNL1        0.0183
     15 N          -5.6872  -14.5821   25.7971 N.3     1  UNL1       -0.3211
     16 C          -6.7270  -15.5360   26.3058 C.3     1  UNL1        0.0652
     17 H          -4.8940  -14.5701   26.4383 H       1  UNL1        0.1189
     18 H          -6.0869  -13.6458   25.7332 H       1  UNL1        0.1189
     19 C          -7.3247  -19.2000   22.2890 C.3     1  UNL1        0.1979
     20 C          -5.9441  -19.0101   21.7343 C.2     1  UNL1        0.3675
     21 N          -4.6638  -19.0798   22.5127 N.2     1  UNL1       -0.0337
     22 C          -3.5298  -18.8299   21.5632 C.2     1  UNL1        0.2318
     23 C          -2.0444  -18.7775   21.7654 C.2     1  UNL1        0.0498
     24 C          -1.1385  -18.5009   20.6023 C.2     1  UNL1       -0.0002
     25 C          -1.7180  -18.2767   19.2370 C.2     1  UNL1       -0.0172
     26 C          -3.2033  -18.3291   19.0348 C.3     1  UNL1        0.1037
     27 C          -4.1092  -18.6057   20.1979 C.2     1  UNL1        0.2175
     28 N          -5.6014  -18.7171   20.3036 N.2     1  UNL1       -0.0375
@<TRIPOS>BOND
     1    15    16    1
     2    16    14    1
     3    14    13    1
     4    13    12    1
     5    12     1    1
     6     1    19    1
     7    19    20    1
     8    20    21    2
     9    21    22    1
    10    22    23    2
    11    23    24    1
    12    24    25    2
    13    25    26    1
    14    26    27    1
    15    27    28    2
    16     2     1    1
    17     2     3    1
    18     3     4    1
    19     4     5    1
    20     5     6    1
    21     6     7   ar
    22     7     8   ar
    23     8     9   ar
    24     9    10   ar
    25    10    11   ar
    26    28    20    1
    27    11     2    1
    28    27    22    1
    29    11     6   ar
    30    15    17    1
    31    15    18    1
@<TRIPOS>MOLECULE
*****
 28 31 0 0 0
SMALL
GASTEIGER

@<TRIPOS>ATOM
      1 N          -8.7627  -18.1072   22.3452 N.3     1  UNL1       -0.2586
      2 C         -10.1493  -17.6782   21.9668 C.3     1  UNL1        0.0982
      3 C         -10.3886  -16.9822   20.6597 C.3     1  UNL1        0.0224
      4 C         -11.7752  -16.5533   20.2813 C.3     1  UNL1        0.0065
      5 C         -12.9226  -16.8203   21.2098 C.3     1  UNL1        0.0277
      6 C         -12.6834  -17.5163   22.5169 C.ar    1  UNL1       -0.0073
      7 C         -13.8307  -17.7833   23.4454 C.ar    1  UNL1       -0.0015
      8 C         -13.5915  -18.4793   24.7524 C.ar    1  UNL1        0.0203
      9 C         -12.2048  -18.9082   25.1309 C.ar    1  UNL1        0.0985
     10 N         -11.0575  -18.6412   24.2024 N.ar    1  UNL1       -0.2471
     11 C         -11.2967  -17.9452   22.8954 C.ar    1  UNL1        0.0695
     12 C          -8.0274  -17.3889   23.4376 C.3     1  UNL1        0.0730
     13 C          -8.2407  -15.9186   23.6444 C.3     1  UNL1        0.0188
     14 C          -7.5391  -15.2091   24.7644 C.3     1  UNL1        0.0183
     15 N          -5.3490  -14.8182   23.4227 N.3     1  UNL1       -0.3211
     16 C          -6.0487  -15.0434   24.7302 C.3     1  UNL1        0.0652
     17 H          -4.3460  -14.7278   23.5849 H       1  UNL1        0.1189
     18 H          -5.7019  -13.9641   22.9908 H       1  UNL1        0.1189
     19 C          -8.1114  -19.2545   21.6313 C.3     1  UNL1        0.1979
     20 C          -6.6543  -19.1900   21.2812 C.2     1  UNL1        0.3675
     21 N          -5.5219  -19.6988   22.1232 N.2     1  UNL1       -0.0337
     22 C          -4.2414  -19.4287   21.3901 C.2     1  UNL1        0.2318
     23 C          -2.8090  -19.7107   21.7344 C.2     1  UNL1        0.0498
     24 C          -1.7176  -19.3171   20.7837 C.2     1  UNL1       -0.0002
     25 C          -2.0586  -18.6414   19.4887 C.2     1  UNL1       -0.0172
     26 C          -3.4910  -18.3594   19.1443 C.3     1  UNL1        0.1037
     27 C          -4.5824  -18.7530   20.0950 C.2     1  UNL1        0.2175
     28 N          -6.0737  -18.6055   20.0277 N.2     1  UNL1       -0.0375
@<TRIPOS>BOND
     1    15    16    1
     2    16    14    1
     3    14    13    1
     4    13    12    1
     5    12     1    1
     6     1    19    1
     7    19    20    1
     8    20    21    2
     9    21    22    1
    10    22    23    2
    11    23    24    1
    12    24    25    2
    13    25    26    1
    14    26    27    1
    15    27    28    2
    16     2     1    1
    17     2     3    1
    18     3     4    1
    19     4     5    1
    20     5     6    1
    21     6     7   ar
    22     7     8   ar
    23     8     9   ar
    24     9    10   ar
    25    10    11   ar
    26    28    20    1
    27    11     2    1
    28    27    22    1
    29    11     6   ar
    30    15    17    1
    31    15    18    1
@<TRIPOS>MOLECULE
*****
 28 31 0 0 0
SMALL
GASTEIGER

@<TRIPOS>ATOM
      1 N          -7.4017  -17.8912   22.1730 N.3     1  UNL1       -0.2586
      2 C          -8.5594  -18.3537   21.3389 C.3     1  UNL1        0.0982
      3 C          -8.3315  -19.3036   20.2006 C.3     1  UNL1        0.0224
      4 C          -9.4892  -19.7661   19.3665 C.3     1  UNL1        0.0065
      5 C         -10.8748  -19.2787   19.6706 C.3     1  UNL1        0.0277
      6 C         -11.1027  -18.3287   20.8090 C.ar    1  UNL1       -0.0073
      7 C         -12.4883  -17.8413   21.1131 C.ar    1  UNL1       -0.0015
      8 C         -12.7162  -16.8914   22.2514 C.ar    1  UNL1        0.0203
      9 C         -11.5585  -16.4289   23.0855 C.ar    1  UNL1        0.0985
     10 N         -10.1729  -16.9163   22.7814 N.ar    1  UNL1       -0.2471
     11 C          -9.9450  -17.8662   21.6431 C.ar    1  UNL1        0.0695
     12 C          -7.4215  -16.5249   22.7918 C.3     1  UNL1        0.0730
     13 C          -6.9118  -16.3267   24.1885 C.3     1  UNL1        0.0188
     14 C          -5.7356  -15.4296   24.4374 C.3     1  UNL1        0.0183
     15 N          -6.4921  -14.8735   26.8599 N.3     1  UNL1       -0.3211
     16 C          -5.4038  -14.9984   25.8353 C.3     1  UNL1        0.0652
     17 H          -6.0903  -14.5722   27.7477 H       1  UNL1        0.1189
     18 H          -6.9489  -15.7772   26.9827 H       1  UNL1        0.1189
     19 C          -6.2240  -18.7950   22.3884 C.3     1  UNL1        0.1979
     20 C          -4.9090  -18.4812   21.7384 C.2     1  UNL1        0.3675
     21 N          -3.8301  -17.6085   22.3078 N.2     1  UNL1       -0.0337
     22 C          -2.6964  -17.5729   21.3262 C.2     1  UNL1        0.2318
     23 C          -1.3685  -16.8758   21.3514 C.2     1  UNL1        0.0498
     24 C          -0.4189  -17.0295   20.2005 C.2     1  UNL1       -0.0002
     25 C          -0.7971  -17.8803   19.0245 C.2     1  UNL1       -0.0172
     26 C          -2.1250  -18.5774   18.9993 C.3     1  UNL1        0.1037
     27 C          -3.0746  -18.4238   20.1502 C.2     1  UNL1        0.2175
     28 N          -4.4421  -18.9851   20.4049 N.2     1  UNL1       -0.0375
@<TRIPOS>BOND
     1    15    16    1
     2    16    14    1
     3    14    13    1
     4    13    12    1
     5    12     1    1
     6     1    19    1
     7    19    20    1
     8    20    21    2
     9    21    22    1
    10    22    23    2
    11    23    24    1
    12    24    25    2
    13    25    26    1
    14    26    27    1
    15    27    28    2
    16     2     1    1
    17     2     3    1
    18     3     4    1
    19     4     5    1
    20     5     6    1
    21     6     7   ar
    22     7     8   ar
    23     8     9   ar
    24     9    10   ar
    25    10    11   ar
    26    28    20    1
    27    11     2    1
    28    27    22    1
    29    11     6   ar
    30    15    17    1
    31    15    18    1
@<TRIPOS>MOLECULE
*****
 28 31 0 0 0
SMALL
GASTEIGER

@<TRIPOS>ATOM
      1 N         -11.9200   -4.0700   17.9437 N.3     1  UNL1       -0.2586
      2 C         -11.8368   -2.5918   17.7028 C.3     1  UNL1        0.0982
      3 C         -10.6525   -2.0143   16.9860 C.3     1  UNL1        0.0224
      4 C         -10.5693   -0.5361   16.7451 C.3     1  UNL1        0.0065
      5 C         -11.6704    0.3645   17.2209 C.3     1  UNL1        0.0277
      6 C         -12.8547   -0.2130   17.9378 C.ar    1  UNL1       -0.0073
      7 C         -13.9558    0.6876   18.4136 C.ar    1  UNL1       -0.0015
      8 C         -15.1401    0.1100   19.1304 C.ar    1  UNL1        0.0203
      9 C         -15.2233   -1.3682   19.3714 C.ar    1  UNL1        0.0985
     10 N         -14.1222   -2.2688   18.8955 N.ar    1  UNL1       -0.2471
     11 C         -12.9379   -1.6912   18.1787 C.ar    1  UNL1        0.0695
     12 C         -11.2547   -4.6727   19.1455 C.3     1  UNL1        0.0730
     13 C          -9.8101   -5.0716   19.0818 C.3     1  UNL1        0.0188
     14 C          -9.3944   -6.2548   18.2587 C.3     1  UNL1        0.0183
     15 N          -9.8154   -8.7941   17.9056 N.3     1  UNL1       -0.3211
     16 C          -9.5232   -7.6404   18.8186 C.3     1  UNL1        0.0652
     17 H          -9.8689   -9.6543   18.4511 H       1  UNL1        0.1189
     18 H          -9.0712   -8.8764   17.2129 H       1  UNL1        0.1189
     19 C         -12.6685   -4.9456   16.9829 C.3     1  UNL1        0.1979
     20 C         -13.6212   -5.9828   17.4993 C.2     1  UNL1        0.3675
     21 N         -13.5997   -7.4446   17.1640 N.2     1  UNL1       -0.0337
     22 C         -14.7278   -8.1055   17.8992 C.2     1  UNL1        0.2318
     23 C         -15.1934   -9.5304   17.9515 C.2     1  UNL1        0.0498
     24 C         -16.3778   -9.9019   18.7936 C.2     1  UNL1       -0.0002
     25 C         -17.0965   -8.8485   19.5834 C.2     1  UNL1       -0.0172
     26 C         -16.6309   -7.4236   19.5311 C.3     1  UNL1        0.1037
     27 C         -15.4465   -7.0521   18.6889 C.2     1  UNL1        0.2175
     28 N         -14.7626   -5.7401   18.4419 N.2     1  UNL1       -0.0375
@<TRIPOS>BOND
     1    15    16    1
     2    16    14    1
     3    14    13    1
     4    13    12    1
     5    12     1    1
     6     1    19    1
     7    19    20    1
     8    20    21    2
     9    21    22    1
    10    22    23    2
    11    23    24    1
    12    24    25    2
    13    25    26    1
    14    26    27    1
    15    27    28    2
    16     2     1    1
    17     2     3    1
    18     3     4    1
    19     4     5    1
    20     5     6    1
    21     6     7   ar
    22     7     8   ar
    23     8     9   ar
    24     9    10   ar
    25    10    11   ar
    26    28    20    1
    27    11     2    1
    28    27    22    1
    29    11     6   ar
    30    15    17    1
    31    15    18    1
@<TRIPOS>MOLECULE
*****
 28 31 0 0 0
SMALL
GASTEIGER

@<TRIPOS>ATOM
      1 N         -13.0644   -4.6826   18.2732 N.3     1  UNL1       -0.2586
      2 C         -13.6106   -3.3004   18.4764 C.3     1  UNL1        0.0982
      3 C         -14.9516   -3.1112   19.1212 C.3     1  UNL1        0.0224
      4 C         -15.4979   -1.7290   19.3243 C.3     1  UNL1        0.0065
      5 C         -14.7031   -0.5361   18.8827 C.3     1  UNL1        0.0277
      6 C         -13.3620   -0.7252   18.2378 C.ar    1  UNL1       -0.0073
      7 C         -12.5672    0.4677   17.7961 C.ar    1  UNL1       -0.0015
      8 C         -11.2262    0.2785   17.1513 C.ar    1  UNL1        0.0203
      9 C         -10.6800   -1.1036   16.9482 C.ar    1  UNL1        0.0985
     10 N         -11.4747   -2.2966   17.3898 N.ar    1  UNL1       -0.2471
     11 C         -12.8158   -2.1074   18.0347 C.ar    1  UNL1        0.0695
     12 C         -12.3472   -5.0262   17.0014 C.3     1  UNL1        0.0730
     13 C         -11.1949   -5.9861   17.0260 C.3     1  UNL1        0.0188
     14 C          -9.8411   -5.5215   17.4747 C.3     1  UNL1        0.0183
     15 N          -9.6382   -3.7159   19.3318 N.3     1  UNL1       -0.3211
     16 C          -9.6119   -5.1555   18.9112 C.3     1  UNL1        0.0652
     17 H          -9.4647   -3.6516   20.3349 H       1  UNL1        0.1189
     18 H         -10.5519   -3.3160   19.1184 H       1  UNL1        0.1189
     19 C         -13.2353   -5.7211   19.3420 C.3     1  UNL1        0.1979
     20 C         -14.2887   -6.7792   19.1980 C.2     1  UNL1        0.3675
     21 N         -15.7120   -6.6750   19.6599 N.2     1  UNL1       -0.0337
     22 C         -16.4068   -7.9587   19.3141 C.2     1  UNL1        0.2318
     23 C         -17.8160   -8.4262   19.5272 C.2     1  UNL1        0.0498
     24 C         -18.2313   -9.7912   19.0646 C.2     1  UNL1       -0.0002
     25 C         -17.2374  -10.6888   18.3890 C.2     1  UNL1       -0.0172
     26 C         -15.8282  -10.2213   18.1760 C.3     1  UNL1        0.1037
     27 C         -15.4129   -8.8562   18.6385 C.2     1  UNL1        0.2175
     28 N         -14.1038   -8.1274   18.5667 N.2     1  UNL1       -0.0375
@<TRIPOS>BOND
     1    15    16    1
     2    16    14    1
     3    14    13    1
     4    13    12    1
     5    12     1    1
     6     1    19    1
     7    19    20    1
     8    20    21    2
     9    21    22    1
    10    22    23    2
    11    23    24    1
    12    24    25    2
    13    25    26    1
    14    26    27    1
    15    27    28    2
    16     2     1    1
    17     2     3    1
    18     3     4    1
    19     4     5    1
    20     5     6    1
    21     6     7   ar
    22     7     8   ar
    23     8     9   ar
    24     9    10   ar
    25    10    11   ar
    26    28    20    1
    27    11     2    1
    28    27    22    1
    29    11     6   ar
    30    15    17    1
    31    15    18    1
@<TRIPOS>MOLECULE
*****
 28 31 0 0 0
SMALL
GASTEIGER

@<TRIPOS>ATOM
      1 N         -13.7377   -6.5820   18.0494 N.3     1  UNL1       -0.2586
      2 C         -15.1188   -6.8081   18.5892 C.3     1  UNL1        0.0982
      3 C         -15.9070   -5.6565   19.1392 C.3     1  UNL1        0.0224
      4 C         -17.2881   -5.8827   19.6790 C.3     1  UNL1        0.0065
      5 C         -17.8810   -7.2604   19.6688 C.3     1  UNL1        0.0277
      6 C         -17.0929   -8.4121   19.1188 C.ar    1  UNL1       -0.0073
      7 C         -17.6858   -9.7899   19.1086 C.ar    1  UNL1       -0.0015
      8 C         -16.8977  -10.9415   18.5586 C.ar    1  UNL1        0.0203
      9 C         -15.5166  -10.7154   18.0188 C.ar    1  UNL1        0.0985
     10 N         -14.9236   -9.3376   18.0290 N.ar    1  UNL1       -0.2471
     11 C         -15.7118   -8.1860   18.5790 C.ar    1  UNL1        0.0695
     12 C         -12.5540   -7.1952   18.7369 C.3     1  UNL1        0.0730
     13 C         -11.2193   -7.2203   18.0529 C.3     1  UNL1        0.0188
     14 C         -10.0983   -6.3645   18.5641 C.3     1  UNL1        0.0183
     15 N          -9.5306   -3.8743   19.0399 N.3     1  UNL1       -0.3211
     16 C         -10.4003   -5.0749   19.2681 C.3     1  UNL1        0.0652
     17 H          -9.8789   -3.0919   19.5938 H       1  UNL1        0.1189
     18 H          -9.5477   -3.6251   18.0510 H       1  UNL1        0.1189
     19 C         -13.5403   -5.7426   16.8219 C.3     1  UNL1        0.1979
     20 C         -13.1132   -4.3107   16.9533 C.2     1  UNL1        0.3675
     21 N         -11.8189   -3.7286   16.4676 N.2     1  UNL1       -0.0337
     22 C         -11.8111   -2.2677   16.8075 C.2     1  UNL1        0.2318
     23 C         -10.7964   -1.1881   16.5734 C.2     1  UNL1        0.0498
     24 C         -11.0712    0.2123   17.0350 C.2     1  UNL1       -0.0002
     25 C         -12.3607    0.5332   17.7309 C.2     1  UNL1       -0.0172
     26 C         -13.3754   -0.5464   17.9650 C.3     1  UNL1        0.1037
     27 C         -13.1006   -1.9468   17.5034 C.2     1  UNL1        0.2175
     28 N         -13.9054   -3.2095   17.5935 N.2     1  UNL1       -0.0375
@<TRIPOS>BOND
     1    15    16    1
     2    16    14    1
     3    14    13    1
     4    13    12    1
     5    12     1    1
     6     1    19    1
     7    19    20    1
     8    20    21    2
     9    21    22    1
    10    22    23    2
    11    23    24    1
    12    24    25    2
    13    25    26    1
    14    26    27    1
    15    27    28    2
    16     2     1    1
    17     2     3    1
    18     3     4    1
    19     4     5    1
    20     5     6    1
    21     6     7   ar
    22     7     8   ar
    23     8     9   ar
    24     9    10   ar
    25    10    11   ar
    26    28    20    1
    27    11     2    1
    28    27    22    1
    29    11     6   ar
    30    15    17    1
    31    15    18    1
@<TRIPOS>MOLECULE
*****
 28 31 0 0 0
SMALL
GASTEIGER

@<TRIPOS>ATOM
      1 N         -13.7103   -3.8881   16.8400 N.3     1  UNL1       -0.2586
      2 C         -12.2114   -3.8821   16.7828 C.3     1  UNL1        0.0982
      3 C         -11.4935   -2.7941   16.0408 C.3     1  UNL1        0.0224
      4 C          -9.9946   -2.7882   15.9836 C.3     1  UNL1        0.0065
      5 C          -9.2136   -3.8702   16.6685 C.3     1  UNL1        0.0277
      6 C          -9.9316   -4.9584   17.4106 C.ar    1  UNL1       -0.0073
      7 C          -9.1506   -6.0404   18.0955 C.ar    1  UNL1       -0.0015
      8 C          -9.8685   -7.1285   18.8376 C.ar    1  UNL1        0.0203
      9 C         -11.3674   -7.1344   18.8948 C.ar    1  UNL1        0.0985
     10 N         -12.1484   -6.0523   18.2099 N.ar    1  UNL1       -0.2471
     11 C         -11.4305   -4.9643   17.4678 C.ar    1  UNL1        0.0695
     12 C         -14.4367   -2.8082   17.5858 C.3     1  UNL1        0.0730
     13 C         -13.8234   -2.2013   18.8128 C.3     1  UNL1        0.0188
     14 C         -14.4155   -2.4788   20.1629 C.3     1  UNL1        0.0183
     15 N         -14.0191   -5.0463   20.1904 N.3     1  UNL1       -0.3211
     16 C         -14.0395   -3.7273   20.9044 C.3     1  UNL1        0.0652
     17 H         -13.7437   -5.7813   20.8419 H       1  UNL1        0.1189
     18 H         -13.3509   -5.0061   19.4209 H       1  UNL1        0.1189
     19 C         -14.4828   -4.9739   16.1513 C.3     1  UNL1        0.1979
     20 C         -15.2081   -6.0075   16.9611 C.2     1  UNL1        0.3675
     21 N         -16.1977   -5.7357   18.0551 N.2     1  UNL1       -0.0337
     22 C         -16.6723   -7.0546   18.5891 C.2     1  UNL1        0.2318
     23 C         -17.6485   -7.4062   19.6723 C.2     1  UNL1        0.0498
     24 C         -17.9285   -8.8448   19.9915 C.2     1  UNL1       -0.0002
     25 C         -17.2323   -9.9318   19.2275 C.2     1  UNL1       -0.0172
     26 C         -16.2561   -9.5802   18.1443 C.3     1  UNL1        0.1037
     27 C         -15.9761   -8.1416   17.8251 C.2     1  UNL1        0.2175
     28 N         -15.0712   -7.4945   16.8189 N.2     1  UNL1       -0.0375
@<TRIPOS>BOND
     1    15    16    1
     2    16    14    1
     3    14    13    1
     4    13    12    1
     5    12     1    1
     6     1    19    1
     7    19    20    1
     8    20    21    2
     9    21    22    1
    10    22    23    2
    11    23    24    1
    12    24    25    2
    13    25    26    1
    14    26    27    1
    15    27    28    2
    16     2     1    1
    17     2     3    1
    18     3     4    1
    19     4     5    1
    20     5     6    1
    21     6     7   ar
    22     7     8   ar
    23     8     9   ar
    24     9    10   ar
    25    10    11   ar
    26    28    20    1
    27    11     2    1
    28    27    22    1
    29    11     6   ar
    30    15    17    1
    31    15    18    1
