@<TRIPOS>MOLECULE
*****
 30 33 0 0 0
SMALL
GASTEIGER

@<TRIPOS>ATOM
      1 N          -7.9688  -19.6105   21.4371 N.3     1  UNL1       -0.2679
      2 C          -8.6279  -19.2138   22.7248 C.3     1  UNL1        0.0978
      3 C          -9.4872  -20.1978   23.4618 C.3     1  UNL1        0.0224
      4 C         -10.1464  -19.8010   24.7495 C.3     1  UNL1        0.0065
      5 C          -9.9462  -18.4203   25.3002 C.3     1  UNL1        0.0277
      6 C          -9.0869  -17.4362   24.5632 C.ar    1  UNL1       -0.0073
      7 C          -8.8866  -16.0554   25.1139 C.ar    1  UNL1       -0.0015
      8 C          -8.0273  -15.0713   24.3769 C.ar    1  UNL1        0.0203
      9 C          -7.3682  -15.4681   23.0892 C.ar    1  UNL1        0.0985
     10 N          -7.5684  -16.8488   22.5385 N.ar    1  UNL1       -0.2471
     11 C          -8.4277  -17.8330   23.2755 C.ar    1  UNL1        0.0695
     12 C          -8.6424  -19.3193   20.1289 C.3     1  UNL1        0.0725
     13 C         -10.1381  -19.3710   20.0276 C.3     1  UNL1        0.0187
     14 C         -10.9154  -18.1167   19.7584 C.3     1  UNL1        0.0183
     15 N         -10.1906  -15.8636   20.8300 N.3     1  UNL1       -0.3211
     16 C         -11.0656  -17.0821   20.8340 C.3     1  UNL1        0.0652
     17 H         -10.4273  -15.2725   21.6269 H       1  UNL1        0.1189
     18 H         -10.3367  -15.3429   19.9652 H       1  UNL1        0.1189
     19 C          -6.6361  -20.2985   21.4576 C.3     1  UNL1        0.0886
     20 C          -5.3737  -19.4881   21.4640 C.3     1  UNL1        0.0765
     21 C          -4.4960  -19.4575   20.2481 C.3     1  UNL1        0.0642
     22 C          -3.2336  -18.6472   20.2544 C.ar    1  UNL1        0.0753
     23 N          -2.3559  -18.6166   19.0385 N.ar    1  UNL1       -0.2452
     24 C          -1.0937  -17.8063   19.0449 C.ar    1  UNL1        0.1191
     25 C          -0.7091  -17.0266   20.2673 C.ar    1  UNL1        0.1191
     26 N          -1.5869  -17.0573   21.4833 N.ar    1  UNL1       -0.2440
     27 C          -2.8491  -17.8675   21.4768 C.ar    1  UNL1        0.0885
     28 C          -3.7269  -17.8982   22.6928 C.3     1  UNL1        0.1164
     29 N          -4.9892  -18.7085   22.6864 N.3     1  UNL1       -0.2921
     30 H          -5.7550  -18.0621   22.8763 H       1  UNL1        0.1236
@<TRIPOS>BOND
     1    15    16    1
     2    16    14    1
     3    14    13    1
     4    13    12    1
     5    12     1    1
     6     1    19    1
     7    20    19    1
     8    20    21    1
     9    21    22    1
    10    22    23   ar
    11    23    24   ar
    12    24    25   ar
    13    25    26   ar
    14    26    27   ar
    15    27    28    1
    16    28    29    1
    17     2     1    1
    18     2     3    1
    19     3     4    1
    20     4     5    1
    21     5     6    1
    22     6     7   ar
    23     7     8   ar
    24     8     9   ar
    25     9    10   ar
    26    10    11   ar
    27    29    20    1
    28    11     2    1
    29    27    22   ar
    30    11     6   ar
    31    15    17    1
    32    15    18    1
    33    29    30    1
@<TRIPOS>MOLECULE
*****
 30 33 0 0 0
SMALL
GASTEIGER

@<TRIPOS>ATOM
      1 N          -7.8668  -18.1243   22.7237 N.3     1  UNL1       -0.2679
      2 C          -9.3155  -18.2665   23.0859 C.3     1  UNL1        0.0978
      3 C          -9.7092  -19.0218   24.3206 C.3     1  UNL1        0.0224
      4 C         -11.1579  -19.1639   24.6828 C.3     1  UNL1        0.0065
      5 C         -12.2128  -18.5508   23.8104 C.3     1  UNL1        0.0277
      6 C         -11.8190  -17.7955   22.5757 C.ar    1  UNL1       -0.0073
      7 C         -12.8740  -17.1823   21.7032 C.ar    1  UNL1       -0.0015
      8 C         -12.4802  -16.4270   20.4686 C.ar    1  UNL1        0.0203
      9 C         -11.0316  -16.2849   20.1063 C.ar    1  UNL1        0.0985
     10 N          -9.9767  -16.8980   20.9788 N.ar    1  UNL1       -0.2471
     11 C         -10.3704  -17.6533   22.2135 C.ar    1  UNL1        0.0695
     12 C          -7.1109  -16.8924   23.1248 C.3     1  UNL1        0.0725
     13 C          -7.8434  -15.7176   23.7021 C.3     1  UNL1        0.0187
     14 C          -8.0030  -15.5898   25.1881 C.3     1  UNL1        0.0183
     15 N          -5.6639  -14.5990   25.7334 N.3     1  UNL1       -0.3211
     16 C          -6.7912  -15.5296   26.0701 C.3     1  UNL1        0.0652
     17 H          -4.9285  -14.6880   26.4346 H       1  UNL1        0.1189
     18 H          -6.0078  -13.6388   25.7213 H       1  UNL1        0.1189
     19 C          -7.1742  -19.2140   21.9604 C.3     1  UNL1        0.0886
     20 C          -5.7000  -19.1252   21.6974 C.3     1  UNL1        0.0765
     21 C          -5.2020  -18.5436   20.4076 C.3     1  UNL1        0.0642
     22 C          -3.7278  -18.4548   20.1447 C.ar    1  UNL1        0.0753
     23 N          -3.2298  -17.8732   18.8549 N.ar    1  UNL1       -0.2452
     24 C          -1.7557  -17.7844   18.5919 C.ar    1  UNL1        0.1191
     25 C          -0.7797  -18.2772   19.6188 C.ar    1  UNL1        0.1191
     26 N          -1.2777  -18.8588   20.9086 N.ar    1  UNL1       -0.2440
     27 C          -2.7518  -18.9476   21.1715 C.ar    1  UNL1        0.0885
     28 C          -3.2499  -19.5292   22.4614 C.3     1  UNL1        0.1164
     29 N          -4.7240  -19.6180   22.7243 N.3     1  UNL1       -0.2921
     30 H          -4.9031  -19.0897   23.5783 H       1  UNL1        0.1236
@<TRIPOS>BOND
     1    15    16    1
     2    16    14    1
     3    14    13    1
     4    13    12    1
     5    12     1    1
     6     1    19    1
     7    20    19    1
     8    20    21    1
     9    21    22    1
    10    22    23   ar
    11    23    24   ar
    12    24    25   ar
    13    25    26   ar
    14    26    27   ar
    15    27    28    1
    16    28    29    1
    17     2     1    1
    18     2     3    1
    19     3     4    1
    20     4     5    1
    21     5     6    1
    22     6     7   ar
    23     7     8   ar
    24     8     9   ar
    25     9    10   ar
    26    10    11   ar
    27    29    20    1
    28    11     2    1
    29    27    22   ar
    30    11     6   ar
    31    15    17    1
    32    15    18    1
    33    29    30    1
@<TRIPOS>MOLECULE
*****
 30 33 0 0 0
SMALL
GASTEIGER

@<TRIPOS>ATOM
      1 N          -8.6327  -17.0248   24.3691 N.3     1  UNL1       -0.2679
      2 C          -9.4675  -18.0187   23.6173 C.3     1  UNL1        0.0978
      3 C          -9.5742  -19.4321   24.1080 C.3     1  UNL1        0.0224
      4 C         -10.4090  -20.4261   23.3561 C.3     1  UNL1        0.0065
      5 C         -11.1370  -20.0066   22.1136 C.3     1  UNL1        0.0277
      6 C         -11.0303  -18.5932   21.6229 C.ar    1  UNL1       -0.0073
      7 C         -11.7584  -18.1736   20.3803 C.ar    1  UNL1       -0.0015
      8 C         -11.6517  -16.7602   19.8896 C.ar    1  UNL1        0.0203
      9 C         -10.8169  -15.7663   20.6415 C.ar    1  UNL1        0.0985
     10 N         -10.0888  -16.1858   21.8840 N.ar    1  UNL1       -0.2471
     11 C         -10.1955  -17.5992   22.3748 C.ar    1  UNL1        0.0695
     12 C          -8.8784  -16.7919   25.8304 C.3     1  UNL1        0.0725
     13 C          -8.5536  -15.4617   26.4429 C.3     1  UNL1        0.0187
     14 C          -7.3361  -15.3106   27.3059 C.3     1  UNL1        0.0183
     15 N          -5.3422  -14.4697   25.8681 N.3     1  UNL1       -0.3211
     16 C          -5.9717  -15.5296   26.7228 C.3     1  UNL1        0.0652
     17 H          -4.4224  -14.7840   25.5590 H       1  UNL1        0.1189
     18 H          -5.2439  -13.6106   26.4091 H       1  UNL1        0.1189
     19 C          -7.5523  -16.2637   23.6597 C.3     1  UNL1        0.0886
     20 C          -6.3431  -16.9848   23.1419 C.3     1  UNL1        0.0765
     21 C          -6.5026  -18.1077   22.1604 C.3     1  UNL1        0.0642
     22 C          -5.2934  -18.8288   21.6427 C.ar    1  UNL1        0.0753
     23 N          -5.4529  -19.9518   20.6612 N.ar    1  UNL1       -0.2452
     24 C          -4.2437  -20.6728   20.1435 C.ar    1  UNL1        0.1191
     25 C          -2.8750  -20.2708   20.6073 C.ar    1  UNL1        0.1191
     26 N          -2.7155  -19.1478   21.5888 N.ar    1  UNL1       -0.2440
     27 C          -3.9247  -18.4268   22.1065 C.ar    1  UNL1        0.0885
     28 C          -3.7652  -17.3037   23.0881 C.3     1  UNL1        0.1164
     29 N          -4.9744  -16.5828   23.6058 N.3     1  UNL1       -0.2921
     30 H          -4.8578  -15.5993   23.3616 H       1  UNL1        0.1236
@<TRIPOS>BOND
     1    15    16    1
     2    16    14    1
     3    14    13    1
     4    13    12    1
     5    12     1    1
     6     1    19    1
     7    20    19    1
     8    20    21    1
     9    21    22    1
    10    22    23   ar
    11    23    24   ar
    12    24    25   ar
    13    25    26   ar
    14    26    27   ar
    15    27    28    1
    16    28    29    1
    17     2     1    1
    18     2     3    1
    19     3     4    1
    20     4     5    1
    21     5     6    1
    22     6     7   ar
    23     7     8   ar
    24     8     9   ar
    25     9    10   ar
    26    10    11   ar
    27    29    20    1
    28    11     2    1
    29    27    22   ar
    30    11     6   ar
    31    15    17    1
    32    15    18    1
    33    29    30    1
@<TRIPOS>MOLECULE
*****
 30 33 0 0 0
SMALL
GASTEIGER

@<TRIPOS>ATOM
      1 N          -5.6258  -16.5629   23.4720 N.3     1  UNL1       -0.2679
      2 C          -5.1730  -17.6879   22.5891 C.3     1  UNL1        0.0978
      3 C          -6.0554  -18.8838   22.3863 C.3     1  UNL1        0.0224
      4 C          -5.6026  -20.0088   21.5034 C.3     1  UNL1        0.0065
      5 C          -4.2676  -19.9378   20.8233 C.3     1  UNL1        0.0277
      6 C          -3.3853  -18.7419   21.0261 C.ar    1  UNL1       -0.0073
      7 C          -2.0501  -18.6709   20.3460 C.ar    1  UNL1       -0.0015
      8 C          -1.1678  -17.4749   20.5488 C.ar    1  UNL1        0.0203
      9 C          -1.6205  -16.3499   21.4317 C.ar    1  UNL1        0.0985
     10 N          -2.9556  -16.4209   22.1117 N.ar    1  UNL1       -0.2471
     11 C          -3.8380  -17.6169   21.9090 C.ar    1  UNL1        0.0695
     12 C          -5.0965  -16.4476   24.8707 C.3     1  UNL1        0.0725
     13 C          -5.4475  -15.2546   25.7095 C.3     1  UNL1        0.0187
     14 C          -6.3089  -15.4205   26.9262 C.3     1  UNL1        0.0183
     15 N          -8.5243  -16.6839   27.4223 N.3     1  UNL1       -0.3211
     16 C          -7.7971  -15.5394   26.7809 C.3     1  UNL1        0.0652
     17 H          -9.5216  -16.6077   27.2227 H       1  UNL1        0.1189
     18 H          -8.3765  -16.6581   28.4312 H       1  UNL1        0.1189
     19 C          -6.6078  -15.5532   22.9561 C.3     1  UNL1        0.0886
     20 C          -8.0446  -15.9368   22.7595 C.3     1  UNL1        0.0765
     21 C          -8.7096  -16.8732   23.7244 C.3     1  UNL1        0.0642
     22 C         -10.1464  -17.2567   23.5278 C.ar    1  UNL1        0.0753
     23 N         -10.8114  -18.1931   24.4926 N.ar    1  UNL1       -0.2452
     24 C         -12.2481  -18.5766   24.2960 C.ar    1  UNL1        0.1191
     25 C         -13.0198  -18.0238   23.1346 C.ar    1  UNL1        0.1191
     26 N         -12.3548  -17.0875   22.1698 N.ar    1  UNL1       -0.2440
     27 C         -10.9181  -16.7039   22.3664 C.ar    1  UNL1        0.0885
     28 C         -10.2530  -15.7675   21.4015 C.3     1  UNL1        0.1164
     29 N          -8.8162  -15.3840   21.5981 N.3     1  UNL1       -0.2921
     30 H          -8.7920  -14.3680   21.6853 H       1  UNL1        0.1236
@<TRIPOS>BOND
     1    15    16    1
     2    16    14    1
     3    14    13    1
     4    13    12    1
     5    12     1    1
     6     1    19    1
     7    20    19    1
     8    20    21    1
     9    21    22    1
    10    22    23   ar
    11    23    24   ar
    12    24    25   ar
    13    25    26   ar
    14    26    27   ar
    15    27    28    1
    16    28    29    1
    17     2     1    1
    18     2     3    1
    19     3     4    1
    20     4     5    1
    21     5     6    1
    22     6     7   ar
    23     7     8   ar
    24     8     9   ar
    25     9    10   ar
    26    10    11   ar
    27    29    20    1
    28    11     2    1
    29    27    22   ar
    30    11     6   ar
    31    15    17    1
    32    15    18    1
    33    29    30    1
@<TRIPOS>MOLECULE
*****
 30 33 0 0 0
SMALL
GASTEIGER

@<TRIPOS>ATOM
      1 N          -7.7685  -19.6525   21.6878 N.3     1  UNL1       -0.2679
      2 C          -8.5222  -19.1930   22.9005 C.3     1  UNL1        0.0978
      3 C          -9.4465  -20.1366   23.6113 C.3     1  UNL1        0.0224
      4 C         -10.2002  -19.6771   24.8240 C.3     1  UNL1        0.0065
      5 C         -10.0298  -18.2740   25.3260 C.3     1  UNL1        0.0277
      6 C          -9.1056  -17.3303   24.6152 C.ar    1  UNL1       -0.0073
      7 C          -8.9351  -15.9270   25.1172 C.ar    1  UNL1       -0.0015
      8 C          -8.0108  -14.9834   24.4064 C.ar    1  UNL1        0.0203
      9 C          -7.2571  -15.4429   23.1937 C.ar    1  UNL1        0.0985
     10 N          -7.4275  -16.8460   22.6917 N.ar    1  UNL1       -0.2471
     11 C          -8.3518  -17.7898   23.4025 C.ar    1  UNL1        0.0695
     12 C          -8.2814  -19.3243   20.3170 C.3     1  UNL1        0.0725
     13 C          -9.6195  -19.8375   19.8741 C.3     1  UNL1        0.0187
     14 C          -9.8929  -20.0583   18.4159 C.3     1  UNL1        0.0183
     15 N          -8.6315  -22.2862   17.9736 N.3     1  UNL1       -0.3211
     16 C          -8.9402  -20.8696   17.5887 C.3     1  UNL1        0.0652
     17 H          -7.9705  -22.6835   17.3060 H       1  UNL1        0.1189
     18 H          -9.4912  -22.8350   17.9685 H       1  UNL1        0.1189
     19 C          -6.5018  -20.4402   21.8459 C.3     1  UNL1        0.0886
     20 C          -5.2268  -19.9410   21.2333 C.3     1  UNL1        0.0765
     21 C          -4.5499  -18.7263   21.7955 C.3     1  UNL1        0.0642
     22 C          -3.2748  -18.2271   21.1829 C.ar    1  UNL1        0.0753
     23 N          -2.5979  -17.0124   21.7450 N.ar    1  UNL1       -0.2452
     24 C          -1.3229  -16.5133   21.1324 C.ar    1  UNL1        0.1191
     25 C          -0.7249  -17.2290   19.9577 C.ar    1  UNL1        0.1191
     26 N          -1.4018  -18.4438   19.3955 N.ar    1  UNL1       -0.2440
     27 C          -2.6767  -18.9428   20.0081 C.ar    1  UNL1        0.0885
     28 C          -3.3537  -20.1577   19.4459 C.3     1  UNL1        0.1164
     29 N          -4.6287  -20.6567   20.0585 N.3     1  UNL1       -0.2921
     30 H          -4.4565  -21.6173   20.3554 H       1  UNL1        0.1236
@<TRIPOS>BOND
     1    15    16    1
     2    16    14    1
     3    14    13    1
     4    13    12    1
     5    12     1    1
     6     1    19    1
     7    20    19    1
     8    20    21    1
     9    21    22    1
    10    22    23   ar
    11    23    24   ar
    12    24    25   ar
    13    25    26   ar
    14    26    27   ar
    15    27    28    1
    16    28    29    1
    17     2     1    1
    18     2     3    1
    19     3     4    1
    20     4     5    1
    21     5     6    1
    22     6     7   ar
    23     7     8   ar
    24     8     9   ar
    25     9    10   ar
    26    10    11   ar
    27    29    20    1
    28    11     2    1
    29    27    22   ar
    30    11     6   ar
    31    15    17    1
    32    15    18    1
    33    29    30    1
@<TRIPOS>MOLECULE
*****
 30 33 0 0 0
SMALL
GASTEIGER

@<TRIPOS>ATOM
      1 N          -7.9022  -19.2260   20.6493 N.3     1  UNL1       -0.2679
      2 C          -8.2231  -18.2448   21.7375 C.3     1  UNL1        0.0978
      3 C          -7.8609  -16.7984   21.5739 C.3     1  UNL1        0.0224
      4 C          -8.1818  -15.8172   22.6622 C.3     1  UNL1        0.0065
      5 C          -8.8649  -16.2823   23.9140 C.3     1  UNL1        0.0277
      6 C          -9.2270  -17.7287   24.0775 C.ar    1  UNL1       -0.0073
      7 C          -9.9101  -18.1940   25.3293 C.ar    1  UNL1       -0.0015
      8 C         -10.2723  -19.6403   25.4929 C.ar    1  UNL1        0.0203
      9 C          -9.9514  -20.6215   24.4047 C.ar    1  UNL1        0.0985
     10 N          -9.2683  -20.1564   23.1529 N.ar    1  UNL1       -0.2471
     11 C          -8.9061  -18.7099   22.9893 C.ar    1  UNL1        0.0695
     12 C          -8.8179  -19.3632   19.4692 C.3     1  UNL1        0.0725
     13 C         -10.3038  -19.3926   19.6724 C.3     1  UNL1        0.0187
     14 C         -11.0864  -18.1130   19.6714 C.3     1  UNL1        0.0183
     15 N         -11.6506  -16.4654   21.5994 N.3     1  UNL1       -0.3211
     16 C         -11.9208  -17.7433   20.8618 C.3     1  UNL1        0.0652
     17 H         -12.3071  -16.3750   22.3748 H       1  UNL1        0.1189
     18 H         -11.7642  -15.6756   20.9640 H       1  UNL1        0.1189
     19 C          -6.6655  -20.0699   20.7411 C.3     1  UNL1        0.0886
     20 C          -5.3248  -19.4197   20.9139 C.3     1  UNL1        0.0765
     21 C          -4.4024  -19.2794   19.7395 C.3     1  UNL1        0.0642
     22 C          -3.0617  -18.6292   19.9123 C.ar    1  UNL1        0.0753
     23 N          -2.1392  -18.4889   18.7379 N.ar    1  UNL1       -0.2452
     24 C          -0.7986  -17.8387   18.9107 C.ar    1  UNL1        0.1191
     25 C          -0.3804  -17.3288   20.2580 C.ar    1  UNL1        0.1191
     26 N          -1.3029  -17.4690   21.4324 N.ar    1  UNL1       -0.2440
     27 C          -2.6435  -18.1192   21.2596 C.ar    1  UNL1        0.0885
     28 C          -3.5661  -18.2595   22.4340 C.3     1  UNL1        0.1164
     29 N          -4.9067  -18.9097   22.2612 N.3     1  UNL1       -0.2921
     30 H          -5.6056  -18.2237   22.5462 H       1  UNL1        0.1236
@<TRIPOS>BOND
     1    15    16    1
     2    16    14    1
     3    14    13    1
     4    13    12    1
     5    12     1    1
     6     1    19    1
     7    20    19    1
     8    20    21    1
     9    21    22    1
    10    22    23   ar
    11    23    24   ar
    12    24    25   ar
    13    25    26   ar
    14    26    27   ar
    15    27    28    1
    16    28    29    1
    17     2     1    1
    18     2     3    1
    19     3     4    1
    20     4     5    1
    21     5     6    1
    22     6     7   ar
    23     7     8   ar
    24     8     9   ar
    25     9    10   ar
    26    10    11   ar
    27    29    20    1
    28    11     2    1
    29    27    22   ar
    30    11     6   ar
    31    15    17    1
    32    15    18    1
    33    29    30    1
@<TRIPOS>MOLECULE
*****
 30 33 0 0 0
SMALL
GASTEIGER

@<TRIPOS>ATOM
      1 N          -7.8959  -19.7183   21.4378 N.3     1  UNL1       -0.2679
      2 C          -8.9797  -19.4938   22.4503 C.3     1  UNL1        0.0978
      3 C          -9.1116  -20.4171   23.6250 C.3     1  UNL1        0.0224
      4 C         -10.1953  -20.1926   24.6375 C.3     1  UNL1        0.0065
      5 C         -11.1472  -19.0447   24.4752 C.3     1  UNL1        0.0277
      6 C         -11.0153  -18.1214   23.3004 C.ar    1  UNL1       -0.0073
      7 C         -11.9672  -16.9735   23.1381 C.ar    1  UNL1       -0.0015
      8 C         -11.8353  -16.0502   21.9634 C.ar    1  UNL1        0.0203
      9 C         -10.7515  -16.2747   20.9509 C.ar    1  UNL1        0.0985
     10 N          -9.7997  -17.4225   21.1132 N.ar    1  UNL1       -0.2471
     11 C          -9.9315  -18.3459   22.2880 C.ar    1  UNL1        0.0695
     12 C          -8.1530  -19.4321   19.9880 C.3     1  UNL1        0.0725
     13 C          -7.5413  -20.3038   18.9316 C.3     1  UNL1        0.0187
     14 C          -7.9301  -21.7493   18.8342 C.3     1  UNL1        0.0183
     15 N          -9.1646  -21.2732   16.5982 N.3     1  UNL1       -0.3211
     16 C          -8.7989  -22.2177   17.7047 C.3     1  UNL1        0.0652
     17 H          -9.7553  -21.7556   15.9209 H       1  UNL1        0.1189
     18 H          -8.3161  -20.9453   16.1368 H       1  UNL1        0.1189
     19 C          -6.5551  -20.2289   21.8752 C.3     1  UNL1        0.0886
     20 C          -5.3455  -19.3483   21.7675 C.3     1  UNL1        0.0765
     21 C          -4.3945  -19.5174   20.6199 C.3     1  UNL1        0.0642
     22 C          -3.1849  -18.6368   20.5121 C.ar    1  UNL1        0.0753
     23 N          -2.2339  -18.8060   19.3646 N.ar    1  UNL1       -0.2452
     24 C          -1.0244  -17.9254   19.2569 C.ar    1  UNL1        0.1191
     25 C          -0.7659  -16.8757   20.2967 C.ar    1  UNL1        0.1191
     26 N          -1.7169  -16.7065   21.4443 N.ar    1  UNL1       -0.2440
     27 C          -2.9264  -17.5871   21.5520 C.ar    1  UNL1        0.0885
     28 C          -3.8775  -17.4180   22.6996 C.3     1  UNL1        0.1164
     29 N          -5.0870  -18.2986   22.8073 N.3     1  UNL1       -0.2921
     30 H          -5.9001  -17.6827   22.8125 H       1  UNL1        0.1236
@<TRIPOS>BOND
     1    15    16    1
     2    16    14    1
     3    14    13    1
     4    13    12    1
     5    12     1    1
     6     1    19    1
     7    20    19    1
     8    20    21    1
     9    21    22    1
    10    22    23   ar
    11    23    24   ar
    12    24    25   ar
    13    25    26   ar
    14    26    27   ar
    15    27    28    1
    16    28    29    1
    17     2     1    1
    18     2     3    1
    19     3     4    1
    20     4     5    1
    21     5     6    1
    22     6     7   ar
    23     7     8   ar
    24     8     9   ar
    25     9    10   ar
    26    10    11   ar
    27    29    20    1
    28    11     2    1
    29    27    22   ar
    30    11     6   ar
    31    15    17    1
    32    15    18    1
    33    29    30    1
