@<TRIPOS>MOLECULE
*****
 29 31 0 0 0
SMALL
GASTEIGER

@<TRIPOS>ATOM
      1 C          -6.8908  -15.8877   24.3820 C.ar    1  UNL1        0.0363
      2 C          -8.0662  -16.1943   25.2622 C.ar    1  UNL1        0.0060
      3 C          -9.4313  -16.3544   24.6615 C.ar    1  UNL1        0.0370
      4 C          -9.6211  -16.2080   23.1807 C.ar    1  UNL1        0.1386
      5 C          -8.4457  -15.9014   22.3007 C.ar    1  UNL1        0.0370
      6 C          -7.0806  -15.7413   22.9013 C.ar    1  UNL1        0.0060
      7 C          -5.5257  -15.7275   24.9827 C.2     1  UNL1        0.1892
      8 O          -5.1470  -14.4394   25.6516 O.2     1  UNL1       -0.2899
      9 C          -4.5392  -16.8554   24.9144 C.3     1  UNL1        0.1424
     10 C          -2.5748  -18.8049   19.5908 C.2     1  UNL1        0.4051
     11 O          -3.2268  -19.9876   18.9381 O.2     1  UNL1       -0.2262
     12 N          -3.0659  -18.3175   20.9217 N.am    1  UNL1       -0.2432
     13 C          -2.4139  -17.1349   21.5745 C.3     1  UNL1        0.1141
     14 C          -2.9050  -16.6475   22.9054 C.3     1  UNL1        0.0943
     15 N          -4.0481  -17.3428   23.5835 N.3     1  UNL1       -0.2632
     16 C          -4.7001  -18.5255   22.9307 C.3     1  UNL1        0.0943
     17 C          -4.2090  -19.0128   21.5998 C.3     1  UNL1        0.1141
     18 C          -0.0780  -18.0876   19.5583 C.3     1  UNL1        0.2573
     19 O          -1.4317  -18.1096   18.9127 O.3     1  UNL1       -0.4304
     20 O         -10.9862  -16.3681   22.5801 O.3     1  UNL1       -0.4754
     21 C         -11.1451  -16.4527   21.0909 C.3     1  UNL1        0.2068
     22 C         -11.7855  -17.6599   20.4723 C.3     1  UNL1        0.0646
     23 C         -11.0384  -18.9593   20.4161 C.3     1  UNL1        0.0759
     24 N         -10.1704  -19.3758   21.5664 N.3     1  UNL1       -0.2738
     25 C         -10.6494  -19.8240   22.9153 C.3     1  UNL1        0.0721
     26 C          -9.4461  -20.1424   23.7524 C.3     1  UNL1        0.0187
     27 C          -8.2233  -19.8909   22.9207 C.3     1  UNL1        0.0174
     28 C          -8.6710  -19.4171   21.5698 C.3     1  UNL1        0.0576
     29 C          -7.7762  -19.0493   20.4234 C.3     1  UNL1        0.0173
@<TRIPOS>BOND
     1    18    19    1
     2    19    10    1
     3    10    11    2
     4    10    12   am
     5    12    13    1
     6    13    14    1
     7    14    15    1
     8    15     9    1
     9     9     7    1
    10     7     8    2
    11     7     1    1
    12     1     2   ar
    13     2     3   ar
    14     3     4   ar
    15     4    20    1
    16    20    21    1
    17    21    22    1
    18    22    23    1
    19    23    24    1
    20    24    25    1
    21    25    26    1
    22    26    27    1
    23    27    28    1
    24    28    29    1
    25     4     5   ar
    26     5     6   ar
    27    15    16    1
    28    16    17    1
    29    17    12    1
    30     6     1   ar
    31    28    24    1
@<TRIPOS>MOLECULE
*****
 29 31 0 0 0
SMALL
GASTEIGER

@<TRIPOS>ATOM
      1 C          -9.9951  -18.5526   20.7029 C.ar    1  UNL1        0.0363
      2 C          -8.9771  -18.9180   21.7423 C.ar    1  UNL1        0.0060
      3 C          -7.8086  -19.7842   21.3757 C.ar    1  UNL1        0.0370
      4 C          -7.6581  -20.2850   19.9698 C.ar    1  UNL1        0.1386
      5 C          -8.6761  -19.9197   18.9305 C.ar    1  UNL1        0.0370
      6 C          -9.8446  -19.0535   19.2970 C.ar    1  UNL1        0.0060
      7 C         -11.1636  -17.6865   21.0694 C.2     1  UNL1        0.1892
      8 O         -12.5624  -18.1821   20.8506 O.2     1  UNL1       -0.2899
      9 C         -10.9333  -16.3247   21.6547 C.3     1  UNL1        0.1424
     10 C          -6.3219  -15.4013   25.3806 C.2     1  UNL1        0.4051
     11 O          -5.0690  -14.7489   24.8760 O.2     1  UNL1       -0.2262
     12 N          -7.4748  -15.6322   24.4491 N.am    1  UNL1       -0.2432
     13 C          -8.7276  -16.2846   24.9537 C.3     1  UNL1        0.1141
     14 C          -9.8805  -16.5154   24.0222 C.3     1  UNL1        0.0943
     15 N          -9.7805  -16.0939   22.5862 N.3     1  UNL1       -0.2632
     16 C          -8.5276  -15.4415   22.0816 C.3     1  UNL1        0.0943
     17 C          -7.3747  -15.2106   23.0131 C.3     1  UNL1        0.1141
     18 C          -6.8936  -14.8471   27.8536 C.3     1  UNL1        0.2573
     19 O          -6.4219  -15.8229   26.8166 O.3     1  UNL1       -0.4304
     20 O          -6.4896  -21.1512   19.6032 O.3     1  UNL1       -0.4754
     21 C          -5.2303  -21.0952   20.4163 C.3     1  UNL1        0.2068
     22 C          -4.1008  -20.2053   19.9893 C.3     1  UNL1        0.0646
     23 C          -2.9623  -19.9358   20.9279 C.3     1  UNL1        0.0759
     24 N          -2.4097  -18.5473   21.0574 N.3     1  UNL1       -0.2738
     25 C          -1.3093  -17.9553   20.2275 C.3     1  UNL1        0.0721
     26 C          -1.0799  -16.5492   20.6967 C.3     1  UNL1        0.0187
     27 C          -2.0385  -16.2721   21.8167 C.3     1  UNL1        0.0174
     28 C          -2.8603  -17.5070   22.0396 C.3     1  UNL1        0.0576
     29 C          -3.9428  -17.6725   23.0647 C.3     1  UNL1        0.0173
@<TRIPOS>BOND
     1    18    19    1
     2    19    10    1
     3    10    11    2
     4    10    12   am
     5    12    13    1
     6    13    14    1
     7    14    15    1
     8    15     9    1
     9     9     7    1
    10     7     8    2
    11     7     1    1
    12     1     2   ar
    13     2     3   ar
    14     3     4   ar
    15     4    20    1
    16    20    21    1
    17    21    22    1
    18    22    23    1
    19    23    24    1
    20    24    25    1
    21    25    26    1
    22    26    27    1
    23    27    28    1
    24    28    29    1
    25     4     5   ar
    26     5     6   ar
    27    15    16    1
    28    16    17    1
    29    17    12    1
    30     6     1   ar
    31    28    24    1
@<TRIPOS>MOLECULE
*****
 29 31 0 0 0
SMALL
GASTEIGER

@<TRIPOS>ATOM
      1 C          -8.6527  -19.3863   21.0106 C.ar    1  UNL1        0.0363
      2 C          -7.8990  -19.2126   19.7253 C.ar    1  UNL1        0.0060
      3 C          -6.4567  -19.6158   19.6413 C.ar    1  UNL1        0.0370
      4 C          -5.7680  -20.1926   20.8426 C.ar    1  UNL1        0.1386
      5 C          -6.5216  -20.3663   22.1278 C.ar    1  UNL1        0.0370
      6 C          -7.9640  -19.9632   22.2118 C.ar    1  UNL1        0.0060
      7 C         -10.0950  -18.9832   21.0946 C.2     1  UNL1        0.1892
      8 O         -11.1533  -19.8510   20.4806 O.2     1  UNL1       -0.2899
      9 C         -10.4791  -17.7123   21.7926 C.3     1  UNL1        0.1424
     10 C          -6.7836  -15.2808   25.8461 C.2     1  UNL1        0.4051
     11 O          -5.6041  -14.4712   25.3953 O.2     1  UNL1       -0.2262
     12 N          -7.7075  -15.8887   24.8327 N.am    1  UNL1       -0.2432
     13 C          -8.8869  -16.6983   25.2835 C.3     1  UNL1        0.1141
     14 C          -9.8108  -17.3062   24.2702 C.3     1  UNL1        0.0943
     15 N          -9.5552  -17.1044   22.8060 N.3     1  UNL1       -0.2632
     16 C          -8.3758  -16.2948   22.3551 C.3     1  UNL1        0.0943
     17 C          -7.4519  -15.6869   23.3685 C.3     1  UNL1        0.1141
     18 C          -8.1989  -14.7977   27.9706 C.3     1  UNL1        0.2573
     19 O          -7.0392  -15.4826   27.3103 O.3     1  UNL1       -0.4304
     20 O          -4.3256  -20.5958   20.7586 O.3     1  UNL1       -0.4754
     21 C          -3.3460  -20.0942   21.7779 C.3     1  UNL1        0.2068
     22 C          -3.6001  -18.7973   22.4875 C.3     1  UNL1        0.0646
     23 C          -2.9572  -17.5346   21.9953 C.3     1  UNL1        0.0759
     24 N          -1.9040  -17.5956   20.9289 N.3     1  UNL1       -0.2738
     25 C          -0.4209  -17.5676   21.1517 C.3     1  UNL1        0.0721
     26 C           0.2506  -17.6500   19.8130 C.3     1  UNL1        0.0187
     27 C          -0.8174  -17.7287   18.7627 C.3     1  UNL1        0.0174
     28 C          -2.1490  -17.6951   19.4524 C.3     1  UNL1        0.0576
     29 C          -3.4902  -17.7512   18.7830 C.3     1  UNL1        0.0173
@<TRIPOS>BOND
     1    18    19    1
     2    19    10    1
     3    10    11    2
     4    10    12   am
     5    12    13    1
     6    13    14    1
     7    14    15    1
     8    15     9    1
     9     9     7    1
    10     7     8    2
    11     7     1    1
    12     1     2   ar
    13     2     3   ar
    14     3     4   ar
    15     4    20    1
    16    20    21    1
    17    21    22    1
    18    22    23    1
    19    23    24    1
    20    24    25    1
    21    25    26    1
    22    26    27    1
    23    27    28    1
    24    28    29    1
    25     4     5   ar
    26     5     6   ar
    27    15    16    1
    28    16    17    1
    29    17    12    1
    30     6     1   ar
    31    28    24    1
@<TRIPOS>MOLECULE
*****
 29 31 0 0 0
SMALL
GASTEIGER

@<TRIPOS>ATOM
      1 C          -7.6327  -19.4951   20.4376 C.ar    1  UNL1        0.0363
      2 C          -6.5905  -19.2496   19.3871 C.ar    1  UNL1        0.0060
      3 C          -5.1376  -19.4237   19.7169 C.ar    1  UNL1        0.0370
      4 C          -4.7269  -19.8432   21.0973 C.ar    1  UNL1        0.1386
      5 C          -5.7691  -20.0886   22.1478 C.ar    1  UNL1        0.0370
      6 C          -7.2220  -19.9145   21.8180 C.ar    1  UNL1        0.0060
      7 C          -9.0856  -19.3210   20.1078 C.2     1  UNL1        0.1892
      8 O          -9.7514  -20.2520   19.1382 O.2     1  UNL1       -0.2899
      9 C          -9.8728  -18.2160   20.7476 C.3     1  UNL1        0.1424
     10 C          -8.4208  -16.2900   26.2414 C.2     1  UNL1        0.4051
     11 O          -8.9203  -17.0247   27.4501 O.2     1  UNL1       -0.2262
     12 N          -8.7838  -16.7715   24.8680 N.am    1  UNL1       -0.2432
     13 C          -8.2844  -16.0369   23.6594 C.3     1  UNL1        0.1141
     14 C          -8.6474  -16.5184   22.2859 C.3     1  UNL1        0.0943
     15 N          -9.5098  -17.7345   22.1211 N.3     1  UNL1       -0.2632
     16 C         -10.0092  -18.4691   23.3297 C.3     1  UNL1        0.0943
     17 C          -9.6463  -17.9876   24.7031 C.3     1  UNL1        0.1141
     18 C          -6.1274  -15.2213   26.8314 C.3     1  UNL1        0.2573
     19 O          -7.5584  -15.0739   26.4063 O.3     1  UNL1       -0.4304
     20 O          -3.2740  -20.0173   21.4271 O.3     1  UNL1       -0.4754
     21 C          -2.5931  -19.0496   22.3492 C.3     1  UNL1        0.2068
     22 C          -2.9615  -17.5960   22.3157 C.3     1  UNL1        0.0646
     23 C          -2.2262  -16.6566   21.4064 C.3     1  UNL1        0.0759
     24 N          -2.0472  -17.0016   19.9576 N.3     1  UNL1       -0.2738
     25 C          -3.0140  -16.6955   18.8524 C.3     1  UNL1        0.0721
     26 C          -2.4343  -17.2180   17.5714 C.3     1  UNL1        0.0187
     27 C          -1.1092  -17.8470   17.8849 C.3     1  UNL1        0.0174
     28 C          -0.8699  -17.7133   19.3596 C.3     1  UNL1        0.0576
     29 C           0.3351  -18.2049   20.1055 C.3     1  UNL1        0.0173
@<TRIPOS>BOND
     1    18    19    1
     2    19    10    1
     3    10    11    2
     4    10    12   am
     5    12    13    1
     6    13    14    1
     7    14    15    1
     8    15     9    1
     9     9     7    1
    10     7     8    2
    11     7     1    1
    12     1     2   ar
    13     2     3   ar
    14     3     4   ar
    15     4    20    1
    16    20    21    1
    17    21    22    1
    18    22    23    1
    19    23    24    1
    20    24    25    1
    21    25    26    1
    22    26    27    1
    23    27    28    1
    24    28    29    1
    25     4     5   ar
    26     5     6   ar
    27    15    16    1
    28    16    17    1
    29    17    12    1
    30     6     1   ar
    31    28    24    1
@<TRIPOS>MOLECULE
*****
 29 31 0 0 0
SMALL
GASTEIGER

@<TRIPOS>ATOM
      1 C           2.0499   -0.1058   21.7858 C.ar    1  UNL1        0.0363
      2 C           3.1557   -0.7670   22.5541 C.ar    1  UNL1        0.0060
      3 C           3.9562   -1.8660   21.9205 C.ar    1  UNL1        0.0370
      4 C           3.6509   -2.3038   20.5186 C.ar    1  UNL1        0.1386
      5 C           2.5452   -1.6426   19.7503 C.ar    1  UNL1        0.0370
      6 C           1.7447   -0.5436   20.3840 C.ar    1  UNL1        0.0060
      7 C           1.2494    0.9931   22.4194 C.2     1  UNL1        0.1892
      8 O          -0.1211    1.3166   21.9023 O.2     1  UNL1       -0.2899
      9 C           1.8192    1.7685   23.5700 C.3     1  UNL1        0.1424
     10 C           0.4466    0.2227   29.2026 C.2     1  UNL1        0.4051
     11 O          -0.9712    0.3194   29.6825 O.2     1  UNL1       -0.2262
     12 N           0.7898    0.6092   27.7944 N.am    1  UNL1       -0.2432
     13 C           2.2076    0.5125   27.3145 C.3     1  UNL1        0.1141
     14 C           2.5507    0.8989   25.9063 C.3     1  UNL1        0.0943
     15 N           1.4761    1.3821   24.9781 N.3     1  UNL1       -0.2632
     16 C           0.0583    1.4788   25.4581 C.3     1  UNL1        0.0943
     17 C          -0.2849    1.0923   26.8662 C.3     1  UNL1        0.1141
     18 C           2.2053    0.7046   31.0532 C.3     1  UNL1        0.2573
     19 O           1.5213   -0.2604   30.1308 O.3     1  UNL1       -0.4304
     20 O           4.4514   -3.4027   19.8849 O.3     1  UNL1       -0.4754
     21 C           5.1092   -3.1806   18.5552 C.3     1  UNL1        0.2068
     22 C           6.4498   -2.5116   18.4841 C.3     1  UNL1        0.0646
     23 C           6.5682   -1.1275   17.9183 C.3     1  UNL1        0.0759
     24 N           5.7088   -0.0216   18.4553 N.3     1  UNL1       -0.2738
     25 C           4.5840    0.6534   17.7280 C.3     1  UNL1        0.0721
     26 C           4.0033    1.6956   18.6372 C.3     1  UNL1        0.0187
     27 C           4.7693    1.6647   19.9265 C.3     1  UNL1        0.0174
     28 C           5.8233    0.6034   19.8141 C.3     1  UNL1        0.0576
     29 C           6.8173    0.2323   20.8744 C.3     1  UNL1        0.0173
@<TRIPOS>BOND
     1    18    19    1
     2    19    10    1
     3    10    11    2
     4    10    12   am
     5    12    13    1
     6    13    14    1
     7    14    15    1
     8    15     9    1
     9     9     7    1
    10     7     8    2
    11     7     1    1
    12     1     2   ar
    13     2     3   ar
    14     3     4   ar
    15     4    20    1
    16    20    21    1
    17    21    22    1
    18    22    23    1
    19    23    24    1
    20    24    25    1
    21    25    26    1
    22    26    27    1
    23    27    28    1
    24    28    29    1
    25     4     5   ar
    26     5     6   ar
    27    15    16    1
    28    16    17    1
    29    17    12    1
    30     6     1   ar
    31    28    24    1
@<TRIPOS>MOLECULE
*****
 29 31 0 0 0
SMALL
GASTEIGER

@<TRIPOS>ATOM
      1 C           1.8245    1.2587   19.1689 C.ar    1  UNL1        0.0363
      2 C           1.9588    0.0799   18.2509 C.ar    1  UNL1        0.0060
      3 C           3.2508   -0.1653   17.5293 C.ar    1  UNL1        0.0370
      4 C           4.4084    0.7682   17.7257 C.ar    1  UNL1        0.1386
      5 C           4.2741    1.9468   18.6436 C.ar    1  UNL1        0.0370
      6 C           2.9821    2.1921   19.3652 C.ar    1  UNL1        0.0060
      7 C           0.5326    1.5039   19.8904 C.2     1  UNL1        0.1892
      8 O          -0.2015    0.3595   20.5241 O.2     1  UNL1       -0.2899
      9 C          -0.0253    2.8935   19.9784 C.3     1  UNL1        0.1424
     10 C          -4.9965    3.9340   23.1728 C.2     1  UNL1        0.4051
     11 O          -4.9048    4.1477   24.6546 O.2     1  UNL1       -0.2262
     12 N          -3.7537    3.6739   22.3742 N.am    1  UNL1       -0.2432
     13 C          -3.8455    3.4602   20.8924 C.3     1  UNL1        0.1141
     14 C          -2.6027    3.2000   20.0938 C.3     1  UNL1        0.0943
     15 N          -1.2681    3.1536   20.7770 N.3     1  UNL1       -0.2632
     16 C          -1.1764    3.3674   22.2588 C.3     1  UNL1        0.0943
     17 C          -2.4192    3.6275   23.0574 C.3     1  UNL1        0.1141
     18 C          -7.5591    4.3516   23.2669 C.3     1  UNL1        0.2573
     19 O          -6.3311    3.9804   22.4896 O.3     1  UNL1       -0.4304
     20 O           5.7004    0.5229   17.0041 O.3     1  UNL1       -0.4754
     21 C           6.8001   -0.2456   17.6752 C.3     1  UNL1        0.2068
     22 C           6.5940   -1.6858   18.0400 C.3     1  UNL1        0.0646
     23 C           6.4969   -2.0878   19.4819 C.3     1  UNL1        0.0759
     24 N           5.3143   -1.6630   20.3010 N.3     1  UNL1       -0.2738
     25 C           5.2743   -0.5105   21.2603 C.3     1  UNL1        0.0721
     26 C           3.8993   -0.4513   21.8568 C.3     1  UNL1        0.0187
     27 C           3.0894   -1.5671   21.2660 C.3     1  UNL1        0.0174
     28 C           3.9639   -2.3159   20.3045 C.3     1  UNL1        0.0576
     29 C           3.5590   -3.5084   19.4896 C.3     1  UNL1        0.0173
@<TRIPOS>BOND
     1    18    19    1
     2    19    10    1
     3    10    11    2
     4    10    12   am
     5    12    13    1
     6    13    14    1
     7    14    15    1
     8    15     9    1
     9     9     7    1
    10     7     8    2
    11     7     1    1
    12     1     2   ar
    13     2     3   ar
    14     3     4   ar
    15     4    20    1
    16    20    21    1
    17    21    22    1
    18    22    23    1
    19    23    24    1
    20    24    25    1
    21    25    26    1
    22    26    27    1
    23    27    28    1
    24    28    29    1
    25     4     5   ar
    26     5     6   ar
    27    15    16    1
    28    16    17    1
    29    17    12    1
    30     6     1   ar
    31    28    24    1
@<TRIPOS>MOLECULE
*****
 29 31 0 0 0
SMALL
GASTEIGER

@<TRIPOS>ATOM
      1 C           4.7782   -1.7297   18.3606 C.ar    1  UNL1        0.0363
      2 C           3.8725   -2.6180   19.1610 C.ar    1  UNL1        0.0060
      3 C           4.4507   -3.5611   20.1741 C.ar    1  UNL1        0.0370
      4 C           5.9346   -3.6158   20.3868 C.ar    1  UNL1        0.1386
      5 C           6.8402   -2.7275   19.5864 C.ar    1  UNL1        0.0370
      6 C           6.2620   -1.7845   18.5733 C.ar    1  UNL1        0.0060
      7 C           4.2000   -0.7867   17.3475 C.2     1  UNL1        0.1892
      8 O           3.6339   -1.3191   16.0645 O.2     1  UNL1       -0.2899
      9 C           4.1879    0.6888   17.6174 C.3     1  UNL1        0.1424
     10 C          -0.3804    3.1505   20.6291 C.2     1  UNL1        0.4051
     11 O          -1.6795    2.4117   20.7566 O.2     1  UNL1       -0.2262
     12 N           0.7617    2.5351   19.8761 N.am    1  UNL1       -0.2432
     13 C           2.0608    3.2739   19.7487 C.3     1  UNL1        0.1141
     14 C           3.2029    2.6585   18.9957 C.3     1  UNL1        0.0943
     15 N           3.0459    1.3042   18.3703 N.3     1  UNL1       -0.2632
     16 C           1.7467    0.5654   18.4978 C.3     1  UNL1        0.0943
     17 C           0.6047    1.1808   19.2507 C.3     1  UNL1        0.1141
     18 C           0.1877    4.6239   22.6922 C.3     1  UNL1        0.2573
     19 O          -0.2233    4.5048   21.2545 O.3     1  UNL1       -0.4304
     20 O           6.5127   -4.5589   21.3999 O.3     1  UNL1       -0.4754
     21 C           6.8599   -4.0641   22.7728 C.3     1  UNL1        0.2068
     22 C           5.7716   -3.7833   23.7662 C.3     1  UNL1        0.0646
     23 C           5.4716   -2.3704   24.1706 C.3     1  UNL1        0.0759
     24 N           4.8781   -1.4159   23.1773 N.3     1  UNL1       -0.2738
     25 C           3.4181   -1.2545   22.8733 C.3     1  UNL1        0.0721
     26 C           3.2781   -0.1940   21.8217 C.3     1  UNL1        0.0187
     27 C           4.6515    0.3000   21.4758 C.3     1  UNL1        0.0174
     28 C           5.6403   -0.4551   22.3136 C.3     1  UNL1        0.0576
     29 C           7.1299   -0.2802   22.2916 C.3     1  UNL1        0.0173
@<TRIPOS>BOND
     1    18    19    1
     2    19    10    1
     3    10    11    2
     4    10    12   am
     5    12    13    1
     6    13    14    1
     7    14    15    1
     8    15     9    1
     9     9     7    1
    10     7     8    2
    11     7     1    1
    12     1     2   ar
    13     2     3   ar
    14     3     4   ar
    15     4    20    1
    16    20    21    1
    17    21    22    1
    18    22    23    1
    19    23    24    1
    20    24    25    1
    21    25    26    1
    22    26    27    1
    23    27    28    1
    24    28    29    1
    25     4     5   ar
    26     5     6   ar
    27    15    16    1
    28    16    17    1
    29    17    12    1
    30     6     1   ar
    31    28    24    1
@<TRIPOS>MOLECULE
*****
 29 31 0 0 0
SMALL
GASTEIGER

@<TRIPOS>ATOM
      1 C           7.4035   -3.2767   20.0623 C.ar    1  UNL1        0.0363
      2 C           6.0052   -3.8123   19.9733 C.ar    1  UNL1        0.0060
      3 C           5.0586   -3.2703   18.9436 C.ar    1  UNL1        0.0370
      4 C           5.5104   -2.1927   18.0030 C.ar    1  UNL1        0.1386
      5 C           6.9087   -1.6571   18.0920 C.ar    1  UNL1        0.0370
      6 C           7.8552   -2.1991   19.1217 C.ar    1  UNL1        0.0060
      7 C           8.3501   -3.8186   21.0920 C.2     1  UNL1        0.1892
      8 O           9.3075   -2.8980   21.7891 O.2     1  UNL1       -0.2899
      9 C           8.3393   -5.2812   21.4247 C.3     1  UNL1        0.1424
     10 C           7.6385   -7.0592   27.1122 C.2     1  UNL1        0.4051
     11 O           8.1162   -8.4157   27.5382 O.2     1  UNL1       -0.2262
     12 N           7.8137   -6.6147   25.6903 N.am    1  UNL1       -0.2432
     13 C           7.3361   -5.2581   25.2644 C.3     1  UNL1        0.1141
     14 C           7.5112   -4.8136   23.8425 C.3     1  UNL1        0.0943
     15 N           8.1641   -5.7257   22.8466 N.3     1  UNL1       -0.2632
     16 C           8.6417   -7.0823   23.2726 C.3     1  UNL1        0.0943
     17 C           8.4666   -7.5268   24.6945 C.3     1  UNL1        0.1141
     18 C           7.8287   -5.2961   29.0110 C.3     1  UNL1        0.2573
     19 O           6.9857   -6.1471   28.1081 O.3     1  UNL1       -0.4304
     20 O           4.5638   -1.6507   16.9733 O.3     1  UNL1       -0.4754
     21 C           3.6789   -0.4864   17.3070 C.3     1  UNL1        0.2068
     22 C           4.2664    0.7513   17.9177 C.3     1  UNL1        0.0646
     23 C           3.8970    1.1451   19.3171 C.3     1  UNL1        0.0759
     24 N           4.0202    0.1508   20.4334 N.3     1  UNL1       -0.2738
     25 C           5.2575   -0.1263   21.2349 C.3     1  UNL1        0.0721
     26 C           4.9297   -1.1894   22.2410 C.3     1  UNL1        0.0187
     27 C           3.4898   -1.5694   22.0614 C.3     1  UNL1        0.0174
     28 C           2.9277   -0.7412   20.9443 C.3     1  UNL1        0.0576
     29 C           1.5202   -0.7953   20.4285 C.3     1  UNL1        0.0173
@<TRIPOS>BOND
     1    18    19    1
     2    19    10    1
     3    10    11    2
     4    10    12   am
     5    12    13    1
     6    13    14    1
     7    14    15    1
     8    15     9    1
     9     9     7    1
    10     7     8    2
    11     7     1    1
    12     1     2   ar
    13     2     3   ar
    14     3     4   ar
    15     4    20    1
    16    20    21    1
    17    21    22    1
    18    22    23    1
    19    23    24    1
    20    24    25    1
    21    25    26    1
    22    26    27    1
    23    27    28    1
    24    28    29    1
    25     4     5   ar
    26     5     6   ar
    27    15    16    1
    28    16    17    1
    29    17    12    1
    30     6     1   ar
    31    28    24    1
@<TRIPOS>MOLECULE
*****
 29 31 0 0 0
SMALL
GASTEIGER

@<TRIPOS>ATOM
      1 C           2.1936    0.1783   20.0981 C.ar    1  UNL1        0.0363
      2 C           2.2556   -1.3203   20.1181 C.ar    1  UNL1        0.0060
      3 C           3.2659   -2.0405   19.2750 C.ar    1  UNL1        0.0370
      4 C           4.2140   -1.2620   18.4118 C.ar    1  UNL1        0.1386
      5 C           4.1520    0.2366   18.3918 C.ar    1  UNL1        0.0370
      6 C           3.1417    0.9567   19.2349 C.ar    1  UNL1        0.0060
      7 C           1.1834    0.8984   20.9412 C.2     1  UNL1        0.1892
      8 O          -0.2789    0.6125   20.7676 O.2     1  UNL1       -0.2899
      9 C           1.6353    1.9044   21.9578 C.3     1  UNL1        0.1424
     10 C           0.9959    0.7498   27.8109 C.2     1  UNL1        0.4051
     11 O           2.1416    0.1778   28.5920 O.2     1  UNL1       -0.2262
     12 N           1.1558    1.0385   26.3476 N.am    1  UNL1       -0.2432
     13 C           0.0101    1.6105   25.5665 C.3     1  UNL1        0.1141
     14 C           0.1700    1.8991   24.1032 C.3     1  UNL1        0.0943
     15 N           1.4755    1.6158   23.4211 N.3     1  UNL1       -0.2632
     16 C           2.6211    1.0437   24.2022 C.3     1  UNL1        0.0943
     17 C           2.4613    0.7551   25.6655 C.3     1  UNL1        0.1141
     18 C          -1.2795   -0.0820   28.7492 C.3     1  UNL1        0.2573
     19 O          -0.3096    1.0332   28.4930 O.3     1  UNL1       -0.4304
     20 O           5.2243   -1.9821   17.5687 O.3     1  UNL1       -0.4754
     21 C           6.4986   -2.4785   18.1852 C.3     1  UNL1        0.2068
     22 C           7.3060   -1.5745   19.0688 C.3     1  UNL1        0.0646
     23 C           7.5040   -1.9204   20.5149 C.3     1  UNL1        0.0759
     24 N           6.3216   -2.2580   21.3740 N.3     1  UNL1       -0.2738
     25 C           5.8046   -3.6367   21.6600 C.3     1  UNL1        0.0721
     26 C           4.6121   -3.5070   22.5607 C.3     1  UNL1        0.0187
     27 C           4.3922   -2.0481   22.8313 C.3     1  UNL1        0.0174
     28 C           5.4487   -1.2762   22.0979 C.3     1  UNL1        0.0576
     29 C           5.6049    0.2156   22.0898 C.3     1  UNL1        0.0173
@<TRIPOS>BOND
     1    18    19    1
     2    19    10    1
     3    10    11    2
     4    10    12   am
     5    12    13    1
     6    13    14    1
     7    14    15    1
     8    15     9    1
     9     9     7    1
    10     7     8    2
    11     7     1    1
    12     1     2   ar
    13     2     3   ar
    14     3     4   ar
    15     4    20    1
    16    20    21    1
    17    21    22    1
    18    22    23    1
    19    23    24    1
    20    24    25    1
    21    25    26    1
    22    26    27    1
    23    27    28    1
    24    28    29    1
    25     4     5   ar
    26     5     6   ar
    27    15    16    1
    28    16    17    1
    29    17    12    1
    30     6     1   ar
    31    28    24    1
