@<TRIPOS>MOLECULE
*****
 34 38 0 0 0
SMALL
GASTEIGER

@<TRIPOS>ATOM
      1 C           4.6321   -1.8540   24.0449 C.ar    1  UNL1        0.0016
      2 C           4.2453   -1.3699   25.4109 C.ar    1  UNL1        0.0016
      3 C           3.1240   -0.3860   25.5683 C.ar    1  UNL1        0.0191
      4 C           2.3896    0.1137   24.3596 C.ar    1  UNL1        0.0828
      5 N           1.2683    1.0976   24.5170 N.ar    1  UNL1       -0.2422
      6 C           0.5338    1.5974   23.3084 C.ar    1  UNL1        0.1175
      7 C           0.9207    1.1132   21.9423 C.ar    1  UNL1        0.0989
      8 C           2.0419    0.1293   21.7850 C.ar    1  UNL1        0.0826
      9 C           2.7764   -0.3704   22.9936 C.ar    1  UNL1        0.0350
     10 C           3.8976   -1.3543   22.8363 C.ar    1  UNL1        0.0030
     11 N           2.1975   -0.1661   20.3227 N.ar    1  UNL1       -0.2815
     12 C           1.1724    0.6351   19.5762 C.ar    1  UNL1        0.3316
     13 O           0.9716    0.6442   18.0897 O.2     1  UNL1       -0.2463
     14 N           0.3833    1.4258   20.5773 N.ar    1  UNL1       -0.2765
     15 C          -0.7451    2.3643   20.2676 C.3     1  UNL1        0.1352
     16 C           7.9958   -4.8057   23.5727 C.ar    1  UNL1        0.2249
     17 C           7.9316   -3.9301   24.7889 C.ar    1  UNL1        0.0577
     18 C           6.8103   -2.9462   24.9463 C.ar    1  UNL1        0.0063
     19 C           5.7533   -2.8379   23.8875 C.ar    1  UNL1        0.0194
     20 C           5.8176   -3.7135   22.6713 C.ar    1  UNL1        0.1020
     21 N           6.9388   -4.6974   22.5139 N.ar    1  UNL1       -0.2101
     22 O           9.1170   -5.7896   23.4153 O.3     1  UNL1       -0.4602
     23 C           9.2632   -6.9221   24.3879 C.3     1  UNL1        0.2085
     24 C           8.0600   -7.7186   24.7980 C.3     1  UNL1        0.0647
     25 C           7.3957   -7.4493   26.1155 C.3     1  UNL1        0.0760
     26 C           8.5789   -9.2227   27.6004 C.3     1  UNL1        0.0897
     27 N           8.0870   -7.8208   27.3938 N.3     1  UNL1       -0.2702
     28 C           8.2864   -6.7904   28.4655 C.3     1  UNL1        0.0897
     29 C           3.2018   -1.0991   19.7137 C.3     1  UNL1        0.0949
     30 C           2.9425   -2.5764   19.7020 C.3     1  UNL1        0.0548
     31 C           3.9468   -3.5095   19.0930 C.3     1  UNL1        0.1441
     32 O           5.2105   -2.9651   18.4957 O.3     1  UNL1       -0.3536
     33 C           5.4698   -1.4878   18.5074 C.3     1  UNL1        0.1441
     34 C           4.4656   -0.5547   19.1164 C.3     1  UNL1        0.0548
@<TRIPOS>BOND
     1    26    27    1
     2    27    28    1
     3    27    25    1
     4    25    24    1
     5    24    23    1
     6    23    22    1
     7    22    16    1
     8    16    17   ar
     9    17    18   ar
    10    18    19   ar
    11    19     1    1
    12     1     2   ar
    13     2     3   ar
    14     3     4   ar
    15     4     5   ar
    16     5     6   ar
    17     6     7   ar
    18     7     8   ar
    19     8     9   ar
    20     9    10   ar
    21     8    11   ar
    22    11    29    1
    23    29    30    1
    24    30    31    1
    25    31    32    1
    26    32    33    1
    27    33    34    1
    28    11    12   ar
    29    12    13    2
    30    12    14   ar
    31    14    15    1
    32    19    20   ar
    33    20    21   ar
    34    21    16   ar
    35    10     1   ar
    36    34    29    1
    37     9     4   ar
    38    14     7   ar
@<TRIPOS>MOLECULE
*****
 34 38 0 0 0
SMALL
GASTEIGER

@<TRIPOS>ATOM
      1 C           6.4026   -3.5537   31.4618 C.ar    1  UNL1        0.0016
      2 C           7.0398   -4.8294   31.9271 C.ar    1  UNL1        0.0016
      3 C           7.5691   -5.8122   30.9253 C.ar    1  UNL1        0.0191
      4 C           7.4613   -5.5194   29.4581 C.ar    1  UNL1        0.0828
      5 N           7.9907   -6.5022   28.4562 N.ar    1  UNL1       -0.2422
      6 C           7.8829   -6.2094   26.9890 C.ar    1  UNL1        0.1175
      7 C           7.2457   -4.9336   26.5237 C.ar    1  UNL1        0.0989
      8 C           6.7163   -3.9508   27.5256 C.ar    1  UNL1        0.0826
      9 C           6.8241   -4.2437   28.9928 C.ar    1  UNL1        0.0350
     10 C           6.2947   -3.2609   29.9947 C.ar    1  UNL1        0.0030
     11 N           6.1436   -2.7858   26.7741 N.ar    1  UNL1       -0.2815
     12 C           6.3191   -3.0486   25.3078 C.ar    1  UNL1        0.3316
     13 O           5.8889   -2.1429   24.1920 O.2     1  UNL1       -0.2463
     14 N           7.0002   -4.3761   25.1531 N.ar    1  UNL1       -0.2765
     15 C           7.3708   -5.0309   23.8554 C.3     1  UNL1        0.1352
     16 C           4.8143   -0.6051   34.4675 C.ar    1  UNL1        0.2249
     17 C           6.2104   -0.4590   33.9390 C.ar    1  UNL1        0.0577
     18 C           6.7399   -1.4419   32.9371 C.ar    1  UNL1        0.0063
     19 C           5.8731   -2.5709   32.4637 C.ar    1  UNL1        0.0194
     20 C           4.4770   -2.7170   32.9923 C.ar    1  UNL1        0.1020
     21 N           3.9475   -1.7342   33.9941 N.ar    1  UNL1       -0.2101
     22 O           4.2848    0.3777   35.4693 O.3     1  UNL1       -0.4602
     23 C           4.6531    0.2446   36.9173 C.3     1  UNL1        0.2085
     24 C           4.0492    1.1689   37.9328 C.3     1  UNL1        0.0647
     25 C           2.6346    0.9628   38.3869 C.3     1  UNL1        0.0760
     26 C           1.9463    3.3785   37.7232 C.3     1  UNL1        0.0897
     27 N           1.7159    2.1391   38.5361 N.3     1  UNL1       -0.2702
     28 C           0.5668    2.0760   39.4982 C.3     1  UNL1        0.0897
     29 C           5.5072   -1.5712   27.3822 C.3     1  UNL1        0.0949
     30 C           6.3544   -0.3965   27.7726 C.3     1  UNL1        0.0548
     31 C           5.7181    0.8181   28.3807 C.3     1  UNL1        0.1441
     32 O           4.2345    0.8580   28.5985 O.3     1  UNL1       -0.3536
     33 C           3.3873   -0.3166   28.2081 C.3     1  UNL1        0.1441
     34 C           4.0236   -1.5312   27.6000 C.3     1  UNL1        0.0548
@<TRIPOS>BOND
     1    26    27    1
     2    27    28    1
     3    27    25    1
     4    25    24    1
     5    24    23    1
     6    23    22    1
     7    22    16    1
     8    16    17   ar
     9    17    18   ar
    10    18    19   ar
    11    19     1    1
    12     1     2   ar
    13     2     3   ar
    14     3     4   ar
    15     4     5   ar
    16     5     6   ar
    17     6     7   ar
    18     7     8   ar
    19     8     9   ar
    20     9    10   ar
    21     8    11   ar
    22    11    29    1
    23    29    30    1
    24    30    31    1
    25    31    32    1
    26    32    33    1
    27    33    34    1
    28    11    12   ar
    29    12    13    2
    30    12    14   ar
    31    14    15    1
    32    19    20   ar
    33    20    21   ar
    34    21    16   ar
    35    10     1   ar
    36    34    29    1
    37     9     4   ar
    38    14     7   ar
@<TRIPOS>MOLECULE
*****
 34 38 0 0 0
SMALL
GASTEIGER

@<TRIPOS>ATOM
      1 C           7.2738   -5.0952   24.6076 C.ar    1  UNL1        0.0016
      2 C           7.8635   -6.4621   24.7910 C.ar    1  UNL1        0.0016
      3 C           8.0733   -7.0093   26.1717 C.ar    1  UNL1        0.0191
      4 C           7.6934   -6.1895   27.3691 C.ar    1  UNL1        0.0828
      5 N           7.9032   -6.7368   28.7499 N.ar    1  UNL1       -0.2422
      6 C           7.5234   -5.9170   29.9473 C.ar    1  UNL1        0.1175
      7 C           6.9337   -4.5500   29.7638 C.ar    1  UNL1        0.0989
      8 C           6.7239   -4.0028   28.3831 C.ar    1  UNL1        0.0826
      9 C           7.1038   -4.8226   27.1857 C.ar    1  UNL1        0.0350
     10 C           6.8940   -4.2754   25.8050 C.ar    1  UNL1        0.0030
     11 N           6.1267   -2.6330   28.5132 N.ar    1  UNL1       -0.2815
     12 C           5.9674   -2.3336   29.9743 C.ar    1  UNL1        0.3316
     13 O           5.4077   -1.0711   30.5598 O.2     1  UNL1       -0.2463
     14 N           6.4662   -3.5184   30.7473 N.ar    1  UNL1       -0.2765
     15 C           6.4928   -3.6488   32.2414 C.3     1  UNL1        0.1352
     16 C           6.6444   -3.4534   20.4652 C.ar    1  UNL1        0.2249
     17 C           5.5572   -3.3356   21.4919 C.ar    1  UNL1        0.0577
     18 C           5.7670   -3.8829   22.8727 C.ar    1  UNL1        0.0063
     19 C           7.0640   -4.5479   23.2268 C.ar    1  UNL1        0.0194
     20 C           8.1513   -4.6657   22.2002 C.ar    1  UNL1        0.1020
     21 N           7.9415   -4.1185   20.8194 N.ar    1  UNL1       -0.2101
     22 O           6.4347   -2.9062   19.0845 O.3     1  UNL1       -0.4602
     23 C           5.0830   -2.9944   18.4402 C.3     1  UNL1        0.2085
     24 C           4.2173   -1.7732   18.3430 C.3     1  UNL1        0.0647
     25 C           3.3652   -1.3634   19.5073 C.3     1  UNL1        0.0760
     26 C           2.3911    0.7210   18.3004 C.3     1  UNL1        0.0897
     27 N           2.2511   -0.3783   19.3114 N.3     1  UNL1       -0.2702
     28 C           0.9970   -0.4925   20.1263 C.3     1  UNL1        0.0897
     29 C           5.7542   -1.7224   27.3809 C.3     1  UNL1        0.0949
     30 C           4.3321   -1.6562   26.9085 C.3     1  UNL1        0.0548
     31 C           3.9595   -0.7456   25.7762 C.3     1  UNL1        0.1441
     32 O           5.0091    0.0987   25.1162 O.3     1  UNL1       -0.3536
     33 C           6.4312    0.0324   25.5886 C.3     1  UNL1        0.1441
     34 C           6.8038   -0.8781   26.7209 C.3     1  UNL1        0.0548
@<TRIPOS>BOND
     1    26    27    1
     2    27    28    1
     3    27    25    1
     4    25    24    1
     5    24    23    1
     6    23    22    1
     7    22    16    1
     8    16    17   ar
     9    17    18   ar
    10    18    19   ar
    11    19     1    1
    12     1     2   ar
    13     2     3   ar
    14     3     4   ar
    15     4     5   ar
    16     5     6   ar
    17     6     7   ar
    18     7     8   ar
    19     8     9   ar
    20     9    10   ar
    21     8    11   ar
    22    11    29    1
    23    29    30    1
    24    30    31    1
    25    31    32    1
    26    32    33    1
    27    33    34    1
    28    11    12   ar
    29    12    13    2
    30    12    14   ar
    31    14    15    1
    32    19    20   ar
    33    20    21   ar
    34    21    16   ar
    35    10     1   ar
    36    34    29    1
    37     9     4   ar
    38    14     7   ar
@<TRIPOS>MOLECULE
*****
 34 38 0 0 0
SMALL
GASTEIGER

@<TRIPOS>ATOM
      1 C           3.1570   -0.5984   22.8011 C.ar    1  UNL1        0.0016
      2 C           2.8354   -0.1342   24.1907 C.ar    1  UNL1        0.0016
      3 C           3.5799   -0.7023   25.3624 C.ar    1  UNL1        0.0191
      4 C           4.6461   -1.7347   25.1445 C.ar    1  UNL1        0.0828
      5 N           5.3906   -2.3028   26.3162 N.ar    1  UNL1       -0.2422
      6 C           6.4568   -3.3352   26.0983 C.ar    1  UNL1        0.1175
      7 C           6.7784   -3.7994   24.7086 C.ar    1  UNL1        0.0989
      8 C           6.0339   -3.2312   23.5370 C.ar    1  UNL1        0.0826
      9 C           4.9677   -2.1989   23.7549 C.ar    1  UNL1        0.0350
     10 C           4.2232   -1.6307   22.5832 C.ar    1  UNL1        0.0030
     11 N           6.5659   -3.8774   22.2922 N.ar    1  UNL1       -0.2815
     12 C           7.6392   -4.8449   22.6946 C.ar    1  UNL1        0.3316
     13 O           8.4406   -5.7090   21.7665 O.2     1  UNL1       -0.2463
     14 N           7.7706   -4.7967   24.1881 N.ar    1  UNL1       -0.2765
     15 C           8.7263   -5.6040   25.0157 C.3     1  UNL1        0.1352
     16 C           0.9235    1.1061   19.2859 C.ar    1  UNL1        0.2249
     17 C           1.8139   -0.0869   19.1018 C.ar    1  UNL1        0.0577
     18 C           2.5585   -0.6550   20.2736 C.ar    1  UNL1        0.0063
     19 C           2.4125   -0.0302   21.6294 C.ar    1  UNL1        0.0194
     20 C           1.5221    1.1628   21.8135 C.ar    1  UNL1        0.1020
     21 N           0.7776    1.7309   20.6418 N.ar    1  UNL1       -0.2101
     22 O           0.1790    1.6742   18.1142 O.3     1  UNL1       -0.4602
     23 C           0.0023    3.1582   17.9860 C.3     1  UNL1        0.2085
     24 C          -1.3759    3.7495   17.9541 C.3     1  UNL1        0.0647
     25 C          -2.0851    4.0685   19.2368 C.3     1  UNL1        0.0760
     26 C          -4.4678    3.8434   18.2257 C.3     1  UNL1        0.0897
     27 N          -3.5369    3.7266   19.3961 N.3     1  UNL1       -0.2702
     28 C          -4.0578    3.2680   20.7259 C.3     1  UNL1        0.0897
     29 C           6.1055   -3.6040   20.8911 C.3     1  UNL1        0.0949
     30 C           4.8417   -4.2309   20.3813 C.3     1  UNL1        0.0548
     31 C           4.3811   -3.9576   18.9801 C.3     1  UNL1        0.1441
     32 O           5.1844   -3.0574   18.0888 O.3     1  UNL1       -0.3536
     33 C           6.4481   -2.4305   18.5986 C.3     1  UNL1        0.1441
     34 C           6.9087   -2.7038   19.9997 C.3     1  UNL1        0.0548
@<TRIPOS>BOND
     1    26    27    1
     2    27    28    1
     3    27    25    1
     4    25    24    1
     5    24    23    1
     6    23    22    1
     7    22    16    1
     8    16    17   ar
     9    17    18   ar
    10    18    19   ar
    11    19     1    1
    12     1     2   ar
    13     2     3   ar
    14     3     4   ar
    15     4     5   ar
    16     5     6   ar
    17     6     7   ar
    18     7     8   ar
    19     8     9   ar
    20     9    10   ar
    21     8    11   ar
    22    11    29    1
    23    29    30    1
    24    30    31    1
    25    31    32    1
    26    32    33    1
    27    33    34    1
    28    11    12   ar
    29    12    13    2
    30    12    14   ar
    31    14    15    1
    32    19    20   ar
    33    20    21   ar
    34    21    16   ar
    35    10     1   ar
    36    34    29    1
    37     9     4   ar
    38    14     7   ar
@<TRIPOS>MOLECULE
*****
 34 38 0 0 0
SMALL
GASTEIGER

@<TRIPOS>ATOM
      1 C           7.0359   -4.8175   26.7225 C.ar    1  UNL1        0.0016
      2 C           7.6214   -6.0619   27.3214 C.ar    1  UNL1        0.0016
      3 C           7.6889   -6.2168   28.8118 C.ar    1  UNL1        0.0191
      4 C           7.1709   -5.1274   29.7033 C.ar    1  UNL1        0.0828
      5 N           7.2384   -5.2825   31.1938 N.ar    1  UNL1       -0.2422
      6 C           6.7204   -4.1931   32.0854 C.ar    1  UNL1        0.1175
      7 C           6.1349   -2.9486   31.4865 C.ar    1  UNL1        0.0989
      8 C           6.0674   -2.7936   29.9961 C.ar    1  UNL1        0.0826
      9 C           6.5854   -3.8830   29.1045 C.ar    1  UNL1        0.0350
     10 C           6.5179   -3.7281   27.6141 C.ar    1  UNL1        0.0030
     11 N           5.4407   -1.4643   29.6962 N.ar    1  UNL1       -0.2815
     12 C           5.1208   -0.7977   31.0013 C.ar    1  UNL1        0.3316
     13 O           4.4838    0.5498   31.1703 O.2     1  UNL1       -0.2463
     14 N           5.5499   -1.7151   32.1078 N.ar    1  UNL1       -0.2765
     15 C           5.4173   -1.4461   33.5775 C.3     1  UNL1        0.1352
     16 C           6.8334   -4.3524   22.2511 C.ar    1  UNL1        0.2249
     17 C           6.0756   -3.4097   23.1383 C.ar    1  UNL1        0.0577
     18 C           6.1431   -3.5648   24.6288 C.ar    1  UNL1        0.0063
     19 C           6.9684   -4.6624   25.2320 C.ar    1  UNL1        0.0194
     20 C           7.7262   -5.6051   24.3449 C.ar    1  UNL1        0.1020
     21 N           7.6587   -5.4501   22.8545 N.ar    1  UNL1       -0.2101
     22 O           6.7659   -4.1974   20.7607 O.3     1  UNL1       -0.4602
     23 C           6.7414   -2.8279   20.1495 C.3     1  UNL1        0.2085
     24 C           6.4694   -2.6657   18.6832 C.3     1  UNL1        0.0647
     25 C           5.0566   -2.6514   18.1796 C.3     1  UNL1        0.0760
     26 C           3.5522   -4.5059   19.2031 C.3     1  UNL1        0.0897
     27 N           3.9332   -3.0598   19.0857 N.3     1  UNL1       -0.2702
     28 C           3.1908   -2.0223   19.8745 C.3     1  UNL1        0.0897
     29 C           5.1797   -0.9005   28.3309 C.3     1  UNL1        0.0949
     30 C           6.1865    0.0077   27.6895 C.3     1  UNL1        0.0548
     31 C           5.9255    0.5715   26.3241 C.3     1  UNL1        0.1441
     32 O           4.6577    0.2271   25.6003 O.3     1  UNL1       -0.3536
     33 C           3.6508   -0.6811   26.2418 C.3     1  UNL1        0.1441
     34 C           3.9118   -1.2449   27.6070 C.3     1  UNL1        0.0548
@<TRIPOS>BOND
     1    26    27    1
     2    27    28    1
     3    27    25    1
     4    25    24    1
     5    24    23    1
     6    23    22    1
     7    22    16    1
     8    16    17   ar
     9    17    18   ar
    10    18    19   ar
    11    19     1    1
    12     1     2   ar
    13     2     3   ar
    14     3     4   ar
    15     4     5   ar
    16     5     6   ar
    17     6     7   ar
    18     7     8   ar
    19     8     9   ar
    20     9    10   ar
    21     8    11   ar
    22    11    29    1
    23    29    30    1
    24    30    31    1
    25    31    32    1
    26    32    33    1
    27    33    34    1
    28    11    12   ar
    29    12    13    2
    30    12    14   ar
    31    14    15    1
    32    19    20   ar
    33    20    21   ar
    34    21    16   ar
    35    10     1   ar
    36    34    29    1
    37     9     4   ar
    38    14     7   ar
@<TRIPOS>MOLECULE
*****
 34 38 0 0 0
SMALL
GASTEIGER

@<TRIPOS>ATOM
      1 C           3.1199   -0.6499   22.8383 C.ar    1  UNL1        0.0016
      2 C           2.8132   -0.1892   24.2325 C.ar    1  UNL1        0.0016
      3 C           3.5733   -0.7570   25.3942 C.ar    1  UNL1        0.0191
      4 C           4.6401   -1.7856   25.1619 C.ar    1  UNL1        0.0828
      5 N           5.4002   -2.3534   26.3237 N.ar    1  UNL1       -0.2422
      6 C           6.4670   -3.3820   26.0914 C.ar    1  UNL1        0.1175
      7 C           6.7737   -3.8427   24.6972 C.ar    1  UNL1        0.0989
      8 C           6.0136   -3.2749   23.5354 C.ar    1  UNL1        0.0826
      9 C           4.9468   -2.2463   23.7678 C.ar    1  UNL1        0.0350
     10 C           4.1867   -1.6785   22.6060 C.ar    1  UNL1        0.0030
     11 N           6.5329   -3.9172   22.2833 N.ar    1  UNL1       -0.2815
     12 C           7.6139   -4.8820   22.6713 C.ar    1  UNL1        0.3316
     13 O           8.4069   -5.7419   21.7322 O.2     1  UNL1       -0.2463
     14 N           7.7628   -4.8359   24.1632 N.ar    1  UNL1       -0.2765
     15 C           8.7307   -5.6416   24.9779 C.3     1  UNL1        0.1352
     16 C           0.8395    1.0535   19.3528 C.ar    1  UNL1        0.2249
     17 C           2.0260    0.1680   19.1121 C.ar    1  UNL1        0.0577
     18 C           2.7861   -0.3999   20.2739 C.ar    1  UNL1        0.0063
     19 C           2.3597   -0.0821   21.6765 C.ar    1  UNL1        0.0194
     20 C           1.1732    0.8035   21.9172 C.ar    1  UNL1        0.1020
     21 N           0.4131    1.3713   20.7555 N.ar    1  UNL1       -0.2101
     22 O           0.0794    1.6213   18.1911 O.3     1  UNL1       -0.4602
     23 C           0.1308    3.0936   17.9087 C.3     1  UNL1        0.2085
     24 C           1.1517    3.9534   18.5933 C.3     1  UNL1        0.0647
     25 C           2.5536    4.0190   18.0639 C.3     1  UNL1        0.0760
     26 C           3.6500    3.3715   20.3285 C.3     1  UNL1        0.0897
     27 N           3.6748    3.3804   18.8287 N.3     1  UNL1       -0.2702
     28 C           4.8208    2.7506   18.0938 C.3     1  UNL1        0.0897
     29 C           6.0550   -3.6428   20.8882 C.3     1  UNL1        0.0949
     30 C           6.8496   -2.7458   19.9861 C.3     1  UNL1        0.0548
     31 C           6.3717   -2.4713   18.5909 C.3     1  UNL1        0.1441
     32 O           5.0993   -3.0941   18.0979 O.3     1  UNL1       -0.3536
     33 C           4.3047   -3.9912   19.0001 C.3     1  UNL1        0.1441
     34 C           4.7825   -4.2656   20.3952 C.3     1  UNL1        0.0548
@<TRIPOS>BOND
     1    26    27    1
     2    27    28    1
     3    27    25    1
     4    25    24    1
     5    24    23    1
     6    23    22    1
     7    22    16    1
     8    16    17   ar
     9    17    18   ar
    10    18    19   ar
    11    19     1    1
    12     1     2   ar
    13     2     3   ar
    14     3     4   ar
    15     4     5   ar
    16     5     6   ar
    17     6     7   ar
    18     7     8   ar
    19     8     9   ar
    20     9    10   ar
    21     8    11   ar
    22    11    29    1
    23    29    30    1
    24    30    31    1
    25    31    32    1
    26    32    33    1
    27    33    34    1
    28    11    12   ar
    29    12    13    2
    30    12    14   ar
    31    14    15    1
    32    19    20   ar
    33    20    21   ar
    34    21    16   ar
    35    10     1   ar
    36    34    29    1
    37     9     4   ar
    38    14     7   ar
@<TRIPOS>MOLECULE
*****
 34 38 0 0 0
SMALL
GASTEIGER

@<TRIPOS>ATOM
      1 C           4.7576   -1.6482   26.2406 C.ar    1  UNL1        0.0016
      2 C           6.0156   -2.4344   26.4632 C.ar    1  UNL1        0.0016
      3 C           6.5756   -2.5773   27.8473 C.ar    1  UNL1        0.0191
      4 C           5.8776   -1.9341   29.0089 C.ar    1  UNL1        0.0828
      5 N           6.4377   -2.0771   30.3931 N.ar    1  UNL1       -0.2422
      6 C           5.7398   -1.4339   31.5546 C.ar    1  UNL1        0.1175
      7 C           4.4818   -0.6477   31.3320 C.ar    1  UNL1        0.0989
      8 C           3.9218   -0.5048   29.9478 C.ar    1  UNL1        0.0826
      9 C           4.6197   -1.1480   28.7863 C.ar    1  UNL1        0.0350
     10 C           4.0597   -1.0050   27.4021 C.ar    1  UNL1        0.0030
     11 N           2.6748    0.3242   30.0357 N.ar    1  UNL1       -0.2815
     12 C           2.4642    0.6936   31.4741 C.ar    1  UNL1        0.3316
     13 O           1.3349    1.5188   32.0163 O.2     1  UNL1       -0.2463
     14 N           3.5810    0.0929   32.2753 N.ar    1  UNL1       -0.2765
     15 C           3.7647    0.2119   33.7593 C.3     1  UNL1        0.1352
     16 C           3.0775   -1.2193   22.0880 C.ar    1  UNL1        0.2249
     17 C           2.6259   -0.2942   23.1790 C.ar    1  UNL1        0.0577
     18 C           3.1860   -0.4372   24.5632 C.ar    1  UNL1        0.0063
     19 C           4.1976   -1.5052   24.8564 C.ar    1  UNL1        0.0194
     20 C           4.6491   -2.4303   23.7653 C.ar    1  UNL1        0.1020
     21 N           4.0891   -2.2874   22.3812 N.ar    1  UNL1       -0.2101
     22 O           2.5175   -1.0764   20.7039 O.3     1  UNL1       -0.4602
     23 C           1.0900   -0.6575   20.5119 C.3     1  UNL1        0.2085
     24 C           0.7714    0.5885   19.7399 C.3     1  UNL1        0.0647
     25 C           1.2735    0.7498   18.3357 C.3     1  UNL1        0.0760
     26 C           3.4444   -0.3652   17.4447 C.3     1  UNL1        0.0897
     27 N           2.7483    0.8079   18.0687 N.3     1  UNL1       -0.2702
     28 C           3.5272    2.0392   18.4256 C.3     1  UNL1        0.0897
     29 C           1.7933    0.7151   28.8868 C.3     1  UNL1        0.0949
     30 C           0.4256    0.1141   28.7525 C.3     1  UNL1        0.0548
     31 C          -0.4561    0.5049   27.6036 C.3     1  UNL1        0.1441
     32 O           0.0301    1.4970   26.5889 O.3     1  UNL1       -0.3536
     33 C           1.3978    2.0981   26.7232 C.3     1  UNL1        0.1441
     34 C           2.2794    1.7072   27.8721 C.3     1  UNL1        0.0548
@<TRIPOS>BOND
     1    26    27    1
     2    27    28    1
     3    27    25    1
     4    25    24    1
     5    24    23    1
     6    23    22    1
     7    22    16    1
     8    16    17   ar
     9    17    18   ar
    10    18    19   ar
    11    19     1    1
    12     1     2   ar
    13     2     3   ar
    14     3     4   ar
    15     4     5   ar
    16     5     6   ar
    17     6     7   ar
    18     7     8   ar
    19     8     9   ar
    20     9    10   ar
    21     8    11   ar
    22    11    29    1
    23    29    30    1
    24    30    31    1
    25    31    32    1
    26    32    33    1
    27    33    34    1
    28    11    12   ar
    29    12    13    2
    30    12    14   ar
    31    14    15    1
    32    19    20   ar
    33    20    21   ar
    34    21    16   ar
    35    10     1   ar
    36    34    29    1
    37     9     4   ar
    38    14     7   ar
@<TRIPOS>MOLECULE
*****
 34 38 0 0 0
SMALL
GASTEIGER

@<TRIPOS>ATOM
      1 C           3.6121   -1.7783   21.9202 C.ar    1  UNL1        0.0016
      2 C           4.0131   -2.6926   20.8008 C.ar    1  UNL1        0.0016
      3 C           5.1176   -3.6869   21.0038 C.ar    1  UNL1        0.0191
      4 C           5.8212   -3.7669   22.3261 C.ar    1  UNL1        0.0828
      5 N           6.9258   -4.7613   22.5290 N.ar    1  UNL1       -0.2422
      6 C           7.6293   -4.8413   23.8514 C.ar    1  UNL1        0.1175
      7 C           7.2283   -3.9269   24.9708 C.ar    1  UNL1        0.0989
      8 C           6.1237   -2.9326   24.7679 C.ar    1  UNL1        0.0826
      9 C           5.4202   -2.8526   23.4455 C.ar    1  UNL1        0.0350
     10 C           4.3156   -1.8582   23.2426 C.ar    1  UNL1        0.0030
     11 N           5.9485   -2.1671   26.0459 N.ar    1  UNL1       -0.2815
     12 C           6.9448   -2.6884   27.0387 C.ar    1  UNL1        0.3316
     13 O           7.1195   -2.2067   28.4486 O.2     1  UNL1       -0.2463
     14 N           7.7357   -3.7761   26.3743 N.ar    1  UNL1       -0.2765
     15 C           8.8402   -4.5729   27.0029 C.3     1  UNL1        0.1352
     16 C           0.2984    1.2049   21.3115 C.ar    1  UNL1        0.2249
     17 C           0.5588    0.1515   20.2758 C.ar    1  UNL1        0.0577
     18 C           1.6634   -0.8429   20.4788 C.ar    1  UNL1        0.0063
     19 C           2.5075   -0.7838   21.7173 C.ar    1  UNL1        0.0194
     20 C           2.2471    0.2695   22.7529 C.ar    1  UNL1        0.1020
     21 N           1.1426    1.2639   22.5501 N.ar    1  UNL1       -0.2101
     22 O          -0.8061    2.1993   21.1086 O.3     1  UNL1       -0.4602
     23 C          -0.8093    3.4848   21.8816 C.3     1  UNL1        0.2085
     24 C          -1.5722    3.5838   23.1693 C.3     1  UNL1        0.0647
     25 C          -2.8518    4.3646   23.2249 C.3     1  UNL1        0.0760
     26 C          -4.8978    3.5028   24.5744 C.3     1  UNL1        0.0897
     27 N          -4.1675    3.6458   23.2720 N.3     1  UNL1       -0.2702
     28 C          -4.7530    3.0701   22.0167 C.3     1  UNL1        0.0897
     29 C           4.9520   -1.0726   26.2885 C.3     1  UNL1        0.0949
     30 C           5.1936    0.2988   25.7309 C.3     1  UNL1        0.0548
     31 C           4.1971    1.3935   25.9735 C.3     1  UNL1        0.1441
     32 O           2.9589    1.1166   26.7737 O.3     1  UNL1       -0.3536
     33 C           2.7173   -0.2547   27.3313 C.3     1  UNL1        0.1441
     34 C           3.7138   -1.3493   27.0887 C.3     1  UNL1        0.0548
@<TRIPOS>BOND
     1    26    27    1
     2    27    28    1
     3    27    25    1
     4    25    24    1
     5    24    23    1
     6    23    22    1
     7    22    16    1
     8    16    17   ar
     9    17    18   ar
    10    18    19   ar
    11    19     1    1
    12     1     2   ar
    13     2     3   ar
    14     3     4   ar
    15     4     5   ar
    16     5     6   ar
    17     6     7   ar
    18     7     8   ar
    19     8     9   ar
    20     9    10   ar
    21     8    11   ar
    22    11    29    1
    23    29    30    1
    24    30    31    1
    25    31    32    1
    26    32    33    1
    27    33    34    1
    28    11    12   ar
    29    12    13    2
    30    12    14   ar
    31    14    15    1
    32    19    20   ar
    33    20    21   ar
    34    21    16   ar
    35    10     1   ar
    36    34    29    1
    37     9     4   ar
    38    14     7   ar
@<TRIPOS>MOLECULE
*****
 34 38 0 0 0
SMALL
GASTEIGER

@<TRIPOS>ATOM
      1 C           7.1780   -4.6254   25.9959 C.ar    1  UNL1        0.0016
      2 C           7.8615   -5.8360   25.4326 C.ar    1  UNL1        0.0016
      3 C           8.0372   -5.9759   23.9496 C.ar    1  UNL1        0.0191
      4 C           7.5294   -4.9052   23.0298 C.ar    1  UNL1        0.0828
      5 N           7.7052   -5.0451   21.5467 N.ar    1  UNL1       -0.2422
      6 C           7.1974   -3.9745   20.6270 C.ar    1  UNL1        0.1175
      7 C           6.5139   -2.7639   21.1904 C.ar    1  UNL1        0.0989
      8 C           6.3382   -2.6240   22.6735 C.ar    1  UNL1        0.0826
      9 C           6.8460   -3.6947   23.5932 C.ar    1  UNL1        0.0350
     10 C           6.6702   -3.5548   25.0762 C.ar    1  UNL1        0.0030
     11 N           5.6298   -1.3282   22.9361 N.ar    1  UNL1       -0.2815
     12 C           5.3677   -0.6672   21.6153 C.ar    1  UNL1        0.3316
     13 O           4.6799    0.6499   21.4095 O.2     1  UNL1       -0.2463
     14 N           5.9142   -1.5546   20.5364 N.ar    1  UNL1       -0.2765
     15 C           5.8688   -1.2807   19.0623 C.3     1  UNL1        0.1352
     16 C           6.6507   -4.2057   30.4453 C.ar    1  UNL1        0.2249
     17 C           6.5920   -2.9923   29.5653 C.ar    1  UNL1        0.0577
     18 C           6.7678   -3.1323   28.0822 C.ar    1  UNL1        0.0063
     19 C           7.0022   -4.4855   27.4791 C.ar    1  UNL1        0.0194
     20 C           7.0609   -5.6988   28.3590 C.ar    1  UNL1        0.1020
     21 N           6.8852   -5.5590   29.8421 N.ar    1  UNL1       -0.2101
     22 O           6.4750   -4.0658   31.9283 O.3     1  UNL1       -0.4602
     23 C           5.9942   -2.7684   32.5075 C.3     1  UNL1        0.2085
     24 C           4.6770   -2.7086   33.2226 C.3     1  UNL1        0.0647
     25 C           4.2835   -1.4673   33.9672 C.3     1  UNL1        0.0760
     26 C           3.7674    1.0775   33.8799 C.3     1  UNL1        0.0897
     27 N           3.7881   -0.2674   33.2158 N.3     1  UNL1       -0.2702
     28 C           3.3134   -0.4122   31.8003 C.3     1  UNL1        0.0897
     29 C           5.2502   -0.7882   24.2830 C.3     1  UNL1        0.0949
     30 C           3.9145   -1.1250   24.8768 C.3     1  UNL1        0.0548
     31 C           3.5347   -0.5850   26.2238 C.3     1  UNL1        0.1441
     32 O           4.4907    0.2918   26.9769 O.3     1  UNL1       -0.3536
     33 C           5.8264    0.6287   26.3831 C.3     1  UNL1        0.1441
     34 C           6.2061    0.0887   25.0362 C.3     1  UNL1        0.0548
@<TRIPOS>BOND
     1    26    27    1
     2    27    28    1
     3    27    25    1
     4    25    24    1
     5    24    23    1
     6    23    22    1
     7    22    16    1
     8    16    17   ar
     9    17    18   ar
    10    18    19   ar
    11    19     1    1
    12     1     2   ar
    13     2     3   ar
    14     3     4   ar
    15     4     5   ar
    16     5     6   ar
    17     6     7   ar
    18     7     8   ar
    19     8     9   ar
    20     9    10   ar
    21     8    11   ar
    22    11    29    1
    23    29    30    1
    24    30    31    1
    25    31    32    1
    26    32    33    1
    27    33    34    1
    28    11    12   ar
    29    12    13    2
    30    12    14   ar
    31    14    15    1
    32    19    20   ar
    33    20    21   ar
    34    21    16   ar
    35    10     1   ar
    36    34    29    1
    37     9     4   ar
    38    14     7   ar
