@<TRIPOS>MOLECULE
*****
 35 39 0 0 0
SMALL
GASTEIGER

@<TRIPOS>ATOM
      1 C           6.4525   -3.2966   24.8051 C.ar    1  UNL1        0.1515
      2 N           7.0365   -4.0430   25.9678 N.ar    1  UNL1       -0.2248
      3 C           7.6928   -5.2840   25.4395 C.ar    1  UNL1        0.1173
      4 C           8.4299   -6.3980   26.1220 C.ar    1  UNL1        0.0238
      5 C           8.9884   -7.5325   25.3153 C.ar    1  UNL1        0.0223
      6 C           8.8100   -7.5531   23.8261 C.ar    1  UNL1        0.1006
      7 N           8.0730   -6.4392   23.1436 N.ar    1  UNL1       -0.2248
      8 C           7.5144   -5.3046   23.9503 C.ar    1  UNL1        0.1666
      9 N           6.7478   -4.0763   23.5583 N.ar    1  UNL1       -0.2754
     10 N           7.8581   -0.8030   25.7032 N.pl3   1  UNL1       -0.3425
     11 C           6.4072   -0.7516   25.3258 C.ar    1  UNL1        0.1282
     12 N           5.6592    0.5466   25.3975 N.ar    1  UNL1       -0.2295
     13 C           4.2084    0.5980   25.0202 C.ar    1  UNL1        0.1003
     14 C           3.5056   -0.6487   24.5711 C.ar    1  UNL1        0.0209
     15 C           4.2536   -1.9469   24.4995 C.ar    1  UNL1        0.0074
     16 C           5.7045   -1.9984   24.8768 C.ar    1  UNL1        0.0657
     17 H           8.3194    0.0153   25.9979 H       1  UNL1        0.1437
     18 H           8.3491   -1.6551   25.6562 H       1  UNL1        0.1437
     19 C           6.3470   -3.6948   22.1641 C.ar    1  UNL1        0.0667
     20 C           7.3480   -3.0647   21.2417 C.ar    1  UNL1        0.0173
     21 C           6.9472   -2.6831   19.8475 C.ar    1  UNL1       -0.0023
     22 C           5.5452   -2.9317   19.3757 C.ar    1  UNL1       -0.0130
     23 C           4.5441   -3.5618   20.2980 C.ar    1  UNL1       -0.0023
     24 C           4.9449   -3.9433   21.6922 C.ar    1  UNL1        0.0173
     25 C           5.1444   -2.5501   17.9815 C.3     1  UNL1        0.1116
     26 C           4.3017   -1.3309   17.7505 C.2     1  UNL1        0.2305
     27 O           3.8673   -0.9718   16.3604 O.2     1  UNL1       -0.2744
     28 N           3.8933   -0.4709   18.9097 N.am    1  UNL1       -0.2836
     29 H           4.1784   -0.7067   19.8220 H       1  UNL1        0.1549
     30 C           3.0506    0.7483   18.6787 C.ar    1  UNL1        0.0503
     31 C           1.5581    0.6233   18.5935 C.ar    1  UNL1        0.0147
     32 C           0.7154    1.8425   18.3625 C.ar    1  UNL1        0.0013
     33 C           1.3651    3.1867   18.2167 C.ar    1  UNL1        0.0001
     34 C           2.8575    3.3116   18.3020 C.ar    1  UNL1        0.0013
     35 C           3.7002    2.0924   18.5330 C.ar    1  UNL1        0.0147
@<TRIPOS>BOND
     1    10    11    1
     2    11    12   ar
     3    12    13   ar
     4    13    14   ar
     5    14    15   ar
     6    15    16   ar
     7    16     1    1
     8     1     2   ar
     9     2     3   ar
    10     3     4   ar
    11     4     5   ar
    12     5     6   ar
    13     6     7   ar
    14     7     8   ar
    15     8     9   ar
    16     9    19    1
    17    19    20   ar
    18    20    21   ar
    19    21    22   ar
    20    22    25    1
    21    25    26    1
    22    26    27    2
    23    26    28   am
    24    28    30    1
    25    30    31   ar
    26    31    32   ar
    27    32    33   ar
    28    33    34   ar
    29    34    35   ar
    30    22    23   ar
    31    23    24   ar
    32    16    11   ar
    33     9     1   ar
    34    24    19   ar
    35     8     3   ar
    36    35    30   ar
    37    10    17    1
    38    10    18    1
    39    28    29    1
@<TRIPOS>MOLECULE
*****
 35 39 0 0 0
SMALL
GASTEIGER

@<TRIPOS>ATOM
      1 C           5.5216   -1.6561   29.0774 C.ar    1  UNL1        0.1515
      2 N           5.7961   -2.5478   27.9029 N.ar    1  UNL1       -0.2248
      3 C           6.4322   -3.8061   28.4148 C.ar    1  UNL1        0.1173
      4 C           6.9187   -5.0410   27.7160 C.ar    1  UNL1        0.0238
      5 C           7.5238   -6.1618   28.5081 C.ar    1  UNL1        0.0223
      6 C           7.6424   -6.0478   29.9990 C.ar    1  UNL1        0.1006
      7 N           7.1560   -4.8129   30.6979 N.ar    1  UNL1       -0.2248
      8 C           6.5508   -3.6921   29.9058 C.ar    1  UNL1        0.1666
      9 N           5.9881   -2.3633   30.3152 N.ar    1  UNL1       -0.2754
     10 N           2.9444   -1.2548   27.5951 N.pl3   1  UNL1       -0.3425
     11 C           3.6028   -0.0953   28.2824 C.ar    1  UNL1        0.1282
     12 N           2.9725    1.2648   28.2286 N.ar    1  UNL1       -0.2295
     13 C           3.6308    2.4242   28.9158 C.ar    1  UNL1        0.1003
     14 C           4.9194    2.2235   29.6569 C.ar    1  UNL1        0.0209
     15 C           5.5497    0.8634   29.7108 C.ar    1  UNL1        0.0074
     16 C           4.8914   -0.2960   29.0235 C.ar    1  UNL1        0.0657
     17 H           2.0987   -1.1230   27.1087 H       1  UNL1        0.1437
     18 H           3.3581   -2.1474   27.6305 H       1  UNL1        0.1437
     19 C           5.9061   -1.8346   31.7166 C.ar    1  UNL1        0.0667
     20 C           4.6651   -2.0544   32.5298 C.ar    1  UNL1        0.0173
     21 C           4.5832   -1.5257   33.9311 C.ar    1  UNL1       -0.0023
     22 C           5.7424   -0.7772   34.5193 C.ar    1  UNL1       -0.0130
     23 C           6.9835   -0.5574   33.7061 C.ar    1  UNL1       -0.0023
     24 C           7.0654   -1.0861   32.3048 C.ar    1  UNL1        0.0173
     25 C           5.6604   -0.2484   35.9206 C.3     1  UNL1        0.1116
     26 C           4.4249    0.4665   36.3815 C.2     1  UNL1        0.2305
     27 O           3.6018    1.2491   35.4017 O.2     1  UNL1       -0.2744
     28 N           4.0126    0.3989   37.8221 N.am    1  UNL1       -0.2836
     29 H           4.5529   -0.1148   38.4652 H       1  UNL1        0.1549
     30 C           2.7772    1.1139   38.2830 C.ar    1  UNL1        0.0503
     31 C           1.7331    0.3770   39.0686 C.ar    1  UNL1        0.0147
     32 C           0.4977    1.0920   39.5294 C.ar    1  UNL1        0.0013
     33 C           0.3062    2.5439   39.2046 C.ar    1  UNL1        0.0001
     34 C           1.3502    3.2807   38.4190 C.ar    1  UNL1        0.0013
     35 C           2.5856    2.5657   37.9582 C.ar    1  UNL1        0.0147
@<TRIPOS>BOND
     1    10    11    1
     2    11    12   ar
     3    12    13   ar
     4    13    14   ar
     5    14    15   ar
     6    15    16   ar
     7    16     1    1
     8     1     2   ar
     9     2     3   ar
    10     3     4   ar
    11     4     5   ar
    12     5     6   ar
    13     6     7   ar
    14     7     8   ar
    15     8     9   ar
    16     9    19    1
    17    19    20   ar
    18    20    21   ar
    19    21    22   ar
    20    22    25    1
    21    25    26    1
    22    26    27    2
    23    26    28   am
    24    28    30    1
    25    30    31   ar
    26    31    32   ar
    27    32    33   ar
    28    33    34   ar
    29    34    35   ar
    30    22    23   ar
    31    23    24   ar
    32    16    11   ar
    33     9     1   ar
    34    24    19   ar
    35     8     3   ar
    36    35    30   ar
    37    10    17    1
    38    10    18    1
    39    28    29    1
@<TRIPOS>MOLECULE
*****
 35 39 0 0 0
SMALL
GASTEIGER

@<TRIPOS>ATOM
      1 C           2.9193   -0.3108   19.3545 C.ar    1  UNL1        0.1515
      2 N           2.0524    0.4395   18.3874 N.ar    1  UNL1       -0.2248
      3 C           1.5219    1.6555   19.0873 C.ar    1  UNL1        0.1173
      4 C           0.6176    2.7618   18.6310 C.ar    1  UNL1        0.0238
      5 C           0.2525    3.8693   19.5744 C.ar    1  UNL1        0.0223
      6 C           0.7916    3.8705   20.9741 C.ar    1  UNL1        0.1006
      7 N           1.6959    2.7642   21.4305 N.ar    1  UNL1       -0.2248
      8 C           2.0610    1.6567   20.4871 C.ar    1  UNL1        0.1666
      9 N           2.9247    0.4415   20.6522 N.ar    1  UNL1       -0.2754
     10 N           5.1947   -0.3363   17.3994 N.pl3   1  UNL1       -0.3425
     11 C           4.7899   -1.6018   18.0958 C.ar    1  UNL1        0.1282
     12 N           5.5229   -2.8800   17.8146 N.ar    1  UNL1       -0.2295
     13 C           5.1181   -4.1454   18.5109 C.ar    1  UNL1        0.1003
     14 C           3.9805   -4.1326   19.4884 C.ar    1  UNL1        0.0209
     15 C           3.2476   -2.8544   19.7696 C.ar    1  UNL1        0.0074
     16 C           3.6523   -1.5890   19.0733 C.ar    1  UNL1        0.0657
     17 H           5.9414   -0.3447   16.7578 H       1  UNL1        0.1437
     18 H           4.7137    0.5026   17.5840 H       1  UNL1        0.1437
     19 C           3.6639    0.0477   21.8965 C.ar    1  UNL1        0.0667
     20 C           2.9135   -0.5062   23.0712 C.ar    1  UNL1        0.0173
     21 C           3.6527   -0.9000   24.3156 C.ar    1  UNL1       -0.0023
     22 C           5.1425   -0.7399   24.3853 C.ar    1  UNL1       -0.0130
     23 C           5.8931   -0.1860   23.2106 C.ar    1  UNL1       -0.0023
     24 C           5.1538    0.2078   21.9662 C.ar    1  UNL1        0.0173
     25 C           5.8818   -1.1338   25.6296 C.3     1  UNL1        0.1116
     26 C           6.6397   -2.4274   25.6740 C.2     1  UNL1        0.2305
     27 O           7.9879   -2.4846   26.3291 O.2     1  UNL1       -0.2744
     28 N           6.0494   -3.6638   25.0633 N.am    1  UNL1       -0.2836
     29 H           5.1645   -3.6262   24.6334 H       1  UNL1        0.1549
     30 C           6.8073   -4.9574   25.1077 C.ar    1  UNL1        0.0503
     31 C           6.7611   -5.8119   26.3398 C.ar    1  UNL1        0.0147
     32 C           7.5190   -7.1056   26.3842 C.ar    1  UNL1        0.0013
     33 C           8.3232   -7.5447   25.1966 C.ar    1  UNL1        0.0001
     34 C           8.3694   -6.6904   23.9646 C.ar    1  UNL1        0.0013
     35 C           7.6115   -5.3967   23.9202 C.ar    1  UNL1        0.0147
@<TRIPOS>BOND
     1    10    11    1
     2    11    12   ar
     3    12    13   ar
     4    13    14   ar
     5    14    15   ar
     6    15    16   ar
     7    16     1    1
     8     1     2   ar
     9     2     3   ar
    10     3     4   ar
    11     4     5   ar
    12     5     6   ar
    13     6     7   ar
    14     7     8   ar
    15     8     9   ar
    16     9    19    1
    17    19    20   ar
    18    20    21   ar
    19    21    22   ar
    20    22    25    1
    21    25    26    1
    22    26    27    2
    23    26    28   am
    24    28    30    1
    25    30    31   ar
    26    31    32   ar
    27    32    33   ar
    28    33    34   ar
    29    34    35   ar
    30    22    23   ar
    31    23    24   ar
    32    16    11   ar
    33     9     1   ar
    34    24    19   ar
    35     8     3   ar
    36    35    30   ar
    37    10    17    1
    38    10    18    1
    39    28    29    1
@<TRIPOS>MOLECULE
*****
 35 39 0 0 0
SMALL
GASTEIGER

@<TRIPOS>ATOM
      1 C         -19.0277    0.1087   20.3984 C.ar    1  UNL1        0.1515
      2 N         -20.0345    0.7763   21.2876 N.ar    1  UNL1       -0.2248
      3 C         -19.3125    1.7873   22.1282 C.ar    1  UNL1        0.1173
      4 C         -19.7904    2.7413   23.1824 C.ar    1  UNL1        0.0238
      5 C         -18.8153    3.6525   23.8669 C.ar    1  UNL1        0.0223
      6 C         -17.3622    3.6098   23.4973 C.ar    1  UNL1        0.1006
      7 N         -16.8842    2.6558   22.4430 N.ar    1  UNL1       -0.2248
      8 C         -17.8594    1.7446   21.7585 C.ar    1  UNL1        0.1666
      9 N         -17.6834    0.7072   20.6895 N.ar    1  UNL1       -0.2754
     10 N         -19.0925   -2.7648   21.2582 N.pl3   1  UNL1       -0.3425
     11 C         -19.3472   -2.4049   19.8243 C.ar    1  UNL1        0.1282
     12 N         -19.6342   -3.4818   18.8204 N.ar    1  UNL1       -0.2295
     13 C         -19.8889   -3.1220   17.3867 C.ar    1  UNL1        0.1003
     14 C         -19.8566   -1.6853   16.9569 C.ar    1  UNL1        0.0209
     15 C         -19.5695   -0.6084   17.9608 C.ar    1  UNL1        0.0074
     16 C         -19.3148   -0.9682   19.3945 C.ar    1  UNL1        0.0657
     17 H         -19.1137   -3.7077   21.5403 H       1  UNL1        0.1437
     18 H         -18.9040   -2.0580   21.9171 H       1  UNL1        0.1437
     19 C         -16.3901    0.3337   20.0277 C.ar    1  UNL1        0.0667
     20 C         -15.5908    1.3751   19.3022 C.ar    1  UNL1        0.0173
     21 C         -14.2975    1.0017   18.6404 C.ar    1  UNL1       -0.0023
     22 C         -13.8035   -0.4132   18.7041 C.ar    1  UNL1       -0.0130
     23 C         -14.6029   -1.4547   19.4296 C.ar    1  UNL1       -0.0023
     24 C         -15.8962   -1.0812   20.0914 C.ar    1  UNL1        0.0173
     25 C         -12.5102   -0.7866   18.0423 C.3     1  UNL1        0.1116
     26 C         -12.1209   -2.2298   17.9174 C.2     1  UNL1        0.2305
     27 O         -12.2603   -2.9329   16.5998 O.2     1  UNL1       -0.2744
     28 N         -11.5922   -2.9698   19.1103 N.am    1  UNL1       -0.2836
     29 H         -11.5008   -2.5083   19.9751 H       1  UNL1        0.1549
     30 C         -11.2029   -4.4130   18.9855 C.ar    1  UNL1        0.0503
     31 C          -9.7544   -4.8028   18.9969 C.ar    1  UNL1        0.0147
     32 C          -9.3651   -6.2460   18.8720 C.ar    1  UNL1        0.0013
     33 C         -10.4243   -7.2994   18.7357 C.ar    1  UNL1        0.0001
     34 C         -11.8727   -6.9097   18.7243 C.ar    1  UNL1        0.0013
     35 C         -12.2621   -5.4665   18.8492 C.ar    1  UNL1        0.0147
@<TRIPOS>BOND
     1    10    11    1
     2    11    12   ar
     3    12    13   ar
     4    13    14   ar
     5    14    15   ar
     6    15    16   ar
     7    16     1    1
     8     1     2   ar
     9     2     3   ar
    10     3     4   ar
    11     4     5   ar
    12     5     6   ar
    13     6     7   ar
    14     7     8   ar
    15     8     9   ar
    16     9    19    1
    17    19    20   ar
    18    20    21   ar
    19    21    22   ar
    20    22    25    1
    21    25    26    1
    22    26    27    2
    23    26    28   am
    24    28    30    1
    25    30    31   ar
    26    31    32   ar
    27    32    33   ar
    28    33    34   ar
    29    34    35   ar
    30    22    23   ar
    31    23    24   ar
    32    16    11   ar
    33     9     1   ar
    34    24    19   ar
    35     8     3   ar
    36    35    30   ar
    37    10    17    1
    38    10    18    1
    39    28    29    1
@<TRIPOS>MOLECULE
*****
 35 39 0 0 0
SMALL
GASTEIGER

@<TRIPOS>ATOM
      1 C           2.4631   -0.1490   29.9116 C.ar    1  UNL1        0.1515
      2 N           2.4916   -0.5494   31.3569 N.ar    1  UNL1       -0.2248
      3 C           3.8127   -1.2051   31.6303 C.ar    1  UNL1        0.1173
      4 C           4.3999   -1.7984   32.8766 C.ar    1  UNL1        0.0238
      5 C           5.7751   -2.3966   32.8465 C.ar    1  UNL1        0.0223
      6 C           6.5631   -2.4015   31.5701 C.ar    1  UNL1        0.1006
      7 N           5.9759   -1.8082   30.3239 N.ar    1  UNL1       -0.2248
      8 C           4.6006   -1.2101   30.3540 C.ar    1  UNL1        0.1666
      9 N           3.7665   -0.5573   29.2918 N.ar    1  UNL1       -0.2754
     10 N           2.5996    2.7996   29.3756 N.pl3   1  UNL1       -0.3425
     11 C           1.3983    2.0131   28.9415 C.ar    1  UNL1        0.1282
     12 N           0.2652    2.7010   28.2393 N.ar    1  UNL1       -0.2295
     13 C          -0.9361    1.9146   27.8052 C.ar    1  UNL1        0.1003
     14 C          -1.0043    0.4404   28.0732 C.ar    1  UNL1        0.0209
     15 C           0.1287   -0.2475   28.7753 C.ar    1  UNL1        0.0074
     16 C           1.3300    0.5389   29.2095 C.ar    1  UNL1        0.0657
     17 H           2.6444    3.7672   29.1997 H       1  UNL1        0.1437
     18 H           3.3432    2.3481   29.8365 H       1  UNL1        0.1437
     19 C           4.1659   -0.3494   27.8610 C.ar    1  UNL1        0.0667
     20 C           5.0264    0.8200   27.4848 C.ar    1  UNL1        0.0173
     21 C           5.4258    1.0279   26.0539 C.ar    1  UNL1       -0.0023
     22 C           4.9645    0.0663   24.9992 C.ar    1  UNL1       -0.0130
     23 C           4.1039   -1.1033   25.3753 C.ar    1  UNL1       -0.0023
     24 C           3.7045   -1.3112   26.8062 C.ar    1  UNL1        0.0173
     25 C           5.3638    0.2742   23.5683 C.3     1  UNL1        0.1116
     26 C           4.8735   -0.6673   22.5085 C.2     1  UNL1        0.2305
     27 O           3.4816   -0.5280   21.9672 O.2     1  UNL1       -0.2744
     28 N           5.7753   -1.7480   21.9899 N.am    1  UNL1       -0.2836
     29 H           6.6889   -1.8394   22.3452 H       1  UNL1        0.1549
     30 C           5.2851   -2.6894   20.9301 C.ar    1  UNL1        0.0503
     31 C           4.4480   -3.8751   21.3090 C.ar    1  UNL1        0.0147
     32 C           3.9577   -4.8166   20.2491 C.ar    1  UNL1        0.0013
     33 C           4.3046   -4.5723   18.8103 C.ar    1  UNL1        0.0001
     34 C           5.1416   -3.3867   18.4314 C.ar    1  UNL1        0.0013
     35 C           5.6319   -2.4453   19.4913 C.ar    1  UNL1        0.0147
@<TRIPOS>BOND
     1    10    11    1
     2    11    12   ar
     3    12    13   ar
     4    13    14   ar
     5    14    15   ar
     6    15    16   ar
     7    16     1    1
     8     1     2   ar
     9     2     3   ar
    10     3     4   ar
    11     4     5   ar
    12     5     6   ar
    13     6     7   ar
    14     7     8   ar
    15     8     9   ar
    16     9    19    1
    17    19    20   ar
    18    20    21   ar
    19    21    22   ar
    20    22    25    1
    21    25    26    1
    22    26    27    2
    23    26    28   am
    24    28    30    1
    25    30    31   ar
    26    31    32   ar
    27    32    33   ar
    28    33    34   ar
    29    34    35   ar
    30    22    23   ar
    31    23    24   ar
    32    16    11   ar
    33     9     1   ar
    34    24    19   ar
    35     8     3   ar
    36    35    30   ar
    37    10    17    1
    38    10    18    1
    39    28    29    1
@<TRIPOS>MOLECULE
*****
 35 39 0 0 0
SMALL
GASTEIGER

@<TRIPOS>ATOM
      1 C           3.9368   -1.1978   22.4461 C.ar    1  UNL1        0.1515
      2 N           4.6408   -1.8078   23.6218 N.ar    1  UNL1       -0.2248
      3 C           4.0567   -1.2158   24.8701 C.ar    1  UNL1        0.1173
      4 C           4.3570   -1.4393   26.3226 C.ar    1  UNL1        0.0238
      5 C           3.5923   -0.6868   27.3710 C.ar    1  UNL1        0.0223
      6 C           2.5273    0.2891   26.9668 C.ar    1  UNL1        0.1006
      7 N           2.2270    0.5126   25.5143 N.ar    1  UNL1       -0.2248
      8 C           2.9917   -0.2399   24.4659 C.ar    1  UNL1        0.1666
      9 N           2.9176   -0.2288   22.9678 N.ar    1  UNL1       -0.2754
     10 N           5.4828    0.7463   20.7637 N.pl3   1  UNL1       -0.3425
     11 C           4.9779   -0.5312   20.1610 C.ar    1  UNL1        0.1282
     12 N           5.2460   -0.8366   18.7171 N.ar    1  UNL1       -0.2295
     13 C           4.7412   -2.1140   18.1144 C.ar    1  UNL1        0.1003
     14 C           3.9682   -3.0860   18.9556 C.ar    1  UNL1        0.0209
     15 C           3.7001   -2.7806   20.3995 C.ar    1  UNL1        0.0074
     16 C           4.2049   -1.5032   21.0022 C.ar    1  UNL1        0.0657
     17 H           5.9901    1.3843   20.2115 H       1  UNL1        0.1437
     18 H           5.3068    0.9468   21.7113 H       1  UNL1        0.1437
     19 C           1.9876    0.6050   22.1372 C.ar    1  UNL1        0.0667
     20 C           1.9711    2.0962   22.2981 C.ar    1  UNL1        0.0173
     21 C           1.0410    2.9300   21.4676 C.ar    1  UNL1       -0.0023
     22 C           0.1275    2.2726   20.4760 C.ar    1  UNL1       -0.0130
     23 C           0.1440    0.7813   20.3151 C.ar    1  UNL1       -0.0023
     24 C           1.0740   -0.0525   21.1456 C.ar    1  UNL1        0.0173
     25 C          -0.8025    3.1064   19.6454 C.3     1  UNL1        0.1116
     26 C          -2.0552    3.6642   20.2535 C.2     1  UNL1        0.2305
     27 O          -2.1557    5.1309   20.5509 O.2     1  UNL1       -0.2744
     28 N          -3.2072    2.7551   20.5642 N.am    1  UNL1       -0.2836
     29 H          -3.1412    1.7924   20.3689 H       1  UNL1        0.1549
     30 C          -4.4598    3.3129   21.1722 C.ar    1  UNL1        0.0503
     31 C          -5.4970    3.9537   20.2981 C.ar    1  UNL1        0.0147
     32 C          -6.7496    4.5114   20.9062 C.ar    1  UNL1        0.0013
     33 C          -6.9651    4.4285   22.3884 C.ar    1  UNL1        0.0001
     34 C          -5.9280    3.7878   23.2624 C.ar    1  UNL1        0.0013
     35 C          -4.6754    3.2300   22.6543 C.ar    1  UNL1        0.0147
@<TRIPOS>BOND
     1    10    11    1
     2    11    12   ar
     3    12    13   ar
     4    13    14   ar
     5    14    15   ar
     6    15    16   ar
     7    16     1    1
     8     1     2   ar
     9     2     3   ar
    10     3     4   ar
    11     4     5   ar
    12     5     6   ar
    13     6     7   ar
    14     7     8   ar
    15     8     9   ar
    16     9    19    1
    17    19    20   ar
    18    20    21   ar
    19    21    22   ar
    20    22    25    1
    21    25    26    1
    22    26    27    2
    23    26    28   am
    24    28    30    1
    25    30    31   ar
    26    31    32   ar
    27    32    33   ar
    28    33    34   ar
    29    34    35   ar
    30    22    23   ar
    31    23    24   ar
    32    16    11   ar
    33     9     1   ar
    34    24    19   ar
    35     8     3   ar
    36    35    30   ar
    37    10    17    1
    38    10    18    1
    39    28    29    1
@<TRIPOS>MOLECULE
*****
 35 39 0 0 0
SMALL
GASTEIGER

@<TRIPOS>ATOM
      1 C           6.5937   -3.6456   30.8459 C.ar    1  UNL1        0.1515
      2 N           6.1084   -3.5861   32.2640 N.ar    1  UNL1       -0.2248
      3 C           5.3302   -2.3152   32.4348 C.ar    1  UNL1        0.1173
      4 C           4.6183   -1.7252   33.6159 C.ar    1  UNL1        0.0238
      5 C           3.9107   -0.4092   33.4844 C.ar    1  UNL1        0.0223
      6 C           3.9151    0.3169   32.1719 C.ar    1  UNL1        0.1006
      7 N           4.6270   -0.2731   30.9908 N.ar    1  UNL1       -0.2248
      8 C           5.3346   -1.5891   31.1223 C.ar    1  UNL1        0.1666
      9 N           6.1154   -2.4114   30.1403 N.ar    1  UNL1       -0.2754
     10 N           9.1965   -4.4452   32.1053 N.pl3   1  UNL1       -0.3425
     11 C           8.7146   -5.1459   30.8696 C.ar    1  UNL1        0.1282
     12 N           9.5342   -6.2463   30.2636 N.ar    1  UNL1       -0.2295
     13 C           9.0524   -6.9470   29.0279 C.ar    1  UNL1        0.1003
     14 C           7.7511   -6.5471   28.3982 C.ar    1  UNL1        0.0209
     15 C           6.9315   -5.4467   29.0042 C.ar    1  UNL1        0.0074
     16 C           7.4133   -4.7461   30.2399 C.ar    1  UNL1        0.0657
     17 H          10.0506   -4.7077   32.5186 H       1  UNL1        0.1437
     18 H           8.6586   -3.7230   32.5031 H       1  UNL1        0.1437
     19 C           6.3728   -2.0609   28.7047 C.ar    1  UNL1        0.0667
     20 C           7.7473   -1.6486   28.2681 C.ar    1  UNL1        0.0173
     21 C           8.0047   -1.2981   26.8325 C.ar    1  UNL1       -0.0023
     22 C           6.8875   -1.3599   25.8335 C.ar    1  UNL1       -0.0130
     23 C           5.5129   -1.7721   26.2700 C.ar    1  UNL1       -0.0023
     24 C           5.2555   -2.1226   27.7056 C.ar    1  UNL1        0.0173
     25 C           7.1449   -1.0094   24.3979 C.3     1  UNL1        0.1116
     26 C           6.7318   -1.9551   23.3093 C.2     1  UNL1        0.2305
     27 O           7.2786   -3.3516   23.2816 O.2     1  UNL1       -0.2744
     28 N           5.7720   -1.5041   22.2484 N.am    1  UNL1       -0.2836
     29 H           5.4132   -0.5875   22.2666 H       1  UNL1        0.1549
     30 C           5.3589   -2.4498   21.1598 C.ar    1  UNL1        0.0503
     31 C           5.9724   -2.3370   19.7955 C.ar    1  UNL1        0.0147
     32 C           5.5593   -3.2827   18.7069 C.ar    1  UNL1        0.0013
     33 C           4.5328   -4.3412   18.9826 C.ar    1  UNL1        0.0001
     34 C           3.9194   -4.4540   20.3468 C.ar    1  UNL1        0.0013
     35 C           4.3325   -3.5083   21.4354 C.ar    1  UNL1        0.0147
@<TRIPOS>BOND
     1    10    11    1
     2    11    12   ar
     3    12    13   ar
     4    13    14   ar
     5    14    15   ar
     6    15    16   ar
     7    16     1    1
     8     1     2   ar
     9     2     3   ar
    10     3     4   ar
    11     4     5   ar
    12     5     6   ar
    13     6     7   ar
    14     7     8   ar
    15     8     9   ar
    16     9    19    1
    17    19    20   ar
    18    20    21   ar
    19    21    22   ar
    20    22    25    1
    21    25    26    1
    22    26    27    2
    23    26    28   am
    24    28    30    1
    25    30    31   ar
    26    31    32   ar
    27    32    33   ar
    28    33    34   ar
    29    34    35   ar
    30    22    23   ar
    31    23    24   ar
    32    16    11   ar
    33     9     1   ar
    34    24    19   ar
    35     8     3   ar
    36    35    30   ar
    37    10    17    1
    38    10    18    1
    39    28    29    1
@<TRIPOS>MOLECULE
*****
 35 39 0 0 0
SMALL
GASTEIGER

@<TRIPOS>ATOM
      1 C           5.5782   -0.8897   18.2137 C.ar    1  UNL1        0.1515
      2 N           6.6868   -0.6477   17.2327 N.ar    1  UNL1       -0.2248
      3 C           6.7429    0.8244   16.9504 C.ar    1  UNL1        0.1173
      4 C           7.6332    1.6431   16.0632 C.ar    1  UNL1        0.0238
      5 C           7.4495    3.1295   15.9826 C.ar    1  UNL1        0.0223
      6 C           6.3755    3.7974   16.7891 C.ar    1  UNL1        0.1006
      7 N           5.4852    2.9788   17.6763 N.ar    1  UNL1       -0.2248
      8 C           5.6689    1.4923   17.7570 C.ar    1  UNL1        0.1666
      9 N           4.9491    0.4329   18.5377 N.ar    1  UNL1       -0.2754
     10 N           7.5673   -2.5593   19.7157 N.pl3   1  UNL1       -0.3425
     11 C           6.1647   -3.0554   19.5235 C.ar    1  UNL1        0.1282
     12 N           5.7568   -4.3863   20.0823 N.ar    1  UNL1       -0.2295
     13 C           4.3543   -4.8824   19.8901 C.ar    1  UNL1        0.1003
     14 C           3.3598   -4.0476   19.1392 C.ar    1  UNL1        0.0209
     15 C           3.7678   -2.7167   18.5803 C.ar    1  UNL1        0.0074
     16 C           5.1702   -2.2206   18.7725 C.ar    1  UNL1        0.0657
     17 H           8.2200   -3.1073   20.2086 H       1  UNL1        0.1437
     18 H           7.8350   -1.6858   19.3489 H       1  UNL1        0.1437
     19 C           3.8016    0.6568   19.4775 C.ar    1  UNL1        0.0667
     20 C           2.4342    0.9497   18.9351 C.ar    1  UNL1        0.0173
     21 C           1.2867    1.1736   19.8749 C.ar    1  UNL1       -0.0023
     22 C           1.5067    1.1046   21.3571 C.ar    1  UNL1       -0.0130
     23 C           2.8741    0.8118   21.8995 C.ar    1  UNL1       -0.0023
     24 C           4.0216    0.5878   20.9597 C.ar    1  UNL1        0.0173
     25 C           0.3592    1.3286   22.2968 C.3     1  UNL1        0.1116
     26 C           0.6216    1.7104   23.7234 C.2     1  UNL1        0.2305
     27 O           0.9787    3.1261   24.0674 O.2     1  UNL1       -0.2744
     28 N           0.5270    0.6765   24.8061 N.am    1  UNL1       -0.2836
     29 H           0.2926   -0.2527   24.5803 H       1  UNL1        0.1549
     30 C           0.7894    1.0584   26.2327 C.ar    1  UNL1        0.0503
     31 C           2.1987    1.1399   26.7403 C.ar    1  UNL1        0.0147
     32 C           2.4612    1.5218   28.1669 C.ar    1  UNL1        0.0013
     33 C           1.3144    1.8221   29.0860 C.ar    1  UNL1        0.0001
     34 C          -0.0948    1.7405   28.5785 C.ar    1  UNL1        0.0013
     35 C          -0.3573    1.3587   27.1519 C.ar    1  UNL1        0.0147
@<TRIPOS>BOND
     1    10    11    1
     2    11    12   ar
     3    12    13   ar
     4    13    14   ar
     5    14    15   ar
     6    15    16   ar
     7    16     1    1
     8     1     2   ar
     9     2     3   ar
    10     3     4   ar
    11     4     5   ar
    12     5     6   ar
    13     6     7   ar
    14     7     8   ar
    15     8     9   ar
    16     9    19    1
    17    19    20   ar
    18    20    21   ar
    19    21    22   ar
    20    22    25    1
    21    25    26    1
    22    26    27    2
    23    26    28   am
    24    28    30    1
    25    30    31   ar
    26    31    32   ar
    27    32    33   ar
    28    33    34   ar
    29    34    35   ar
    30    22    23   ar
    31    23    24   ar
    32    16    11   ar
    33     9     1   ar
    34    24    19   ar
    35     8     3   ar
    36    35    30   ar
    37    10    17    1
    38    10    18    1
    39    28    29    1
@<TRIPOS>MOLECULE
*****
 35 39 0 0 0
SMALL
GASTEIGER

@<TRIPOS>ATOM
      1 C          -0.6279    2.7700   26.0690 C.ar    1  UNL1        0.1515
      2 N          -1.7882    3.0915   26.9636 N.ar    1  UNL1       -0.2248
      3 C          -2.9341    3.5260   26.0986 C.ar    1  UNL1        0.1173
      4 C          -4.3307    3.9630   26.4278 C.ar    1  UNL1        0.0238
      5 C          -5.2753    4.3470   25.3277 C.ar    1  UNL1        0.0223
      6 C          -4.8232    4.2940   23.8984 C.ar    1  UNL1        0.1006
      7 N          -3.4266    3.8570   23.5692 N.ar    1  UNL1       -0.2248
      8 C          -2.4820    3.4730   24.6694 C.ar    1  UNL1        0.1666
      9 N          -1.0568    3.0057   24.6510 N.ar    1  UNL1       -0.2754
     10 N          -0.3701    0.2145   27.6191 N.pl3   1  UNL1       -0.3425
     11 C           0.8527    1.0182   27.2891 C.ar    1  UNL1        0.1282
     12 N           2.2044    0.5442   27.7343 N.ar    1  UNL1       -0.2295
     13 C           3.4272    1.3479   27.4043 C.ar    1  UNL1        0.1003
     14 C           3.2983    2.6256   26.6293 C.ar    1  UNL1        0.0209
     15 C           1.9465    3.0996   26.1842 C.ar    1  UNL1        0.0074
     16 C           0.7238    2.2959   26.5141 C.ar    1  UNL1        0.0657
     17 H          -0.2854   -0.6242   28.1278 H       1  UNL1        0.1437
     18 H          -1.2573    0.5256   27.3270 H       1  UNL1        0.1437
     19 C          -0.2091    2.8089   23.4293 C.ar    1  UNL1        0.0667
     20 C           0.2515    1.4328   23.0497 C.ar    1  UNL1        0.0173
     21 C           1.0991    1.2359   21.8280 C.ar    1  UNL1       -0.0023
     22 C           1.4861    2.4152   20.9856 C.ar    1  UNL1       -0.0130
     23 C           1.0255    3.7913   21.3651 C.ar    1  UNL1       -0.0023
     24 C           0.1779    3.9882   22.5869 C.ar    1  UNL1        0.0173
     25 C           2.3338    2.2183   19.7638 C.3     1  UNL1        0.1116
     26 C           2.6712    0.8321   19.3006 C.2     1  UNL1        0.2305
     27 O           1.9087    0.2140   18.1663 O.2     1  UNL1       -0.2744
     28 N           3.7713    0.0641   19.9715 N.am    1  UNL1       -0.2836
     29 H           4.2717    0.4699   20.7160 H       1  UNL1        0.1549
     30 C           4.1088   -1.3220   19.5083 C.ar    1  UNL1        0.0503
     31 C           5.3641   -1.5660   18.7241 C.ar    1  UNL1        0.0147
     32 C           5.7015   -2.9521   18.2608 C.ar    1  UNL1        0.0013
     33 C           4.7837   -4.0944   18.5817 C.ar    1  UNL1        0.0001
     34 C           3.5285   -3.8505   19.3658 C.ar    1  UNL1        0.0013
     35 C           3.1910   -2.4643   19.8291 C.ar    1  UNL1        0.0147
@<TRIPOS>BOND
     1    10    11    1
     2    11    12   ar
     3    12    13   ar
     4    13    14   ar
     5    14    15   ar
     6    15    16   ar
     7    16     1    1
     8     1     2   ar
     9     2     3   ar
    10     3     4   ar
    11     4     5   ar
    12     5     6   ar
    13     6     7   ar
    14     7     8   ar
    15     8     9   ar
    16     9    19    1
    17    19    20   ar
    18    20    21   ar
    19    21    22   ar
    20    22    25    1
    21    25    26    1
    22    26    27    2
    23    26    28   am
    24    28    30    1
    25    30    31   ar
    26    31    32   ar
    27    32    33   ar
    28    33    34   ar
    29    34    35   ar
    30    22    23   ar
    31    23    24   ar
    32    16    11   ar
    33     9     1   ar
    34    24    19   ar
    35     8     3   ar
    36    35    30   ar
    37    10    17    1
    38    10    18    1
    39    28    29    1
