@<TRIPOS>MOLECULE
*****
 38 41 0 0 0
SMALL
GASTEIGER

@<TRIPOS>ATOM
      1 C           2.2208   -0.1888   19.1095 C.3     1  UNL1        0.1532
      2 N           4.5632    0.7965   18.5687 N.am    1  UNL1       -0.2945
      3 C           3.3639   -0.0042   18.1559 C.2     1  UNL1        0.2413
      4 O           3.3076   -0.6204   16.7895 O.2     1  UNL1       -0.2733
      5 H           4.6002    1.2009   19.4656 H       1  UNL1        0.1503
      6 C           5.7063    0.9810   17.6151 C.3     1  UNL1        0.1365
      7 C           6.6625    1.6516   16.6739 C.3     1  UNL1        0.0353
      8 C           5.5652    2.4448   17.3196 C.3     1  UNL1        0.0353
      9 N           6.7823   -1.8185   17.5437 N.1     1  UNL1       -0.1943
     10 C           6.2442   -0.4187   17.5794 C.1     1  UNL1        0.0896
     11 N           1.0007    0.6762   18.9941 N.am    1  UNL1       -0.2932
     12 C           0.7497    1.7574   20.0031 C.2     1  UNL1        0.2673
     13 O           1.7187    1.9737   21.1274 O.2     1  UNL1       -0.2684
     14 H           0.3647    0.5342   18.2561 H       1  UNL1        0.1502
     15 C          -0.4704    2.6223   19.8876 C.ar    1  UNL1        0.1767
     16 C          -0.6710    3.7371   18.9043 C.ar    1  UNL1        0.1476
     17 N          -2.0287    4.3281   19.1442 N.ar    1  UNL1       -0.1445
     18 N          -2.6671    3.5786   20.2758 N.ar    1  UNL1       -0.1462
     19 N          -1.7040    2.5243   20.7354 N.ar    1  UNL1       -0.1417
     20 C          -4.0294    3.8377   20.8476 C.ar    1  UNL1        0.1220
     21 C          -5.1437    4.2944   19.9533 C.ar    1  UNL1        0.0241
     22 C          -6.5060    4.5536   20.5251 C.ar    1  UNL1        0.0223
     23 C          -6.7540    4.3560   21.9912 C.ar    1  UNL1        0.0990
     24 N          -5.6397    3.8994   22.8855 N.ar    1  UNL1       -0.2407
     25 C          -4.2774    3.6402   22.3137 C.ar    1  UNL1        0.1197
     26 C           2.2978   -1.2382   20.1785 C.3     1  UNL1        0.0553
     27 C           3.4952   -2.1379   20.2615 C.ar    1  UNL1       -0.0190
     28 C           4.6296   -1.7937   21.1805 C.ar    1  UNL1       -0.0010
     29 C           5.8270   -2.6934   21.2634 C.ar    1  UNL1        0.0377
     30 C           5.8899   -3.9372   20.4273 C.ar    1  UNL1        0.1572
     31 C           4.7555   -4.2813   19.5083 C.ar    1  UNL1        0.0915
     32 CL          4.8185   -5.5251   18.6722 Cl      1  UNL1       -0.0791
     33 C           3.5582   -3.3816   19.4254 C.ar    1  UNL1        0.0103
     34 O           7.0874   -4.8368   20.5103 O.3     1  UNL1       -0.4036
     35 C           8.2999   -4.4026   21.2792 C.3     1  UNL1        0.5753
     36 F           9.5124   -3.9684   22.0482 F       1  UNL1       -0.1328
     37 F           7.7500   -5.0532   22.5138 F       1  UNL1       -0.1328
     38 F           8.8498   -3.7520   20.0446 F       1  UNL1       -0.1328
@<TRIPOS>BOND
     1     9    10    3
     2    10     6    1
     3     6     2    1
     4     2     3   am
     5     3     4    2
     6     3     1    1
     7     1    26    1
     8    26    27    1
     9    27    28   ar
    10    28    29   ar
    11    29    30   ar
    12    30    34    1
    13    34    35    1
    14    35    36    1
    15    35    37    1
    16    35    38    1
    17    30    31   ar
    18    31    32    1
    19    31    33   ar
    20     1    11    1
    21    11    12   am
    22    12    13    2
    23    12    15    1
    24    15    16   ar
    25    16    17   ar
    26    17    18   ar
    27    18    20    1
    28    20    21   ar
    29    21    22   ar
    30    22    23   ar
    31    23    24   ar
    32    24    25   ar
    33    18    19   ar
    34     6     7    1
    35     7     8    1
    36     8     6    1
    37    33    27   ar
    38    19    15   ar
    39    25    20   ar
    40     2     5    1
    41    11    14    1
@<TRIPOS>MOLECULE
*****
 38 41 0 0 0
SMALL
GASTEIGER

@<TRIPOS>ATOM
      1 C           3.5381    0.1436   25.4068 C.3     1  UNL1        0.1532
      2 N           1.0211    0.5508   25.9061 N.am    1  UNL1       -0.2945
      3 C           2.4592    0.9416   26.0772 C.2     1  UNL1        0.2413
      4 O           2.8184    2.1303   26.9186 O.2     1  UNL1       -0.2733
      5 H           0.7854   -0.2294   25.3539 H       1  UNL1        0.1503
      6 C          -0.0577    1.3487   26.5765 C.3     1  UNL1        0.1365
      7 C          -1.1185    2.3884   26.7857 C.3     1  UNL1        0.0353
      8 C          -0.3804    2.3219   25.4815 C.3     1  UNL1        0.0353
      9 N          -0.1616   -0.0431   29.2320 N.1     1  UNL1       -0.1943
     10 C          -0.1096    0.6528   27.9042 C.1     1  UNL1        0.0896
     11 N           4.0927   -1.0787   26.0764 N.am    1  UNL1       -0.2932
     12 C           5.2889   -0.9645   26.9744 C.2     1  UNL1        0.2673
     13 O           5.9303    0.3721   27.2028 O.2     1  UNL1       -0.2684
     14 H           3.6718   -1.9559   25.9264 H       1  UNL1        0.1502
     15 C           5.8435   -2.1868   27.6439 C.ar    1  UNL1        0.1767
     16 C           6.0740   -2.3578   29.1162 C.ar    1  UNL1        0.1476
     17 N           6.6380   -3.7294   29.3409 N.ar    1  UNL1       -0.1445
     18 N           6.7561   -4.4062   28.0074 N.ar    1  UNL1       -0.1462
     19 N           6.2651   -3.4528   26.9586 N.ar    1  UNL1       -0.1417
     20 C           7.2743   -5.7929   27.7653 C.ar    1  UNL1        0.1220
     21 C           6.8779   -6.5355   26.5238 C.ar    1  UNL1        0.0241
     22 C           7.3961   -7.9222   26.2816 C.ar    1  UNL1        0.0223
     23 C           8.3106   -8.5662   27.2810 C.ar    1  UNL1        0.0990
     24 N           8.7070   -7.8235   28.5225 N.ar    1  UNL1       -0.2407
     25 C           8.1889   -6.4369   28.7647 C.ar    1  UNL1        0.1197
     26 C           4.0623    0.5680   24.0671 C.3     1  UNL1        0.0553
     27 C           3.8400   -0.3013   22.8650 C.ar    1  UNL1       -0.0190
     28 C           4.8543   -1.3425   22.4945 C.ar    1  UNL1       -0.0010
     29 C           4.6320   -2.2118   21.2925 C.ar    1  UNL1        0.0377
     30 C           3.3954   -2.0399   20.4610 C.ar    1  UNL1        0.1572
     31 C           2.3812   -0.9988   20.8315 C.ar    1  UNL1        0.0915
     32 CL          1.1446   -0.8270   20.0000 Cl      1  UNL1       -0.0791
     33 C           2.6035   -0.1295   22.0335 C.ar    1  UNL1        0.0103
     34 O           3.1732   -2.9093   19.2589 O.3     1  UNL1       -0.4036
     35 C           4.0543   -4.0996   19.0210 C.3     1  UNL1        0.5753
     36 F           4.9355   -5.2900   18.7830 F       1  UNL1       -0.1328
     37 F           3.1753   -4.9281   19.9102 F       1  UNL1       -0.1328
     38 F           4.9333   -3.2711   18.1317 F       1  UNL1       -0.1328
@<TRIPOS>BOND
     1     9    10    3
     2    10     6    1
     3     6     2    1
     4     2     3   am
     5     3     4    2
     6     3     1    1
     7     1    26    1
     8    26    27    1
     9    27    28   ar
    10    28    29   ar
    11    29    30   ar
    12    30    34    1
    13    34    35    1
    14    35    36    1
    15    35    37    1
    16    35    38    1
    17    30    31   ar
    18    31    32    1
    19    31    33   ar
    20     1    11    1
    21    11    12   am
    22    12    13    2
    23    12    15    1
    24    15    16   ar
    25    16    17   ar
    26    17    18   ar
    27    18    20    1
    28    20    21   ar
    29    21    22   ar
    30    22    23   ar
    31    23    24   ar
    32    24    25   ar
    33    18    19   ar
    34     6     7    1
    35     7     8    1
    36     8     6    1
    37    33    27   ar
    38    19    15   ar
    39    25    20   ar
    40     2     5    1
    41    11    14    1
@<TRIPOS>MOLECULE
*****
 38 41 0 0 0
SMALL
GASTEIGER

@<TRIPOS>ATOM
      1 C           3.1279   -0.4457   22.2929 C.3     1  UNL1        0.1532
      2 N           4.2482   -0.7054   19.9632 N.am    1  UNL1       -0.2945
      3 C           3.0292   -0.7804   20.8340 C.2     1  UNL1        0.2413
      4 O           1.7115   -1.1901   20.2461 O.2     1  UNL1       -0.2733
      5 H           5.1131   -0.4365   20.3491 H       1  UNL1        0.1503
      6 C           4.1494   -1.0402   18.5044 C.3     1  UNL1        0.1365
      7 C           3.9277   -0.8689   17.0308 C.3     1  UNL1        0.0353
      8 C           3.7609    0.3006   17.9552 C.3     1  UNL1        0.0353
      9 N           4.8578   -3.9541   18.5894 N.1     1  UNL1       -0.1943
     10 C           4.5036   -2.4971   18.5469 C.1     1  UNL1        0.0896
     11 N           3.6875   -1.4498   23.2566 N.am    1  UNL1       -0.2932
     12 C           5.1726   -1.6064   23.3985 C.2     1  UNL1        0.2673
     13 O           6.0980   -0.7589   22.5768 O.2     1  UNL1       -0.2684
     14 H           3.0800   -2.0061   23.7959 H       1  UNL1        0.1502
     15 C           5.7321   -2.6105   24.3622 C.ar    1  UNL1        0.1767
     16 C           6.4061   -3.9005   23.9992 C.ar    1  UNL1        0.1476
     17 N           6.8064   -4.5882   25.2707 N.ar    1  UNL1       -0.1445
     18 N           6.3799   -3.7233   26.4196 N.ar    1  UNL1       -0.1462
     19 N           5.7159   -2.5010   25.8582 N.ar    1  UNL1       -0.1417
     20 C           6.5818   -4.0272   27.8745 C.ar    1  UNL1        0.1220
     21 C           6.6417   -2.9094   28.8730 C.ar    1  UNL1        0.0241
     22 C           6.8436   -3.2134   30.3279 C.ar    1  UNL1        0.0223
     23 C           6.9857   -4.6351   30.7844 C.ar    1  UNL1        0.0990
     24 N           6.9258   -5.7529   29.7859 N.ar    1  UNL1       -0.2407
     25 C           6.7239   -5.4490   28.3310 C.ar    1  UNL1        0.1197
     26 C           2.6671    0.8931   22.7881 C.3     1  UNL1        0.0553
     27 C           2.0328    1.0144   24.1420 C.ar    1  UNL1       -0.0190
     28 C           0.5412    1.1143   24.2652 C.ar    1  UNL1       -0.0010
     29 C          -0.0930    1.2355   25.6190 C.ar    1  UNL1        0.0377
     30 C           0.7643    1.2569   26.8497 C.ar    1  UNL1        0.1572
     31 C           2.2559    1.1570   26.7265 C.ar    1  UNL1        0.0915
     32 CL          3.1132    1.1784   27.9572 Cl      1  UNL1       -0.0791
     33 C           2.8901    1.0357   25.3727 C.ar    1  UNL1        0.0103
     34 O           0.1300    1.3781   28.2036 O.3     1  UNL1       -0.4036
     35 C          -0.8254    0.3250   28.6813 C.3     1  UNL1        0.5753
     36 F          -1.7808   -0.7281   29.1589 F       1  UNL1       -0.1328
     37 F          -1.9814    1.2110   28.3225 F       1  UNL1       -0.1328
     38 F           0.3306   -0.5609   29.0401 F       1  UNL1       -0.1328
@<TRIPOS>BOND
     1     9    10    3
     2    10     6    1
     3     6     2    1
     4     2     3   am
     5     3     4    2
     6     3     1    1
     7     1    26    1
     8    26    27    1
     9    27    28   ar
    10    28    29   ar
    11    29    30   ar
    12    30    34    1
    13    34    35    1
    14    35    36    1
    15    35    37    1
    16    35    38    1
    17    30    31   ar
    18    31    32    1
    19    31    33   ar
    20     1    11    1
    21    11    12   am
    22    12    13    2
    23    12    15    1
    24    15    16   ar
    25    16    17   ar
    26    17    18   ar
    27    18    20    1
    28    20    21   ar
    29    21    22   ar
    30    22    23   ar
    31    23    24   ar
    32    24    25   ar
    33    18    19   ar
    34     6     7    1
    35     7     8    1
    36     8     6    1
    37    33    27   ar
    38    19    15   ar
    39    25    20   ar
    40     2     5    1
    41    11    14    1
@<TRIPOS>MOLECULE
*****
 38 41 0 0 0
SMALL
GASTEIGER

@<TRIPOS>ATOM
      1 C           2.2734    0.5079   24.5115 C.3     1  UNL1        0.1532
      2 N           2.0198    1.5877   26.8609 N.am    1  UNL1       -0.2945
      3 C           1.4108    1.1322   25.5680 C.2     1  UNL1        0.2413
      4 O          -0.0608    1.3011   25.3316 O.2     1  UNL1       -0.2733
      5 H           2.9857    1.4769   27.0161 H       1  UNL1        0.1503
      6 C           1.1572    2.2120   27.9174 C.3     1  UNL1        0.1365
      7 C           0.4388    3.2625   28.7112 C.3     1  UNL1        0.0353
      8 C           1.2728    3.6561   27.5281 C.3     1  UNL1        0.0353
      9 N           0.3269   -0.2423   29.4296 N.1     1  UNL1       -0.1943
     10 C           0.7421    0.9849   28.6735 C.1     1  UNL1        0.0896
     11 N           3.0864   -0.7115   24.8310 N.am    1  UNL1       -0.2932
     12 C           4.4330   -0.5671   25.4761 C.2     1  UNL1        0.2673
     13 O           4.9665    0.7965   25.8015 O.2     1  UNL1       -0.2684
     14 H           2.7363   -1.6065   24.6175 H       1  UNL1        0.1502
     15 C           5.2461   -1.7865   25.7956 C.ar    1  UNL1        0.1767
     16 C           5.6973   -2.2123   27.1613 C.ar    1  UNL1        0.1476
     17 N           6.4808   -3.4831   27.0154 N.ar    1  UNL1       -0.1445
     18 N           6.5138   -3.8427   25.5595 N.ar    1  UNL1       -0.1462
     19 N           5.7507   -2.7941   24.8056 N.ar    1  UNL1       -0.1417
     20 C           7.1910   -5.0405   24.9622 C.ar    1  UNL1        0.1220
     21 C           7.4076   -6.2710   25.7922 C.ar    1  UNL1        0.0241
     22 C           8.0848   -7.4688   25.1949 C.ar    1  UNL1        0.0223
     23 C           8.5453   -7.4360   23.7678 C.ar    1  UNL1        0.0990
     24 N           8.3287   -6.2055   22.9378 N.ar    1  UNL1       -0.2407
     25 C           7.6515   -5.0077   23.5351 C.ar    1  UNL1        0.1197
     26 C           2.3229    1.1029   23.1354 C.3     1  UNL1        0.0553
     27 C           2.7076    0.2500   21.9629 C.ar    1  UNL1       -0.0190
     28 C           1.6445   -0.3714   21.1066 C.ar    1  UNL1       -0.0010
     29 C           2.0293   -1.2242   19.9341 C.ar    1  UNL1        0.0377
     30 C           3.4773   -1.4555   19.6181 C.ar    1  UNL1        0.1572
     31 C           4.5404   -0.8340   20.4744 C.ar    1  UNL1        0.0915
     32 CL          5.9884   -1.0653   20.1584 Cl      1  UNL1       -0.0791
     33 C           4.1556    0.0187   21.6469 C.ar    1  UNL1        0.0103
     34 O           3.8620   -2.3083   18.4455 O.3     1  UNL1       -0.4036
     35 C           4.2961   -3.7279   18.6610 C.3     1  UNL1        0.5753
     36 F           4.7302   -5.1475   18.8765 F       1  UNL1       -0.1328
     37 F           2.9408   -4.0587   19.2119 F       1  UNL1       -0.1328
     38 F           5.6515   -3.3970   18.1100 F       1  UNL1       -0.1328
@<TRIPOS>BOND
     1     9    10    3
     2    10     6    1
     3     6     2    1
     4     2     3   am
     5     3     4    2
     6     3     1    1
     7     1    26    1
     8    26    27    1
     9    27    28   ar
    10    28    29   ar
    11    29    30   ar
    12    30    34    1
    13    34    35    1
    14    35    36    1
    15    35    37    1
    16    35    38    1
    17    30    31   ar
    18    31    32    1
    19    31    33   ar
    20     1    11    1
    21    11    12   am
    22    12    13    2
    23    12    15    1
    24    15    16   ar
    25    16    17   ar
    26    17    18   ar
    27    18    20    1
    28    20    21   ar
    29    21    22   ar
    30    22    23   ar
    31    23    24   ar
    32    24    25   ar
    33    18    19   ar
    34     6     7    1
    35     7     8    1
    36     8     6    1
    37    33    27   ar
    38    19    15   ar
    39    25    20   ar
    40     2     5    1
    41    11    14    1
@<TRIPOS>MOLECULE
*****
 38 41 0 0 0
SMALL
GASTEIGER

@<TRIPOS>ATOM
      1 C           7.5844   -3.4028   23.5045 C.3     1  UNL1        0.1532
      2 N           7.0234   -5.5825   24.8023 N.am    1  UNL1       -0.2945
      3 C           7.9450   -4.4291   24.5374 C.2     1  UNL1        0.2413
      4 O           9.2273   -4.3018   25.3053 O.2     1  UNL1       -0.2733
      5 H           6.1819   -5.6660   24.2983 H       1  UNL1        0.1503
      6 C           7.3841   -6.6087   25.8351 C.3     1  UNL1        0.1365
      7 C           7.9581   -7.8528   26.4456 C.3     1  UNL1        0.0353
      8 C           8.1237   -7.5925   24.9776 C.3     1  UNL1        0.0353
      9 N           6.1555   -5.3540   28.2674 N.1     1  UNL1       -0.1943
     10 C           6.7698   -5.9814   27.0512 C.1     1  UNL1        0.0896
     11 N           6.5911   -2.3272   23.8308 N.am    1  UNL1       -0.2932
     12 C           5.1242   -2.5793   23.6445 C.2     1  UNL1        0.2673
     13 O           4.6506   -3.9070   23.1319 O.2     1  UNL1       -0.2684
     14 H           6.9020   -1.4557   24.1673 H       1  UNL1        0.1502
     15 C           4.1310   -1.5037   23.9709 C.ar    1  UNL1        0.1767
     16 C           3.9138   -0.8838   25.3194 C.ar    1  UNL1        0.1476
     17 N           2.8291    0.1439   25.1880 N.ar    1  UNL1       -0.1445
     18 N           2.3759    0.1592   23.7582 N.ar    1  UNL1       -0.1462
     19 N           3.1805   -0.8590   23.0059 N.ar    1  UNL1       -0.1417
     20 C           1.3060    1.0384   23.1818 C.ar    1  UNL1        0.1220
     21 C           0.6813    2.1105   24.0247 C.ar    1  UNL1        0.0241
     22 C          -0.3887    2.9896   23.4483 C.ar    1  UNL1        0.0223
     23 C          -0.8339    2.7968   22.0290 C.ar    1  UNL1        0.0990
     24 N          -0.2092    1.7247   21.1861 N.ar    1  UNL1       -0.2407
     25 C           0.8607    0.8455   21.7625 C.ar    1  UNL1        0.1197
     26 C           8.2170   -3.4522   22.1453 C.3     1  UNL1        0.0553
     27 C           7.4153   -3.0869   20.9312 C.ar    1  UNL1       -0.0190
     28 C           7.6135   -1.7527   20.2751 C.ar    1  UNL1       -0.0010
     29 C           6.8119   -1.3875   19.0611 C.ar    1  UNL1        0.0377
     30 C           5.8120   -2.3565   18.5031 C.ar    1  UNL1        0.1572
     31 C           5.6138   -3.6907   19.1592 C.ar    1  UNL1        0.0915
     32 CL          4.6140   -4.6598   18.6012 Cl      1  UNL1       -0.0791
     33 C           6.4155   -4.0559   20.3732 C.ar    1  UNL1        0.0103
     34 O           5.0104   -1.9912   17.2890 O.3     1  UNL1       -0.4036
     35 C           4.0157   -0.8705   17.3563 C.3     1  UNL1        0.5753
     36 F           3.0210    0.2503   17.4236 F       1  UNL1       -0.1328
     37 F           4.7701   -0.1368   16.2875 F       1  UNL1       -0.1328
     38 F           3.2613   -1.6043   18.4251 F       1  UNL1       -0.1328
@<TRIPOS>BOND
     1     9    10    3
     2    10     6    1
     3     6     2    1
     4     2     3   am
     5     3     4    2
     6     3     1    1
     7     1    26    1
     8    26    27    1
     9    27    28   ar
    10    28    29   ar
    11    29    30   ar
    12    30    34    1
    13    34    35    1
    14    35    36    1
    15    35    37    1
    16    35    38    1
    17    30    31   ar
    18    31    32    1
    19    31    33   ar
    20     1    11    1
    21    11    12   am
    22    12    13    2
    23    12    15    1
    24    15    16   ar
    25    16    17   ar
    26    17    18   ar
    27    18    20    1
    28    20    21   ar
    29    21    22   ar
    30    22    23   ar
    31    23    24   ar
    32    24    25   ar
    33    18    19   ar
    34     6     7    1
    35     7     8    1
    36     8     6    1
    37    33    27   ar
    38    19    15   ar
    39    25    20   ar
    40     2     5    1
    41    11    14    1
@<TRIPOS>MOLECULE
*****
 38 41 0 0 0
SMALL
GASTEIGER

@<TRIPOS>ATOM
      1 C           7.9220   -3.3373   23.3839 C.3     1  UNL1        0.1532
      2 N           7.1864   -5.4976   24.6257 N.am    1  UNL1       -0.2945
      3 C           8.1951   -4.4118   24.3943 C.2     1  UNL1        0.2413
      4 O           9.4768   -4.4005   25.1734 O.2     1  UNL1       -0.2733
      5 H           6.3451   -5.5050   24.1143 H       1  UNL1        0.1503
      6 C           7.4594   -6.5720   25.6361 C.3     1  UNL1        0.1365
      7 C           7.9508   -7.8611   26.2250 C.3     1  UNL1        0.0353
      8 C           8.1827   -7.5632   24.7732 C.3     1  UNL1        0.0353
      9 N           6.2026   -5.3360   28.0636 N.1     1  UNL1       -0.1943
     10 C           6.8311   -5.9540   26.8498 C.1     1  UNL1        0.0896
     11 N           7.1259   -2.1270   23.7727 N.am    1  UNL1       -0.2932
     12 C           5.6278   -2.1949   23.8100 C.2     1  UNL1        0.2673
     13 O           4.9260   -3.4731   23.4584 O.2     1  UNL1       -0.2684
     14 H           7.5865   -1.2880   24.0035 H       1  UNL1        0.1502
     15 C           4.8316   -0.9845   24.1988 C.ar    1  UNL1        0.1767
     16 C           5.1870    0.4403   23.8928 C.ar    1  UNL1        0.1476
     17 N           4.1153    1.3189   24.4668 N.ar    1  UNL1       -0.1445
     18 N           3.0975    0.4371   25.1276 N.ar    1  UNL1       -0.1462
     19 N           3.5402   -0.9865   24.9620 N.ar    1  UNL1       -0.1417
     20 C           1.8552    0.8979   25.8306 C.ar    1  UNL1        0.1220
     21 C           0.6523    1.3101   25.0349 C.ar    1  UNL1        0.0241
     22 C          -0.5901    1.7710   25.7379 C.ar    1  UNL1        0.0223
     23 C          -0.6295    1.8196   27.2366 C.ar    1  UNL1        0.0990
     24 N           0.5735    1.4074   28.0323 N.ar    1  UNL1       -0.2407
     25 C           1.8158    0.9466   27.3293 C.ar    1  UNL1        0.1197
     26 C           8.4452   -3.4731   21.9847 C.3     1  UNL1        0.0553
     27 C           7.5724   -3.1121   20.8193 C.ar    1  UNL1       -0.0190
     28 C           7.7930   -1.8207   20.0888 C.ar    1  UNL1       -0.0010
     29 C           6.9203   -1.4597   18.9235 C.ar    1  UNL1        0.0377
     30 C           5.8270   -2.3901   18.4886 C.ar    1  UNL1        0.1572
     31 C           5.6065   -3.6815   19.2191 C.ar    1  UNL1        0.0915
     32 CL          4.5132   -4.6119   18.7842 Cl      1  UNL1       -0.0791
     33 C           6.4792   -4.0425   20.3844 C.ar    1  UNL1        0.0103
     34 O           4.9543   -2.0291   17.3232 O.3     1  UNL1       -0.4036
     35 C           3.9986   -0.8780   17.4302 C.3     1  UNL1        0.5753
     36 F           3.0428    0.2732   17.5372 F       1  UNL1       -0.1328
     37 F           3.2972   -1.5656   18.5638 F       1  UNL1       -0.1328
     38 F           4.7000   -0.1903   16.2966 F       1  UNL1       -0.1328
@<TRIPOS>BOND
     1     9    10    3
     2    10     6    1
     3     6     2    1
     4     2     3   am
     5     3     4    2
     6     3     1    1
     7     1    26    1
     8    26    27    1
     9    27    28   ar
    10    28    29   ar
    11    29    30   ar
    12    30    34    1
    13    34    35    1
    14    35    36    1
    15    35    37    1
    16    35    38    1
    17    30    31   ar
    18    31    32    1
    19    31    33   ar
    20     1    11    1
    21    11    12   am
    22    12    13    2
    23    12    15    1
    24    15    16   ar
    25    16    17   ar
    26    17    18   ar
    27    18    20    1
    28    20    21   ar
    29    21    22   ar
    30    22    23   ar
    31    23    24   ar
    32    24    25   ar
    33    18    19   ar
    34     6     7    1
    35     7     8    1
    36     8     6    1
    37    33    27   ar
    38    19    15   ar
    39    25    20   ar
    40     2     5    1
    41    11    14    1
@<TRIPOS>MOLECULE
*****
 38 41 0 0 0
SMALL
GASTEIGER

@<TRIPOS>ATOM
      1 C           6.4968   -3.7350   24.3266 C.3     1  UNL1        0.1532
      2 N           6.5142   -5.6447   26.0880 N.am    1  UNL1       -0.2945
      3 C           7.2409   -4.5864   25.3123 C.2     1  UNL1        0.2413
      4 O           8.7116   -4.3793   25.5223 O.2     1  UNL1       -0.2733
      5 H           5.5489   -5.7806   25.9502 H       1  UNL1        0.1503
      6 C           7.2583   -6.4960   27.0737 C.3     1  UNL1        0.1365
      7 C           8.0857   -7.6200   27.6234 C.3     1  UNL1        0.0353
      8 C           7.7568   -7.5766   26.1605 C.3     1  UNL1        0.0353
      9 N           6.7782   -4.9263   29.5847 N.1     1  UNL1       -0.1943
     10 C           7.0183   -5.7112   28.3292 C.1     1  UNL1        0.0896
     11 N           5.4312   -2.7931   24.8032 N.am    1  UNL1       -0.2932
     12 C           5.8068   -1.4378   25.3250 C.2     1  UNL1        0.2673
     13 O           7.2480   -1.0245   25.3701 O.2     1  UNL1       -0.2684
     14 H           4.4853   -3.0643   24.7736 H       1  UNL1        0.1502
     15 C           4.7412   -0.4958   25.8016 C.ar    1  UNL1        0.1767
     16 C           4.7224    0.9901   25.5978 C.ar    1  UNL1        0.1476
     17 N           3.4768    1.5299   26.2360 N.ar    1  UNL1       -0.1445
     18 N           2.7258    0.3775   26.8342 N.ar    1  UNL1       -0.1462
     19 N           3.5071   -0.8745   26.5658 N.ar    1  UNL1       -0.1417
     20 C           1.4222    0.4621   27.5714 C.ar    1  UNL1        0.1220
     21 C           0.2886    1.2620   27.0012 C.ar    1  UNL1        0.0241
     22 C          -1.0150    1.3467   27.7385 C.ar    1  UNL1        0.0223
     23 C          -1.1850    0.6313   29.0459 C.ar    1  UNL1        0.0990
     24 N          -0.0514   -0.1686   29.6161 N.ar    1  UNL1       -0.2407
     25 C           1.2522   -0.2532   28.8789 C.ar    1  UNL1        0.1197
     26 C           6.8184   -3.8256   22.8643 C.3     1  UNL1        0.0553
     27 C           5.9163   -3.1772   21.8564 C.ar    1  UNL1       -0.0190
     28 C           5.9439   -1.6887   21.6731 C.ar    1  UNL1       -0.0010
     29 C           5.0418   -1.0404   20.6652 C.ar    1  UNL1        0.0377
     30 C           4.1122   -1.8805   19.8406 C.ar    1  UNL1        0.1572
     31 C           4.0846   -3.3690   20.0239 C.ar    1  UNL1        0.0915
     32 CL          3.1550   -4.2092   19.1994 Cl      1  UNL1       -0.0791
     33 C           4.9867   -4.0173   21.0318 C.ar    1  UNL1        0.0103
     34 O           3.2100   -1.2321   18.8327 O.3     1  UNL1       -0.4036
     35 C           2.1645   -0.2546   19.2811 C.3     1  UNL1        0.5753
     36 F           1.1189    0.7231   19.7296 F       1  UNL1       -0.1328
     37 F           2.6937    0.7575   18.3087 F       1  UNL1       -0.1328
     38 F           1.6354   -1.2666   20.2536 F       1  UNL1       -0.1328
@<TRIPOS>BOND
     1     9    10    3
     2    10     6    1
     3     6     2    1
     4     2     3   am
     5     3     4    2
     6     3     1    1
     7     1    26    1
     8    26    27    1
     9    27    28   ar
    10    28    29   ar
    11    29    30   ar
    12    30    34    1
    13    34    35    1
    14    35    36    1
    15    35    37    1
    16    35    38    1
    17    30    31   ar
    18    31    32    1
    19    31    33   ar
    20     1    11    1
    21    11    12   am
    22    12    13    2
    23    12    15    1
    24    15    16   ar
    25    16    17   ar
    26    17    18   ar
    27    18    20    1
    28    20    21   ar
    29    21    22   ar
    30    22    23   ar
    31    23    24   ar
    32    24    25   ar
    33    18    19   ar
    34     6     7    1
    35     7     8    1
    36     8     6    1
    37    33    27   ar
    38    19    15   ar
    39    25    20   ar
    40     2     5    1
    41    11    14    1
@<TRIPOS>MOLECULE
*****
 38 41 0 0 0
SMALL
GASTEIGER

@<TRIPOS>ATOM
      1 C           5.4578   -2.5737   22.5037 C.3     1  UNL1        0.1532
      2 N           7.0342   -3.2203   20.5423 N.am    1  UNL1       -0.2945
      3 C           6.5720   -2.2227   21.5626 C.2     1  UNL1        0.2413
      4 O           7.2239   -0.8741   21.6419 O.2     1  UNL1       -0.2733
      5 H           6.6063   -4.1054   20.4902 H       1  UNL1        0.1503
      6 C           8.1483   -2.8693   19.6013 C.3     1  UNL1        0.1365
      7 C           9.5347   -2.7442   19.0426 C.3     1  UNL1        0.0353
      8 C           9.3193   -3.3979   20.3754 C.3     1  UNL1        0.0353
      9 N           6.5801   -1.5684   17.3994 N.1     1  UNL1       -0.1943
     10 C           7.3642   -2.2189   18.5004 C.1     1  UNL1        0.0896
     11 N           5.7703   -3.0574   23.8887 N.am    1  UNL1       -0.2932
     12 C           6.5808   -4.3046   24.0825 C.2     1  UNL1        0.2673
     13 O           7.0788   -5.0681   22.8913 O.2     1  UNL1       -0.2684
     14 H           5.4435   -2.5562   24.6706 H       1  UNL1        0.1502
     15 C           6.8934   -4.7883   25.4676 C.ar    1  UNL1        0.1767
     16 C           7.6281   -6.0486   25.8165 C.ar    1  UNL1        0.1476
     17 N           7.7149   -6.1359   27.3115 N.ar    1  UNL1       -0.1445
     18 N           7.0338   -4.9294   27.8865 N.ar    1  UNL1       -0.1462
     19 N           6.5260   -4.0965   26.7469 N.ar    1  UNL1       -0.1417
     20 C           6.8862   -4.6116   29.3450 C.ar    1  UNL1        0.1220
     21 C           6.5788   -3.2093   29.7797 C.ar    1  UNL1        0.0241
     22 C           6.4313   -2.8914   31.2381 C.ar    1  UNL1        0.0223
     23 C           6.5912   -3.9759   32.2620 C.ar    1  UNL1        0.0990
     24 N           6.8986   -5.3783   31.8273 N.ar    1  UNL1       -0.2407
     25 C           7.0462   -5.6961   30.3688 C.ar    1  UNL1        0.1197
     26 C           4.0312   -2.4409   22.0597 C.3     1  UNL1        0.0553
     27 C           3.6285   -1.3127   21.1569 C.ar    1  UNL1       -0.0190
     28 C           3.1780   -0.0075   21.7429 C.ar    1  UNL1       -0.0010
     29 C           2.7753    1.1207   20.8401 C.ar    1  UNL1        0.0377
     30 C           2.8233    0.9437   19.3514 C.ar    1  UNL1        0.1572
     31 C           3.2738   -0.3615   18.7654 C.ar    1  UNL1        0.0915
     32 CL          3.3217   -0.5385   17.2767 Cl      1  UNL1       -0.0791
     33 C           3.6765   -1.4897   19.6682 C.ar    1  UNL1        0.0103
     34 O           2.4206    2.0720   18.4486 O.3     1  UNL1       -0.4036
     35 C           1.0270    2.6232   18.5129 C.3     1  UNL1        0.5753
     36 F          -0.3666    3.1744   18.5772 F       1  UNL1       -0.1328
     37 F           0.4954    1.3469   17.9313 F       1  UNL1       -0.1328
     38 F           1.5587    3.8995   19.0945 F       1  UNL1       -0.1328
@<TRIPOS>BOND
     1     9    10    3
     2    10     6    1
     3     6     2    1
     4     2     3   am
     5     3     4    2
     6     3     1    1
     7     1    26    1
     8    26    27    1
     9    27    28   ar
    10    28    29   ar
    11    29    30   ar
    12    30    34    1
    13    34    35    1
    14    35    36    1
    15    35    37    1
    16    35    38    1
    17    30    31   ar
    18    31    32    1
    19    31    33   ar
    20     1    11    1
    21    11    12   am
    22    12    13    2
    23    12    15    1
    24    15    16   ar
    25    16    17   ar
    26    17    18   ar
    27    18    20    1
    28    20    21   ar
    29    21    22   ar
    30    22    23   ar
    31    23    24   ar
    32    24    25   ar
    33    18    19   ar
    34     6     7    1
    35     7     8    1
    36     8     6    1
    37    33    27   ar
    38    19    15   ar
    39    25    20   ar
    40     2     5    1
    41    11    14    1
@<TRIPOS>MOLECULE
*****
 38 41 0 0 0
SMALL
GASTEIGER

@<TRIPOS>ATOM
      1 C           6.2403   -2.5005   27.1772 C.3     1  UNL1        0.1532
      2 N           6.5927   -4.9120   28.0775 N.am    1  UNL1       -0.2945
      3 C           7.1152   -3.5273   27.8333 C.2     1  UNL1        0.2413
      4 O           8.5124   -3.1694   28.2452 O.2     1  UNL1       -0.2733
      5 H           5.6757   -5.1470   27.8071 H       1  UNL1        0.1503
      6 C           7.4676   -5.9388   28.7335 C.3     1  UNL1        0.1365
      7 C           8.4547   -7.0574   28.8892 C.3     1  UNL1        0.0353
      8 C           8.0948   -6.5598   27.5206 C.3     1  UNL1        0.0353
      9 N           6.8207   -5.4101   31.6148 N.1     1  UNL1       -0.1943
     10 C           7.1442   -5.6744   30.1741 C.1     1  UNL1        0.0896
     11 N           5.6150   -2.7890   25.8447 N.am    1  UNL1       -0.2932
     12 C           6.2795   -2.3154   24.5860 C.2     1  UNL1        0.2673
     13 O           7.5692   -1.5532   24.6600 O.2     1  UNL1       -0.2684
     14 H           4.7684   -3.2893   25.7962 H       1  UNL1        0.1502
     15 C           5.6541   -2.6039   23.2535 C.ar    1  UNL1        0.1767
     16 C           5.0716   -3.9159   22.8185 C.ar    1  UNL1        0.1476
     17 N           4.5590   -3.7540   21.4181 N.ar    1  UNL1       -0.1445
     18 N           4.8246   -2.3419   20.9877 N.ar    1  UNL1       -0.1462
     19 N           5.5015   -1.6310   22.1220 N.ar    1  UNL1       -0.1417
     20 C           4.4748   -1.7453   19.6566 C.ar    1  UNL1        0.1220
     21 C           3.4209   -0.6819   19.5650 C.ar    1  UNL1        0.0241
     22 C           3.0711   -0.0853   18.2339 C.ar    1  UNL1        0.0223
     23 C           3.7753   -0.5520   16.9945 C.ar    1  UNL1        0.0990
     24 N           4.8293   -1.6155   17.0861 N.ar    1  UNL1       -0.2407
     25 C           5.1790   -2.2121   18.4172 C.ar    1  UNL1        0.1197
     26 C           5.9909   -1.1852   27.8537 C.3     1  UNL1        0.0553
     27 C           4.6324   -0.8723   28.4076 C.ar    1  UNL1       -0.0190
     28 C           3.4466   -0.8035   27.4916 C.ar    1  UNL1       -0.0010
     29 C           2.0882   -0.4906   28.0454 C.ar    1  UNL1        0.0377
     30 C           1.9156   -0.2466   29.5154 C.ar    1  UNL1        0.1572
     31 C           3.1014   -0.3155   30.4314 C.ar    1  UNL1        0.0915
     32 CL          2.9287   -0.0715   31.9013 Cl      1  UNL1       -0.0791
     33 C           4.4598   -0.6283   29.8775 C.ar    1  UNL1        0.0103
     34 O           0.5571    0.0662   30.0692 O.3     1  UNL1       -0.4036
     35 C          -0.5391    0.5237   29.1533 C.3     1  UNL1        0.5753
     36 F          -1.6354    0.9813   28.2373 F       1  UNL1       -0.1328
     37 F          -0.0043    1.9238   29.2125 F       1  UNL1       -0.1328
     38 F          -1.0740   -0.8764   29.0941 F       1  UNL1       -0.1328
@<TRIPOS>BOND
     1     9    10    3
     2    10     6    1
     3     6     2    1
     4     2     3   am
     5     3     4    2
     6     3     1    1
     7     1    26    1
     8    26    27    1
     9    27    28   ar
    10    28    29   ar
    11    29    30   ar
    12    30    34    1
    13    34    35    1
    14    35    36    1
    15    35    37    1
    16    35    38    1
    17    30    31   ar
    18    31    32    1
    19    31    33   ar
    20     1    11    1
    21    11    12   am
    22    12    13    2
    23    12    15    1
    24    15    16   ar
    25    16    17   ar
    26    17    18   ar
    27    18    20    1
    28    20    21   ar
    29    21    22   ar
    30    22    23   ar
    31    23    24   ar
    32    24    25   ar
    33    18    19   ar
    34     6     7    1
    35     7     8    1
    36     8     6    1
    37    33    27   ar
    38    19    15   ar
    39    25    20   ar
    40     2     5    1
    41    11    14    1
