@<TRIPOS>MOLECULE
*****
 28 30 0 0 0
SMALL
GASTEIGER

@<TRIPOS>ATOM
      1 C          -8.1064  -17.3654   23.3481 C.3     1  UNL1        0.2305
      2 O          -7.1947  -18.2559   22.5570 O.3     1  UNL1       -0.4679
      3 C          -5.7115  -18.0350   22.5954 C.ar    1  UNL1        0.1724
      4 C          -4.7999  -18.9256   21.8044 C.ar    1  UNL1        0.0358
      5 C          -3.3168  -18.7047   21.8428 C.ar    1  UNL1       -0.0189
      6 C          -2.7453  -17.5932   22.6723 C.ar    1  UNL1       -0.0009
      7 C          -3.6569  -16.7026   23.4633 C.ar    1  UNL1        0.0397
      8 C          -5.1401  -16.9235   23.4249 C.ar    1  UNL1        0.1723
      9 O          -6.0518  -16.0330   24.2160 O.3     1  UNL1       -0.4694
     10 C          -7.5349  -16.2539   24.1776 C.3     1  UNL1        0.2389
     11 C         -11.8785  -17.2889   22.1172 C.ar    1  UNL1        0.1719
     12 C         -10.3954  -17.0680   22.1556 C.ar    1  UNL1        0.0393
     13 C          -9.5896  -17.5863   23.3097 C.ar    1  UNL1        0.0241
     14 C         -10.2669  -18.3255   24.4254 C.ar    1  UNL1        0.0026
     15 C         -11.7500  -18.5464   24.3871 C.ar    1  UNL1        0.0396
     16 C         -12.5558  -18.0281   23.2330 C.ar    1  UNL1        0.1677
     17 O         -14.0390  -18.2490   23.1946 O.3     1  UNL1       -0.5029
     18 H         -14.4621  -18.7107   23.8915 H       1  UNL1        0.2923
     19 C         -12.0047  -16.0468   19.8387 C.3     1  UNL1        0.2526
     20 O         -12.6844  -16.7706   20.9631 O.3     1  UNL1       -0.4684
     21 C          -8.4466  -15.3633   24.9686 C.3     1  UNL1        0.1850
     22 O          -8.1351  -15.0556   26.4033 O.3     1  UNL1       -0.3784
     23 H          -8.2035  -15.8671   26.9302 H       1  UNL1        0.2106
     24 C          -2.4051  -19.5952   21.0518 C.3     1  UNL1        0.0290
     25 C          -1.4581  -19.0008   20.0519 C.3     1  UNL1        0.0364
     26 C          -1.9806  -18.1219   18.9544 C.3     1  UNL1        0.1375
     27 O          -1.1037  -17.7786   17.7868 O.3     1  UNL1       -0.3820
     28 H          -0.3598  -17.2348   18.0900 H       1  UNL1        0.2104
@<TRIPOS>BOND
     1    19    20    1
     2    20    11    1
     3    11    12   ar
     4    12    13   ar
     5     1    13    1
     6     1     2    1
     7     2     3    1
     8     3     4   ar
     9     4     5   ar
    10     5    24    1
    11    24    25    1
    12    25    26    1
    13    26    27    1
    14     5     6   ar
    15     6     7   ar
    16     7     8   ar
    17     8     9    1
    18     9    10    1
    19    10    21    1
    20    21    22    1
    21    13    14   ar
    22    14    15   ar
    23    15    16   ar
    24    16    17    1
    25    16    11   ar
    26    10     1    1
    27     8     3   ar
    28    27    28    1
    29    22    23    1
    30    17    18    1
@<TRIPOS>MOLECULE
*****
 28 30 0 0 0
SMALL
GASTEIGER

@<TRIPOS>ATOM
      1 C          -8.0951  -17.3616   23.0444 C.3     1  UNL1        0.2305
      2 O          -7.1342  -18.2200   22.2765 O.3     1  UNL1       -0.4679
      3 C          -5.6566  -18.0515   22.4719 C.ar    1  UNL1        0.1724
      4 C          -4.6957  -18.9100   21.7039 C.ar    1  UNL1        0.0358
      5 C          -3.2181  -18.7414   21.8995 C.ar    1  UNL1       -0.0189
      6 C          -2.7014  -17.7145   22.8630 C.ar    1  UNL1       -0.0009
      7 C          -3.6622  -16.8561   23.6310 C.ar    1  UNL1        0.0397
      8 C          -5.1398  -17.0246   23.4354 C.ar    1  UNL1        0.1723
      9 O          -6.1007  -16.1661   24.2035 O.3     1  UNL1       -0.4694
     10 C          -7.5783  -16.3347   24.0080 C.3     1  UNL1        0.2389
     11 C         -11.8741  -18.3754   23.7086 C.ar    1  UNL1        0.1719
     12 C         -10.3965  -18.2069   23.9041 C.ar    1  UNL1        0.0393
     13 C          -9.5728  -17.5301   22.8490 C.ar    1  UNL1        0.0241
     14 C         -10.2266  -17.0218   21.5983 C.ar    1  UNL1        0.0026
     15 C         -11.7042  -17.1902   21.4028 C.ar    1  UNL1        0.0396
     16 C         -12.5279  -17.8670   22.4579 C.ar    1  UNL1        0.1677
     17 O         -14.0056  -18.0355   22.2624 O.3     1  UNL1       -0.5029
     18 H         -14.4141  -17.7180   21.4812 H       1  UNL1        0.2923
     19 C         -13.9331  -18.3857   25.2931 C.3     1  UNL1        0.2526
     20 O         -12.6980  -19.0522   24.7637 O.3     1  UNL1       -0.4684
     21 C          -8.5392  -15.4762   24.7760 C.3     1  UNL1        0.1850
     22 O          -8.2121  -15.0534   26.1775 O.3     1  UNL1       -0.3784
     23 H          -8.1939  -15.8329   26.7545 H       1  UNL1        0.2106
     24 C          -2.2572  -19.5999   21.1314 C.3     1  UNL1        0.0290
     25 C          -1.3594  -18.9829   20.1002 C.3     1  UNL1        0.0364
     26 C          -1.9496  -18.2146   18.9551 C.3     1  UNL1        0.1375
     27 O          -1.0692  -17.7402   17.8372 O.3     1  UNL1       -0.3820
     28 H          -0.4475  -17.0765   18.1747 H       1  UNL1        0.2104
@<TRIPOS>BOND
     1    19    20    1
     2    20    11    1
     3    11    12   ar
     4    12    13   ar
     5     1    13    1
     6     1     2    1
     7     2     3    1
     8     3     4   ar
     9     4     5   ar
    10     5    24    1
    11    24    25    1
    12    25    26    1
    13    26    27    1
    14     5     6   ar
    15     6     7   ar
    16     7     8   ar
    17     8     9    1
    18     9    10    1
    19    10    21    1
    20    21    22    1
    21    13    14   ar
    22    14    15   ar
    23    15    16   ar
    24    16    17    1
    25    16    11   ar
    26    10     1    1
    27     8     3   ar
    28    27    28    1
    29    22    23    1
    30    17    18    1
@<TRIPOS>MOLECULE
*****
 28 30 0 0 0
SMALL
GASTEIGER

@<TRIPOS>ATOM
      1 C          -6.8544  -18.9862   21.2737 C.3     1  UNL1        0.2305
      2 O          -7.8284  -18.1954   22.0958 O.3     1  UNL1       -0.4679
      3 C          -9.3026  -18.3490   21.8655 C.ar    1  UNL1        0.1724
      4 C         -10.2766  -17.5583   22.6876 C.ar    1  UNL1        0.0358
      5 C         -11.7508  -17.7120   22.4573 C.ar    1  UNL1       -0.0189
      6 C         -12.2510  -18.6564   21.4048 C.ar    1  UNL1       -0.0009
      7 C         -11.2770  -19.4472   20.5826 C.ar    1  UNL1        0.0397
      8 C          -9.8028  -19.2935   20.8130 C.ar    1  UNL1        0.1723
      9 O          -8.8287  -20.0843   19.9908 O.3     1  UNL1       -0.4694
     10 C          -7.3546  -19.9306   20.2212 C.3     1  UNL1        0.2389
     11 C          -2.9540  -18.7568   20.5779 C.ar    1  UNL1        0.1719
     12 C          -4.4282  -18.9105   20.3475 C.ar    1  UNL1        0.0393
     13 C          -5.3801  -18.8325   21.5040 C.ar    1  UNL1        0.0241
     14 C          -4.8579  -18.6008   22.8910 C.ar    1  UNL1        0.0026
     15 C          -3.3837  -18.4471   23.1214 C.ar    1  UNL1        0.0396
     16 C          -2.4317  -18.5251   21.9648 C.ar    1  UNL1        0.1677
     17 O          -0.9575  -18.3714   22.1951 O.3     1  UNL1       -0.5029
     18 H          -0.6312  -18.2267   23.0615 H       1  UNL1        0.2923
     19 C          -1.8524  -17.6662   18.4929 C.3     1  UNL1        0.2526
     20 O          -2.0019  -18.8349   19.4213 O.3     1  UNL1       -0.4684
     21 C          -6.3805  -20.7215   19.3991 C.3     1  UNL1        0.1850
     22 O          -5.8036  -21.9960   19.9401 O.3     1  UNL1       -0.3784
     23 H          -5.2447  -21.7977   20.7077 H       1  UNL1        0.2106
     24 C         -12.7249  -16.9211   23.2794 C.3     1  UNL1        0.0290
     25 C         -13.8516  -17.6179   23.9831 C.3     1  UNL1        0.0364
     26 C         -13.5591  -18.5930   25.0847 C.3     1  UNL1        0.1375
     27 O         -14.5007  -18.7175   26.2457 O.3     1  UNL1       -0.3820
     28 H         -14.4974  -17.8918   26.7547 H       1  UNL1        0.2104
@<TRIPOS>BOND
     1    19    20    1
     2    20    11    1
     3    11    12   ar
     4    12    13   ar
     5     1    13    1
     6     1     2    1
     7     2     3    1
     8     3     4   ar
     9     4     5   ar
    10     5    24    1
    11    24    25    1
    12    25    26    1
    13    26    27    1
    14     5     6   ar
    15     6     7   ar
    16     7     8   ar
    17     8     9    1
    18     9    10    1
    19    10    21    1
    20    21    22    1
    21    13    14   ar
    22    14    15   ar
    23    15    16   ar
    24    16    17    1
    25    16    11   ar
    26    10     1    1
    27     8     3   ar
    28    27    28    1
    29    22    23    1
    30    17    18    1
@<TRIPOS>MOLECULE
*****
 28 30 0 0 0
SMALL
GASTEIGER

@<TRIPOS>ATOM
      1 C         -14.4529   -4.8500   18.6209 C.3     1  UNL1        0.2305
      2 O         -15.0985   -6.0450   17.9843 O.3     1  UNL1       -0.4679
      3 C         -16.4899   -6.4443   18.3777 C.ar    1  UNL1        0.1724
      4 C         -17.1355   -7.6392   17.7411 C.ar    1  UNL1        0.0358
      5 C         -18.5268   -8.0385   18.1345 C.ar    1  UNL1       -0.0189
      6 C         -19.2725   -7.2428   19.1644 C.ar    1  UNL1       -0.0009
      7 C         -18.6269   -6.0478   19.8010 C.ar    1  UNL1        0.0397
      8 C         -17.2356   -5.6486   19.4076 C.ar    1  UNL1        0.1723
      9 O         -16.5899   -4.4536   20.0442 O.3     1  UNL1       -0.4694
     10 C         -15.1986   -4.0543   19.6508 C.3     1  UNL1        0.2389
     11 C         -10.4936   -4.5786   18.6006 C.ar    1  UNL1        0.1719
     12 C         -11.8849   -4.9780   18.9940 C.ar    1  UNL1        0.0393
     13 C         -13.0615   -4.4507   18.2275 C.ar    1  UNL1        0.0241
     14 C         -12.8468   -3.5242   17.0676 C.ar    1  UNL1        0.0026
     15 C         -11.4555   -3.1249   16.6742 C.ar    1  UNL1        0.0396
     16 C         -10.2789   -3.6521   17.4407 C.ar    1  UNL1        0.1677
     17 O          -8.8875   -3.2528   17.0473 O.3     1  UNL1       -0.5029
     18 H          -8.7534   -2.6740   16.3228 H       1  UNL1        0.2923
     19 C          -9.0502   -6.5813   19.4106 C.3     1  UNL1        0.2526
     20 O          -9.3170   -5.1059   19.3672 O.3     1  UNL1       -0.4684
     21 C         -14.5529   -2.8593   20.2874 C.3     1  UNL1        0.1850
     22 O         -14.1336   -2.9112   21.7266 O.3     1  UNL1       -0.3784
     23 H         -14.9194   -2.9903   22.2897 H       1  UNL1        0.2106
     24 C         -19.1725   -9.2334   17.4979 C.3     1  UNL1        0.0290
     25 C         -18.7317  -10.6158   17.8785 C.3     1  UNL1        0.0364
     26 C         -17.3478  -10.8417   18.4110 C.3     1  UNL1        0.1375
     27 O         -17.0121  -12.1282   19.1055 O.3     1  UNL1       -0.3820
     28 H         -17.5162  -12.1905   19.9319 H       1  UNL1        0.2104
@<TRIPOS>BOND
     1    19    20    1
     2    20    11    1
     3    11    12   ar
     4    12    13   ar
     5     1    13    1
     6     1     2    1
     7     2     3    1
     8     3     4   ar
     9     4     5   ar
    10     5    24    1
    11    24    25    1
    12    25    26    1
    13    26    27    1
    14     5     6   ar
    15     6     7   ar
    16     7     8   ar
    17     8     9    1
    18     9    10    1
    19    10    21    1
    20    21    22    1
    21    13    14   ar
    22    14    15   ar
    23    15    16   ar
    24    16    17    1
    25    16    11   ar
    26    10     1    1
    27     8     3   ar
    28    27    28    1
    29    22    23    1
    30    17    18    1
@<TRIPOS>MOLECULE
*****
 28 30 0 0 0
SMALL
GASTEIGER

@<TRIPOS>ATOM
      1 C           4.1932   -2.0893   21.0569 C.3     1  UNL1        0.2305
      2 O           4.4189   -1.8078   22.5129 O.3     1  UNL1       -0.4679
      3 C           5.3394   -2.6819   23.3119 C.ar    1  UNL1        0.1724
      4 C           5.5651   -2.4004   24.7679 C.ar    1  UNL1        0.0358
      5 C           6.4856   -3.2746   25.5669 C.ar    1  UNL1       -0.0189
      6 C           7.1805   -4.4303   24.9099 C.ar    1  UNL1       -0.0009
      7 C           6.9548   -4.7118   23.4540 C.ar    1  UNL1        0.0397
      8 C           6.0343   -3.8376   22.6550 C.ar    1  UNL1        0.1723
      9 O           5.8086   -4.1191   21.1990 O.3     1  UNL1       -0.4694
     10 C           4.8880   -3.2450   20.4000 C.3     1  UNL1        0.2389
     11 C           1.0572    0.1266   20.0542 C.ar    1  UNL1        0.1719
     12 C           1.9777   -0.7475   20.8533 C.ar    1  UNL1        0.0393
     13 C           3.2726   -1.2151   20.2579 C.ar    1  UNL1        0.0241
     14 C           3.6470   -0.8085   18.8634 C.ar    1  UNL1        0.0026
     15 C           2.7265    0.0656   18.0643 C.ar    1  UNL1        0.0396
     16 C           1.4316    0.5332   18.6597 C.ar    1  UNL1        0.1677
     17 O           0.5111    1.4074   17.8607 O.3     1  UNL1       -0.5029
     18 H           0.7450    1.6613   16.9896 H       1  UNL1        0.2923
     19 C          -0.3477    1.9810   21.2108 C.3     1  UNL1        0.2526
     20 O          -0.2378    0.5943   20.6496 O.3     1  UNL1       -0.4684
     21 C           4.6623   -3.5265   18.9440 C.3     1  UNL1        0.1850
     22 O           3.6007   -4.4994   18.5240 O.3     1  UNL1       -0.3784
     23 H           3.8400   -5.3895   18.8262 H       1  UNL1        0.2106
     24 C           6.7113   -2.9931   27.0229 C.3     1  UNL1        0.0290
     25 C           7.3011   -4.0504   27.9085 C.3     1  UNL1        0.0364
     26 C           6.4043   -5.0258   28.6115 C.3     1  UNL1        0.1375
     27 O           5.4424   -5.8635   27.8223 O.3     1  UNL1       -0.3820
     28 H           4.7728   -5.2911   27.4162 H       1  UNL1        0.2104
@<TRIPOS>BOND
     1    19    20    1
     2    20    11    1
     3    11    12   ar
     4    12    13   ar
     5     1    13    1
     6     1     2    1
     7     2     3    1
     8     3     4   ar
     9     4     5   ar
    10     5    24    1
    11    24    25    1
    12    25    26    1
    13    26    27    1
    14     5     6   ar
    15     6     7   ar
    16     7     8   ar
    17     8     9    1
    18     9    10    1
    19    10    21    1
    20    21    22    1
    21    13    14   ar
    22    14    15   ar
    23    15    16   ar
    24    16    17    1
    25    16    11   ar
    26    10     1    1
    27     8     3   ar
    28    27    28    1
    29    22    23    1
    30    17    18    1
@<TRIPOS>MOLECULE
*****
 28 30 0 0 0
SMALL
GASTEIGER

@<TRIPOS>ATOM
      1 C          -5.1563  -18.4718   21.6290 C.3     1  UNL1        0.2305
      2 O          -5.4745  -17.4814   22.7097 O.3     1  UNL1       -0.4679
      3 C          -6.8831  -17.3386   23.2051 C.ar    1  UNL1        0.1724
      4 C          -7.2013  -16.3482   24.2857 C.ar    1  UNL1        0.0358
      5 C          -8.6099  -16.2055   24.7811 C.ar    1  UNL1       -0.0189
      6 C          -9.7003  -17.0532   24.1959 C.ar    1  UNL1       -0.0009
      7 C          -9.3821  -18.0436   23.1153 C.ar    1  UNL1        0.0397
      8 C          -7.9735  -18.1863   22.6199 C.ar    1  UNL1        0.1723
      9 O          -7.6552  -19.1767   21.5392 O.3     1  UNL1       -0.4694
     10 C          -6.2467  -19.3194   21.0438 C.3     1  UNL1        0.2389
     11 C          -1.9986  -18.3804   19.2268 C.ar    1  UNL1        0.1719
     12 C          -3.4072  -18.2376   19.7222 C.ar    1  UNL1        0.0393
     13 C          -3.7476  -18.6145   21.1336 C.ar    1  UNL1        0.0241
     14 C          -2.6795  -19.1342   22.0496 C.ar    1  UNL1        0.0026
     15 C          -1.2709  -19.2769   21.5542 C.ar    1  UNL1        0.0396
     16 C          -0.9304  -18.9000   20.1428 C.ar    1  UNL1        0.1677
     17 O           0.4782  -19.0428   19.6474 O.3     1  UNL1       -0.5029
     18 H           1.1455  -19.3674   20.2195 H       1  UNL1        0.2923
     19 C          -2.4850  -16.9827   17.0914 C.3     1  UNL1        0.2526
     20 O          -1.6581  -18.0035   17.8154 O.3     1  UNL1       -0.4684
     21 C          -5.9284  -20.3099   19.9631 C.3     1  UNL1        0.1850
     22 O          -5.9964  -21.7806   20.2500 O.3     1  UNL1       -0.3784
     23 H          -5.3102  -22.0166   20.8936 H       1  UNL1        0.2106
     24 C          -8.9282  -15.2151   25.8618 C.3     1  UNL1        0.0290
     25 C          -8.3623  -15.3997   27.2387 C.3     1  UNL1        0.0364
     26 C          -7.0296  -14.8062   27.5876 C.3     1  UNL1        0.1375
     27 O          -6.0674  -14.4318   26.4995 O.3     1  UNL1       -0.3820
     28 H          -5.7727  -15.2328   26.0387 H       1  UNL1        0.2104
@<TRIPOS>BOND
     1    19    20    1
     2    20    11    1
     3    11    12   ar
     4    12    13   ar
     5     1    13    1
     6     1     2    1
     7     2     3    1
     8     3     4   ar
     9     4     5   ar
    10     5    24    1
    11    24    25    1
    12    25    26    1
    13    26    27    1
    14     5     6   ar
    15     6     7   ar
    16     7     8   ar
    17     8     9    1
    18     9    10    1
    19    10    21    1
    20    21    22    1
    21    13    14   ar
    22    14    15   ar
    23    15    16   ar
    24    16    17    1
    25    16    11   ar
    26    10     1    1
    27     8     3   ar
    28    27    28    1
    29    22    23    1
    30    17    18    1
@<TRIPOS>MOLECULE
*****
 28 30 0 0 0
SMALL
GASTEIGER

@<TRIPOS>ATOM
      1 C          -5.9699  -18.9297   21.8560 C.3     1  UNL1        0.2305
      2 O          -6.9011  -17.8057   22.2015 O.3     1  UNL1       -0.4679
      3 C          -8.3579  -18.0816   22.4289 C.ar    1  UNL1        0.1724
      4 C          -9.2891  -16.9576   22.7744 C.ar    1  UNL1        0.0358
      5 C         -10.7459  -17.2335   23.0017 C.ar    1  UNL1       -0.0189
      6 C         -11.2714  -18.6335   22.8835 C.ar    1  UNL1       -0.0009
      7 C         -10.3402  -19.7575   22.5380 C.ar    1  UNL1        0.0397
      8 C          -8.8835  -19.4815   22.3106 C.ar    1  UNL1        0.1723
      9 O          -7.9522  -20.6056   21.9651 O.3     1  UNL1       -0.4694
     10 C          -6.4954  -20.3296   21.7378 C.3     1  UNL1        0.2389
     11 C          -2.4785  -18.4882   20.0216 C.ar    1  UNL1        0.1719
     12 C          -3.9352  -18.7641   20.2488 C.ar    1  UNL1        0.0393
     13 C          -4.5131  -18.6538   21.6286 C.ar    1  UNL1        0.0241
     14 C          -3.6341  -18.2675   22.7812 C.ar    1  UNL1        0.0026
     15 C          -2.1774  -17.9916   22.5539 C.ar    1  UNL1        0.0396
     16 C          -1.5996  -18.1020   21.1741 C.ar    1  UNL1        0.1677
     17 O          -0.1427  -17.8260   20.9467 O.3     1  UNL1       -0.5029
     18 H           0.4063  -17.5848   21.6667 H       1  UNL1        0.2923
     19 C          -1.9942  -17.4392   17.6945 C.3     1  UNL1        0.2526
     20 O          -1.9006  -18.5986   18.6417 O.3     1  UNL1       -0.4684
     21 C          -5.5641  -21.4536   21.3922 C.3     1  UNL1        0.1850
     22 O          -5.5659  -22.0303   20.0075 O.3     1  UNL1       -0.3784
     23 H          -6.4160  -22.4664   19.8399 H       1  UNL1        0.2106
     24 C         -11.6771  -16.1095   23.3473 C.3     1  UNL1        0.0290
     25 C         -12.6121  -15.5641   22.3089 C.3     1  UNL1        0.0364
     26 C         -12.6638  -16.1864   20.9451 C.3     1  UNL1        0.1375
     27 O         -11.6784  -15.7708   19.8932 O.3     1  UNL1       -0.3820
     28 H         -11.8324  -14.8434   19.6543 H       1  UNL1        0.2104
@<TRIPOS>BOND
     1    19    20    1
     2    20    11    1
     3    11    12   ar
     4    12    13   ar
     5     1    13    1
     6     1     2    1
     7     2     3    1
     8     3     4   ar
     9     4     5   ar
    10     5    24    1
    11    24    25    1
    12    25    26    1
    13    26    27    1
    14     5     6   ar
    15     6     7   ar
    16     7     8   ar
    17     8     9    1
    18     9    10    1
    19    10    21    1
    20    21    22    1
    21    13    14   ar
    22    14    15   ar
    23    15    16   ar
    24    16    17    1
    25    16    11   ar
    26    10     1    1
    27     8     3   ar
    28    27    28    1
    29    22    23    1
    30    17    18    1
@<TRIPOS>MOLECULE
*****
 28 30 0 0 0
SMALL
GASTEIGER

@<TRIPOS>ATOM
      1 C           1.9574    0.6407   21.3054 C.3     1  UNL1        0.2305
      2 O           1.7009    0.4959   22.7762 O.3     1  UNL1       -0.4679
      3 C           0.6734    1.3588   23.4469 C.ar    1  UNL1        0.1724
      4 C           0.4169    1.2140   24.9176 C.ar    1  UNL1        0.0358
      5 C          -0.6106    2.0768   25.5882 C.ar    1  UNL1       -0.0189
      6 C          -1.3816    3.0844   24.7880 C.ar    1  UNL1       -0.0009
      7 C          -1.1252    3.2291   23.3173 C.ar    1  UNL1        0.0397
      8 C          -0.0977    2.3663   22.6467 C.ar    1  UNL1        0.1723
      9 O           0.1588    2.5111   21.1758 O.3     1  UNL1       -0.4694
     10 C           1.1864    1.6482   20.5052 C.3     1  UNL1        0.2389
     11 C           3.6295   -2.4367   19.4389 C.ar    1  UNL1        0.1719
     12 C           2.6019   -1.5739   20.1095 C.ar    1  UNL1        0.0393
     13 C           2.9850   -0.2221   20.6348 C.ar    1  UNL1        0.0241
     14 C           4.3956    0.2669   20.4894 C.ar    1  UNL1        0.0026
     15 C           5.4231   -0.5959   19.8188 C.ar    1  UNL1        0.0396
     16 C           5.0401   -1.9476   19.2935 C.ar    1  UNL1        0.1677
     17 O           6.0676   -2.8105   18.6228 O.3     1  UNL1       -0.5029
     18 H           6.9488   -2.5050   18.5320 H       1  UNL1        0.2923
     19 C           3.5928   -5.0220   19.6937 C.3     1  UNL1        0.2526
     20 O           3.2465   -3.7885   18.9135 O.3     1  UNL1       -0.4684
     21 C           1.4429    1.7930   19.0344 C.3     1  UNL1        0.1850
     22 O           0.6152    1.0219   18.0493 O.3     1  UNL1       -0.3784
     23 H           0.7906    0.0734   18.1521 H       1  UNL1        0.2106
     24 C          -0.8671    1.9321   27.0591 C.3     1  UNL1        0.0290
     25 C          -0.2010    0.8325   27.8319 C.3     1  UNL1        0.0364
     26 C          -1.0319   -0.1905   28.5482 C.3     1  UNL1        0.1375
     27 O          -1.5996    0.1187   29.9018 O.3     1  UNL1       -0.3820
     28 H          -0.8766    0.2170   30.5409 H       1  UNL1        0.2104
@<TRIPOS>BOND
     1    19    20    1
     2    20    11    1
     3    11    12   ar
     4    12    13   ar
     5     1    13    1
     6     1     2    1
     7     2     3    1
     8     3     4   ar
     9     4     5   ar
    10     5    24    1
    11    24    25    1
    12    25    26    1
    13    26    27    1
    14     5     6   ar
    15     6     7   ar
    16     7     8   ar
    17     8     9    1
    18     9    10    1
    19    10    21    1
    20    21    22    1
    21    13    14   ar
    22    14    15   ar
    23    15    16   ar
    24    16    17    1
    25    16    11   ar
    26    10     1    1
    27     8     3   ar
    28    27    28    1
    29    22    23    1
    30    17    18    1
@<TRIPOS>MOLECULE
*****
 28 30 0 0 0
SMALL
GASTEIGER

@<TRIPOS>ATOM
      1 C         -12.5846   -3.4884   17.5545 C.3     1  UNL1        0.2305
      2 O         -13.9421   -4.1071   17.3986 O.3     1  UNL1       -0.4679
      3 C         -14.1049   -5.5946   17.5027 C.ar    1  UNL1        0.1724
      4 C         -15.4624   -6.2133   17.3469 C.ar    1  UNL1        0.0358
      5 C         -15.6251   -7.7008   17.4510 C.ar    1  UNL1       -0.0189
      6 C         -14.4303   -8.5696   17.7111 C.ar    1  UNL1       -0.0009
      7 C         -13.0728   -7.9509   17.8669 C.ar    1  UNL1        0.0397
      8 C         -12.9101   -6.4634   17.7628 C.ar    1  UNL1        0.1723
      9 O         -11.5525   -5.8447   17.9186 O.3     1  UNL1       -0.4694
     10 C         -11.3898   -4.3572   17.8145 C.3     1  UNL1        0.2389
     11 C         -13.0909    0.3939   18.2032 C.ar    1  UNL1        0.1719
     12 C         -13.2537   -1.0935   18.3074 C.ar    1  UNL1        0.0393
     13 C         -12.4218   -2.0009   17.4503 C.ar    1  UNL1        0.0241
     14 C         -11.4271   -1.4207   16.4890 C.ar    1  UNL1        0.0026
     15 C         -11.2643    0.0667   16.3848 C.ar    1  UNL1        0.0396
     16 C         -12.0962    0.9741   17.2419 C.ar    1  UNL1        0.1677
     17 O         -11.9334    2.4616   17.1378 O.3     1  UNL1       -0.5029
     18 H         -11.3121    2.8240   16.5373 H       1  UNL1        0.2923
     19 C         -15.4166    1.2994   18.9250 C.3     1  UNL1        0.2526
     20 O         -13.9228    1.3014   19.0604 O.3     1  UNL1       -0.4684
     21 C         -10.0322   -3.7385   17.9704 C.3     1  UNL1        0.1850
     22 O          -9.5322   -3.3607   19.3332 O.3     1  UNL1       -0.3784
     23 H         -10.0792   -2.6442   19.6912 H       1  UNL1        0.2106
     24 C         -16.9827   -8.3195   17.2952 C.3     1  UNL1        0.0290
     25 C         -17.5595   -9.1511   18.4023 C.3     1  UNL1        0.0364
     26 C         -17.2992   -8.7806   19.8323 C.3     1  UNL1        0.1375
     27 O         -16.1417   -9.3900   20.5663 O.3     1  UNL1       -0.3820
     28 H         -16.2902  -10.3429   20.6700 H       1  UNL1        0.2104
@<TRIPOS>BOND
     1    19    20    1
     2    20    11    1
     3    11    12   ar
     4    12    13   ar
     5     1    13    1
     6     1     2    1
     7     2     3    1
     8     3     4   ar
     9     4     5   ar
    10     5    24    1
    11    24    25    1
    12    25    26    1
    13    26    27    1
    14     5     6   ar
    15     6     7   ar
    16     7     8   ar
    17     8     9    1
    18     9    10    1
    19    10    21    1
    20    21    22    1
    21    13    14   ar
    22    14    15   ar
    23    15    16   ar
    24    16    17    1
    25    16    11   ar
    26    10     1    1
    27     8     3   ar
    28    27    28    1
    29    22    23    1
    30    17    18    1
