@<TRIPOS>MOLECULE
*****
 28 30 0 0 0
SMALL
GASTEIGER

@<TRIPOS>ATOM
      1 C          -5.8161  -16.8593   23.4995 C.ar    1  UNL1        0.1730
      2 C          -4.3667  -17.0064   23.1424 C.ar    1  UNL1        0.0401
      3 C          -3.9145  -18.1657   22.3048 C.ar    1  UNL1        0.0039
      4 C          -4.9117  -19.1779   21.8242 C.ar    1  UNL1        0.0034
      5 C          -6.3611  -19.0308   22.1812 C.ar    1  UNL1        0.0406
      6 C          -6.8133  -17.8715   23.0189 C.ar    1  UNL1        0.1789
      7 C          -2.4650  -18.3128   21.9478 C.2     1  UNL1        0.0113
      8 C          -2.0063  -18.0388   20.5462 C.2     1  UNL1        0.0873
      9 S          -2.8764  -17.6124   19.4012 S.3     1  UNL1       -0.0254
     10 C          -2.0048  -17.4532   18.1908 C.2     1  UNL1        0.2832
     11 O          -2.4619  -17.0388   16.8235 O.2     1  UNL1       -0.2622
     12 N          -0.5960  -17.7812   18.5877 N.am    1  UNL1       -0.2425
     13 C          -0.5969  -18.1431   20.0434 C.2     1  UNL1        0.2583
     14 O           0.6013  -18.5397   20.8541 O.2     1  UNL1       -0.2692
     15 H           0.1911  -17.7623   17.9966 H       1  UNL1        0.1587
     16 C          -5.4687  -15.2841   25.5361 C.3     1  UNL1        0.2526
     17 O          -6.2683  -15.7001   24.3371 O.3     1  UNL1       -0.4684
     18 O          -8.2628  -17.7244   23.3759 O.3     1  UNL1       -0.4505
     19 C          -9.3208  -18.2230   22.4368 C.ar    1  UNL1        0.1493
     20 C          -9.5839  -17.4980   21.1503 C.ar    1  UNL1        0.0374
     21 C         -10.6420  -17.9966   20.2112 C.ar    1  UNL1        0.0031
     22 C         -11.4370  -19.2202   20.5586 C.ar    1  UNL1        0.0001
     23 C         -11.1739  -19.9453   21.8451 C.ar    1  UNL1        0.0069
     24 C         -10.1158  -19.4467   22.7842 C.ar    1  UNL1        0.1058
     25 C          -9.8527  -20.1718   24.0707 C.3     1  UNL1        0.4214
     26 F          -9.5897  -20.8968   25.3572 F       1  UNL1       -0.1657
     27 F         -11.0704  -19.5390   24.6763 F       1  UNL1       -0.1657
     28 F          -8.6351  -20.8046   23.4650 F       1  UNL1       -0.1657
@<TRIPOS>BOND
     1    16    17    1
     2    17     1    1
     3     1     2   ar
     4     2     3   ar
     5     3     7    1
     6     7     8    2
     7     8     9    1
     8     9    10    1
     9    10    11    2
    10    10    12   am
    11    12    13   am
    12    13    14    2
    13     3     4   ar
    14     4     5   ar
    15     5     6   ar
    16     6    18    1
    17    18    19    1
    18    19    20   ar
    19    20    21   ar
    20    21    22   ar
    21    22    23   ar
    22    23    24   ar
    23    24    25    1
    24    25    26    1
    25    25    27    1
    26    25    28    1
    27     6     1   ar
    28    24    19   ar
    29    13     8    1
    30    12    15    1
@<TRIPOS>MOLECULE
*****
 28 30 0 0 0
SMALL
GASTEIGER

@<TRIPOS>ATOM
      1 C          -7.6638  -17.6912   22.0801 C.ar    1  UNL1        0.1730
      2 C          -6.1936  -17.7314   22.3746 C.ar    1  UNL1        0.0401
      3 C          -5.3559  -18.8635   21.8583 C.ar    1  UNL1        0.0039
      4 C          -5.9884  -19.9554   21.0473 C.ar    1  UNL1        0.0034
      5 C          -7.4587  -19.9152   20.7528 C.ar    1  UNL1        0.0406
      6 C          -8.2963  -18.7831   21.2691 C.ar    1  UNL1        0.1789
      7 C          -3.8856  -18.9037   22.1529 C.2     1  UNL1        0.0113
      8 C          -2.8938  -18.6507   21.0564 C.2     1  UNL1        0.0873
      9 S          -3.2211  -18.3462   19.6245 S.3     1  UNL1       -0.0254
     10 C          -1.9301  -18.1651   18.8824 C.2     1  UNL1        0.2832
     11 O          -1.7891  -17.8472   17.4232 O.2     1  UNL1       -0.2622
     12 N          -0.8051  -18.3576   19.8556 N.am    1  UNL1       -0.2425
     13 C          -1.4007  -18.6577   21.1992 C.2     1  UNL1        0.2583
     14 O          -0.6371  -18.9190   22.4636 O.2     1  UNL1       -0.2692
     15 H           0.1556  -18.2975   19.6488 H       1  UNL1        0.1587
     16 C          -8.7142  -16.3959   24.0722 C.3     1  UNL1        0.2526
     17 O          -8.5015  -16.5591   22.5964 O.3     1  UNL1       -0.4684
     18 O          -9.7666  -18.7429   20.9745 O.3     1  UNL1       -0.4505
     19 C         -10.7545  -18.6461   22.0991 C.ar    1  UNL1        0.1493
     20 C         -10.6539  -19.5804   23.2682 C.ar    1  UNL1        0.0374
     21 C         -11.6418  -19.4836   24.3928 C.ar    1  UNL1        0.0031
     22 C         -12.7303  -18.4525   24.3483 C.ar    1  UNL1        0.0001
     23 C         -12.8309  -17.5182   23.1791 C.ar    1  UNL1        0.0069
     24 C         -11.8430  -17.6150   22.0545 C.ar    1  UNL1        0.1058
     25 C         -11.9436  -16.6806   20.8854 C.3     1  UNL1        0.4214
     26 F         -12.0442  -15.7463   19.7162 F       1  UNL1       -0.1657
     27 F         -11.7420  -15.5111   21.8027 F       1  UNL1       -0.1657
     28 F         -12.1452  -17.8502   19.9681 F       1  UNL1       -0.1657
@<TRIPOS>BOND
     1    16    17    1
     2    17     1    1
     3     1     2   ar
     4     2     3   ar
     5     3     7    1
     6     7     8    2
     7     8     9    1
     8     9    10    1
     9    10    11    2
    10    10    12   am
    11    12    13   am
    12    13    14    2
    13     3     4   ar
    14     4     5   ar
    15     5     6   ar
    16     6    18    1
    17    18    19    1
    18    19    20   ar
    19    20    21   ar
    20    21    22   ar
    21    22    23   ar
    22    23    24   ar
    23    24    25    1
    24    25    26    1
    25    25    27    1
    26    25    28    1
    27     6     1   ar
    28    24    19   ar
    29    13     8    1
    30    12    15    1
@<TRIPOS>MOLECULE
*****
 28 30 0 0 0
SMALL
GASTEIGER

@<TRIPOS>ATOM
      1 C           6.6007   -4.2072   23.9198 C.ar    1  UNL1        0.1730
      2 C           6.6938   -3.5935   25.2853 C.ar    1  UNL1        0.0401
      3 C           5.7573   -2.4890   25.6766 C.ar    1  UNL1        0.0039
      4 C           4.7278   -1.9982   24.7024 C.ar    1  UNL1        0.0034
      5 C           4.6347   -2.6119   23.3369 C.ar    1  UNL1        0.0406
      6 C           5.5712   -3.7164   22.9456 C.ar    1  UNL1        0.1789
      7 C           5.8505   -1.8753   27.0422 C.2     1  UNL1        0.0113
      8 C           6.1766   -2.7326   28.2291 C.2     1  UNL1        0.0873
      9 S           6.4337   -4.2102   28.2054 S.3     1  UNL1       -0.0254
     10 C           6.7190   -4.6536   29.6097 C.2     1  UNL1        0.2832
     11 O           7.0303   -6.0546   30.0458 O.2     1  UNL1       -0.2622
     12 N           6.6382   -3.4500   30.5013 N.am    1  UNL1       -0.2425
     13 C           6.3030   -2.2628   29.6480 C.2     1  UNL1        0.2583
     14 O           6.1254   -0.8532   30.1292 O.2     1  UNL1       -0.2692
     15 H           6.7802   -3.4409   31.4755 H       1  UNL1        0.1587
     16 C           7.9533   -6.3364   24.5419 C.3     1  UNL1        0.2526
     17 O           7.5371   -5.3118   23.5286 O.3     1  UNL1       -0.4684
     18 O           5.4780   -4.3302   21.5800 O.3     1  UNL1       -0.4505
     19 C           5.9638   -3.5702   20.3815 C.ar    1  UNL1        0.1493
     20 C           7.2985   -2.8866   20.4173 C.ar    1  UNL1        0.0374
     21 C           7.7842   -2.1267   19.2187 C.ar    1  UNL1        0.0031
     22 C           6.9353   -2.0503   17.9844 C.ar    1  UNL1        0.0001
     23 C           5.6005   -2.7338   17.9487 C.ar    1  UNL1        0.0069
     24 C           5.1148   -3.4938   19.1472 C.ar    1  UNL1        0.1058
     25 C           3.7801   -4.1774   19.1115 C.3     1  UNL1        0.4214
     26 F           2.4454   -4.8609   19.0758 F       1  UNL1       -0.1657
     27 F           3.1397   -2.9581   19.7059 F       1  UNL1       -0.1657
     28 F           4.4204   -5.3966   18.5171 F       1  UNL1       -0.1657
@<TRIPOS>BOND
     1    16    17    1
     2    17     1    1
     3     1     2   ar
     4     2     3   ar
     5     3     7    1
     6     7     8    2
     7     8     9    1
     8     9    10    1
     9    10    11    2
    10    10    12   am
    11    12    13   am
    12    13    14    2
    13     3     4   ar
    14     4     5   ar
    15     5     6   ar
    16     6    18    1
    17    18    19    1
    18    19    20   ar
    19    20    21   ar
    20    21    22   ar
    21    22    23   ar
    22    23    24   ar
    23    24    25    1
    24    25    26    1
    25    25    27    1
    26    25    28    1
    27     6     1   ar
    28    24    19   ar
    29    13     8    1
    30    12    15    1
@<TRIPOS>MOLECULE
*****
 28 30 0 0 0
SMALL
GASTEIGER

@<TRIPOS>ATOM
      1 C           5.8799   -3.9632   23.0508 C.ar    1  UNL1        0.1730
      2 C           6.3903   -3.9617   24.4612 C.ar    1  UNL1        0.0401
      3 C           7.8059   -4.3675   24.7470 C.ar    1  UNL1        0.0039
      4 C           8.7109   -4.7747   23.6223 C.ar    1  UNL1        0.0034
      5 C           8.2004   -4.7762   22.2118 C.ar    1  UNL1        0.0406
      6 C           6.7849   -4.3705   21.9261 C.ar    1  UNL1        0.1789
      7 C           8.3163   -4.3660   26.1575 C.2     1  UNL1        0.0113
      8 C           8.3607   -5.6447   26.9404 C.2     1  UNL1        0.0873
      9 S           7.9306   -6.9950   26.4486 S.3     1  UNL1       -0.0254
     10 C           8.1470   -7.9824   27.5568 C.2     1  UNL1        0.2832
     11 O           7.8514   -9.4519   27.4985 O.2     1  UNL1       -0.2622
     12 N           8.7108   -7.2425   28.7335 N.am    1  UNL1       -0.2425
     13 C           8.8428   -5.7977   28.3525 C.2     1  UNL1        0.2583
     14 O           9.3654   -4.6988   29.2297 O.2     1  UNL1       -0.2692
     15 H           8.9518   -7.6360   29.6031 H       1  UNL1        0.1587
     16 C           4.0864   -2.1059   22.7612 C.3     1  UNL1        0.2526
     17 O           4.4643   -3.5575   22.7651 O.3     1  UNL1       -0.4684
     18 O           6.2744   -4.3720   20.5156 O.3     1  UNL1       -0.4505
     19 C           6.1556   -3.0819   19.7596 C.ar    1  UNL1        0.1493
     20 C           7.2912   -2.1019   19.7653 C.ar    1  UNL1        0.0374
     21 C           7.1723   -0.8117   19.0093 C.ar    1  UNL1        0.0031
     22 C           5.9178   -0.5017   18.2476 C.ar    1  UNL1        0.0001
     23 C           4.7823   -1.4817   18.2419 C.ar    1  UNL1        0.0069
     24 C           4.9011   -2.7718   18.9979 C.ar    1  UNL1        0.1058
     25 C           3.7655   -3.7518   18.9922 C.3     1  UNL1        0.4214
     26 F           2.6300   -4.7318   18.9864 F       1  UNL1       -0.1657
     27 F           2.9144   -2.7699   19.7415 F       1  UNL1       -0.1657
     28 F           4.6167   -4.7337   18.2428 F       1  UNL1       -0.1657
@<TRIPOS>BOND
     1    16    17    1
     2    17     1    1
     3     1     2   ar
     4     2     3   ar
     5     3     7    1
     6     7     8    2
     7     8     9    1
     8     9    10    1
     9    10    11    2
    10    10    12   am
    11    12    13   am
    12    13    14    2
    13     3     4   ar
    14     4     5   ar
    15     5     6   ar
    16     6    18    1
    17    18    19    1
    18    19    20   ar
    19    20    21   ar
    20    21    22   ar
    21    22    23   ar
    22    23    24   ar
    23    24    25    1
    24    25    26    1
    25    25    27    1
    26    25    28    1
    27     6     1   ar
    28    24    19   ar
    29    13     8    1
    30    12    15    1
@<TRIPOS>MOLECULE
*****
 28 30 0 0 0
SMALL
GASTEIGER

@<TRIPOS>ATOM
      1 C           6.6593   -4.4047   23.9588 C.ar    1  UNL1        0.1730
      2 C           6.8660   -3.8562   25.3396 C.ar    1  UNL1        0.0401
      3 C           6.1138   -2.6362   25.7823 C.ar    1  UNL1        0.0039
      4 C           5.1551   -1.9648   24.8443 C.ar    1  UNL1        0.0034
      5 C           4.9485   -2.5132   23.4636 C.ar    1  UNL1        0.0406
      6 C           5.7006   -3.7332   23.0209 C.ar    1  UNL1        0.1789
      7 C           6.3205   -2.0878   27.1631 C.2     1  UNL1        0.0113
      8 C           5.1643   -1.5022   27.9183 C.2     1  UNL1        0.0873
      9 S           3.7517   -1.3967   27.4251 S.3     1  UNL1       -0.0254
     10 C           2.9321   -0.7485   28.5012 C.2     1  UNL1        0.2832
     11 O           1.4641   -0.4483   28.4313 O.2     1  UNL1       -0.2622
     12 N           3.8382   -0.4534   29.6596 N.am    1  UNL1       -0.2425
     13 C           5.2178   -0.9191   29.2993 C.2     1  UNL1        0.2583
     14 O           6.4368   -0.8194   30.1676 O.2     1  UNL1       -0.2692
     15 H           3.5739   -0.0285   30.5075 H       1  UNL1        0.1587
     16 C           8.6784   -5.4791   22.7264 C.3     1  UNL1        0.2526
     17 O           7.4115   -5.6246   23.5161 O.3     1  UNL1       -0.4684
     18 O           5.4939   -4.2816   21.6400 O.3     1  UNL1       -0.4505
     19 C           6.0052   -3.5268   20.4489 C.ar    1  UNL1        0.1493
     20 C           7.3333   -2.8327   20.5144 C.ar    1  UNL1        0.0374
     21 C           7.8446   -2.0778   19.3232 C.ar    1  UNL1        0.0031
     22 C           7.0278   -2.0171   18.0666 C.ar    1  UNL1        0.0001
     23 C           5.6996   -2.7112   18.0012 C.ar    1  UNL1        0.0069
     24 C           5.1884   -3.4660   19.1923 C.ar    1  UNL1        0.1058
     25 C           3.8602   -4.1602   19.1268 C.3     1  UNL1        0.4214
     26 F           2.5321   -4.8543   19.0613 F       1  UNL1       -0.1657
     27 F           4.4993   -5.3160   18.4158 F       1  UNL1       -0.1657
     28 F           3.2211   -3.0043   19.8378 F       1  UNL1       -0.1657
@<TRIPOS>BOND
     1    16    17    1
     2    17     1    1
     3     1     2   ar
     4     2     3   ar
     5     3     7    1
     6     7     8    2
     7     8     9    1
     8     9    10    1
     9    10    11    2
    10    10    12   am
    11    12    13   am
    12    13    14    2
    13     3     4   ar
    14     4     5   ar
    15     5     6   ar
    16     6    18    1
    17    18    19    1
    18    19    20   ar
    19    20    21   ar
    20    21    22   ar
    21    22    23   ar
    22    23    24   ar
    23    24    25    1
    24    25    26    1
    25    25    27    1
    26    25    28    1
    27     6     1   ar
    28    24    19   ar
    29    13     8    1
    30    12    15    1
@<TRIPOS>MOLECULE
*****
 28 30 0 0 0
SMALL
GASTEIGER

@<TRIPOS>ATOM
      1 C           7.7392   -3.6157   22.3718 C.ar    1  UNL1        0.1730
      2 C           7.6812   -3.4102   23.8565 C.ar    1  UNL1        0.0401
      3 C           6.3555   -3.2552   24.5410 C.ar    1  UNL1        0.0039
      4 C           5.0879   -3.3057   23.7408 C.ar    1  UNL1        0.0034
      5 C           5.1459   -3.5112   22.2561 C.ar    1  UNL1        0.0406
      6 C           6.4716   -3.6662   21.5716 C.ar    1  UNL1        0.1789
      7 C           6.2976   -3.0498   26.0258 C.2     1  UNL1        0.0113
      8 C           6.7110   -4.1545   26.9525 C.2     1  UNL1        0.0873
      9 S           7.2011   -5.5117   26.5430 S.3     1  UNL1       -0.0254
     10 C           7.4999   -6.2920   27.7888 C.2     1  UNL1        0.2832
     11 O           8.0139   -7.7000   27.8453 O.2     1  UNL1       -0.2622
     12 N           7.1943   -5.4170   28.9682 N.am    1  UNL1       -0.2425
     13 C           6.7067   -4.0959   28.4513 C.2     1  UNL1        0.2583
     14 O           6.2884   -2.9224   29.2866 O.2     1  UNL1       -0.2692
     15 H           7.2959   -5.6660   29.9153 H       1  UNL1        0.1587
     16 C           9.5359   -5.1303   21.2638 C.3     1  UNL1        0.2526
     17 O           9.0649   -3.7707   21.6873 O.3     1  UNL1       -0.4684
     18 O           6.5295   -3.8716   20.0868 O.3     1  UNL1       -0.4505
     19 C           6.0927   -2.7758   19.1604 C.ar    1  UNL1        0.1493
     20 C           7.0497   -1.6824   18.7882 C.ar    1  UNL1        0.0374
     21 C           6.6129   -0.5865   17.8618 C.ar    1  UNL1        0.0031
     22 C           5.2191   -0.5840   17.3075 C.ar    1  UNL1        0.0001
     23 C           4.2620   -1.6775   17.6797 C.ar    1  UNL1        0.0069
     24 C           4.6988   -2.7733   18.6061 C.ar    1  UNL1        0.1058
     25 C           3.7418   -3.8667   18.9783 C.3     1  UNL1        0.4214
     26 F           2.7848   -4.9602   19.3505 F       1  UNL1       -0.1657
     27 F           4.5568   -4.8485   18.1897 F       1  UNL1       -0.1657
     28 F           2.9268   -2.8850   19.7669 F       1  UNL1       -0.1657
@<TRIPOS>BOND
     1    16    17    1
     2    17     1    1
     3     1     2   ar
     4     2     3   ar
     5     3     7    1
     6     7     8    2
     7     8     9    1
     8     9    10    1
     9    10    11    2
    10    10    12   am
    11    12    13   am
    12    13    14    2
    13     3     4   ar
    14     4     5   ar
    15     5     6   ar
    16     6    18    1
    17    18    19    1
    18    19    20   ar
    19    20    21   ar
    20    21    22   ar
    21    22    23   ar
    22    23    24   ar
    23    24    25    1
    24    25    26    1
    25    25    27    1
    26    25    28    1
    27     6     1   ar
    28    24    19   ar
    29    13     8    1
    30    12    15    1
@<TRIPOS>MOLECULE
*****
 28 30 0 0 0
SMALL
GASTEIGER

@<TRIPOS>ATOM
      1 C           1.2480    0.4673   20.9915 C.ar    1  UNL1        0.1730
      2 C           1.0327    1.6115   21.9372 C.ar    1  UNL1        0.0401
      3 C           1.8198    1.6895   23.2117 C.ar    1  UNL1        0.0039
      4 C           2.8222    0.6232   23.5405 C.ar    1  UNL1        0.0034
      5 C           3.0375   -0.5210   22.5948 C.ar    1  UNL1        0.0406
      6 C           2.2505   -0.5990   21.3203 C.ar    1  UNL1        0.1789
      7 C           1.6045    2.8338   24.1574 C.2     1  UNL1        0.0113
      8 C           0.8403    2.6209   25.4305 C.2     1  UNL1        0.0873
      9 S           0.2355    1.3275   25.8901 S.3     1  UNL1       -0.0254
     10 C          -0.4318    1.5713   27.2112 C.2     1  UNL1        0.2832
     11 O          -1.1631    0.5502   28.0313 O.2     1  UNL1       -0.2622
     12 N          -0.2393    3.0154   27.5681 N.am    1  UNL1       -0.2425
     13 C           0.5469    3.6641   26.4676 C.2     1  UNL1        0.2583
     14 O           0.9661    5.1033   26.4137 O.2     1  UNL1       -0.2692
     15 H          -0.5708    3.4595   28.3818 H       1  UNL1        0.1587
     16 C           0.9820    1.0448   18.4724 C.3     1  UNL1        0.2526
     17 O           0.4610    0.3894   19.7169 O.3     1  UNL1       -0.4684
     18 O           2.4658   -1.7433   20.3746 O.3     1  UNL1       -0.4505
     19 C           3.7098   -1.8013   19.5385 C.ar    1  UNL1        0.1493
     20 C           4.3023   -0.5386   18.9868 C.ar    1  UNL1        0.0374
     21 C           5.5464   -0.5967   18.1507 C.ar    1  UNL1        0.0031
     22 C           6.1979   -1.9175   17.8664 C.ar    1  UNL1        0.0001
     23 C           5.6055   -3.1803   18.4182 C.ar    1  UNL1        0.0069
     24 C           4.3614   -3.1222   19.2542 C.ar    1  UNL1        0.1058
     25 C           3.7690   -4.3850   19.8060 C.3     1  UNL1        0.4214
     26 F           3.1765   -5.6477   20.3578 F       1  UNL1       -0.1657
     27 F           2.9042   -4.5118   18.5870 F       1  UNL1       -0.1657
     28 F           4.6338   -4.2581   21.0250 F       1  UNL1       -0.1657
@<TRIPOS>BOND
     1    16    17    1
     2    17     1    1
     3     1     2   ar
     4     2     3   ar
     5     3     7    1
     6     7     8    2
     7     8     9    1
     8     9    10    1
     9    10    11    2
    10    10    12   am
    11    12    13   am
    12    13    14    2
    13     3     4   ar
    14     4     5   ar
    15     5     6   ar
    16     6    18    1
    17    18    19    1
    18    19    20   ar
    19    20    21   ar
    20    21    22   ar
    21    22    23   ar
    22    23    24   ar
    23    24    25    1
    24    25    26    1
    25    25    27    1
    26    25    28    1
    27     6     1   ar
    28    24    19   ar
    29    13     8    1
    30    12    15    1
@<TRIPOS>MOLECULE
*****
 28 30 0 0 0
SMALL
GASTEIGER

@<TRIPOS>ATOM
      1 C           2.6003   -0.3464   22.0871 C.ar    1  UNL1        0.1730
      2 C           2.2266    0.8197   22.9534 C.ar    1  UNL1        0.0401
      3 C           1.0743    1.7002   22.5698 C.ar    1  UNL1        0.0039
      4 C           0.2959    1.4146   21.3199 C.ar    1  UNL1        0.0034
      5 C           0.6696    0.2485   20.4536 C.ar    1  UNL1        0.0406
      6 C           1.8218   -0.6320   20.8372 C.ar    1  UNL1        0.1789
      7 C           0.7006    2.8663   23.4362 C.2     1  UNL1        0.0113
      8 C           0.1847    2.6336   24.8253 C.2     1  UNL1        0.0873
      9 S          -0.0104    1.2989   25.4814 S.3     1  UNL1       -0.0254
     10 C          -0.5424    1.5351   26.8638 C.2     1  UNL1        0.2832
     11 O          -0.8812    0.4765   27.8710 O.2     1  UNL1       -0.2622
     12 N          -0.6761    3.0159   27.0622 N.am    1  UNL1       -0.2425
     13 C          -0.2267    3.6948   25.8024 C.2     1  UNL1        0.2583
     14 O          -0.1944    5.1750   25.5618 O.2     1  UNL1       -0.2692
     15 H          -1.0016    3.4636   27.8764 H       1  UNL1        0.1587
     16 C           5.1598   -0.7349   22.3055 C.3     1  UNL1        0.2526
     17 O           3.7525   -1.2269   22.4707 O.3     1  UNL1       -0.4684
     18 O           2.1956   -1.7981   19.9708 O.3     1  UNL1       -0.4505
     19 C           3.5077   -1.8023   19.2440 C.ar    1  UNL1        0.1493
     20 C           4.0206   -0.5410   18.6147 C.ar    1  UNL1        0.0374
     21 C           5.3328   -0.5453   17.8878 C.ar    1  UNL1        0.0031
     22 C           6.1320   -1.8109   17.7903 C.ar    1  UNL1        0.0001
     23 C           5.6191   -3.0722   18.4197 C.ar    1  UNL1        0.0069
     24 C           4.3070   -3.0680   19.1465 C.ar    1  UNL1        0.1058
     25 C           3.7941   -4.3293   19.7758 C.3     1  UNL1        0.4214
     26 F           3.2812   -5.5906   20.4051 F       1  UNL1       -0.1657
     27 F           2.8854   -4.5454   18.6021 F       1  UNL1       -0.1657
     28 F           4.7027   -4.1132   20.9495 F       1  UNL1       -0.1657
@<TRIPOS>BOND
     1    16    17    1
     2    17     1    1
     3     1     2   ar
     4     2     3   ar
     5     3     7    1
     6     7     8    2
     7     8     9    1
     8     9    10    1
     9    10    11    2
    10    10    12   am
    11    12    13   am
    12    13    14    2
    13     3     4   ar
    14     4     5   ar
    15     5     6   ar
    16     6    18    1
    17    18    19    1
    18    19    20   ar
    19    20    21   ar
    20    21    22   ar
    21    22    23   ar
    22    23    24   ar
    23    24    25    1
    24    25    26    1
    25    25    27    1
    26    25    28    1
    27     6     1   ar
    28    24    19   ar
    29    13     8    1
    30    12    15    1
@<TRIPOS>MOLECULE
*****
 28 30 0 0 0
SMALL
GASTEIGER

@<TRIPOS>ATOM
      1 C           6.3522   -2.0014   20.9113 C.ar    1  UNL1        0.1730
      2 C           7.0640   -2.2365   22.2105 C.ar    1  UNL1        0.0401
      3 C           6.3871   -3.0018   23.3087 C.ar    1  UNL1        0.0039
      4 C           4.9984   -3.5320   23.1078 C.ar    1  UNL1        0.0034
      5 C           4.2866   -3.2969   21.8085 C.ar    1  UNL1        0.0406
      6 C           4.9635   -2.5316   20.7103 C.ar    1  UNL1        0.1789
      7 C           7.0990   -3.2369   24.6080 C.2     1  UNL1        0.0113
      8 C           7.9200   -4.4775   24.7996 C.2     1  UNL1        0.0873
      9 S           8.1211   -5.5666   23.7879 S.3     1  UNL1       -0.0254
     10 C           9.0095   -6.6091   24.3995 C.2     1  UNL1        0.2832
     11 O           9.4693   -7.8742   23.7376 O.2     1  UNL1       -0.2622
     12 N           9.3575   -6.1643   25.7891 N.am    1  UNL1       -0.2425
     13 C           8.6841   -4.8469   26.0364 C.2     1  UNL1        0.2583
     14 O           8.7613   -4.0405   27.2988 O.2     1  UNL1       -0.2692
     15 H           9.9277   -6.6514   26.4269 H       1  UNL1        0.1587
     16 C           7.5871   -1.9634   18.6258 C.3     1  UNL1        0.2526
     17 O           7.0290   -1.2361   19.8130 O.3     1  UNL1       -0.4684
     18 O           4.2516   -2.2965   19.4110 O.3     1  UNL1       -0.4505
     19 C           3.1975   -1.2337   19.3149 C.ar    1  UNL1        0.1493
     20 C           1.9925   -1.2897   20.2065 C.ar    1  UNL1        0.0374
     21 C           0.9384   -0.2268   20.1104 C.ar    1  UNL1        0.0031
     22 C           1.0893    0.8920   19.1228 C.ar    1  UNL1        0.0001
     23 C           2.2943    0.9480   18.2312 C.ar    1  UNL1        0.0069
     24 C           3.3484   -0.1148   18.3273 C.ar    1  UNL1        0.1058
     25 C           4.5534   -0.0588   17.4357 C.3     1  UNL1        0.4214
     26 F           5.7583   -0.0028   16.5442 F       1  UNL1       -0.1657
     27 F           3.8460   -0.9133   16.4260 F       1  UNL1       -0.1657
     28 F           5.2607    0.7957   18.4454 F       1  UNL1       -0.1657
@<TRIPOS>BOND
     1    16    17    1
     2    17     1    1
     3     1     2   ar
     4     2     3   ar
     5     3     7    1
     6     7     8    2
     7     8     9    1
     8     9    10    1
     9    10    11    2
    10    10    12   am
    11    12    13   am
    12    13    14    2
    13     3     4   ar
    14     4     5   ar
    15     5     6   ar
    16     6    18    1
    17    18    19    1
    18    19    20   ar
    19    20    21   ar
    20    21    22   ar
    21    22    23   ar
    22    23    24   ar
    23    24    25    1
    24    25    26    1
    25    25    27    1
    26    25    28    1
    27     6     1   ar
    28    24    19   ar
    29    13     8    1
    30    12    15    1
