@<TRIPOS>MOLECULE
*****
 30 33 0 0 0
SMALL
GASTEIGER

@<TRIPOS>ATOM
      1 C          -9.4043  -18.9855   21.2056 C.ar    1  UNL1        0.1564
      2 N          -8.8577  -18.9266   19.8100 N.ar    1  UNL1       -0.2274
      3 C          -7.5276  -19.5462   19.4988 C.ar    1  UNL1        0.0965
      4 C          -6.7441  -20.2247   20.5831 C.ar    1  UNL1        0.0037
      5 C          -7.2907  -20.2836   21.9787 C.ar    1  UNL1        0.0301
      6 C          -8.6208  -19.6640   22.2899 C.ar    1  UNL1        0.1710
      7 F          -9.1674  -19.7229   23.6855 F       1  UNL1       -0.2012
      8 N         -10.7344  -18.3659   21.5169 N.pl3   1  UNL1       -0.3126
      9 H         -11.5632  -18.8717   21.3539 H       1  UNL1        0.1486
     10 C         -10.8018  -16.9758   22.0765 C.3     1  UNL1        0.1170
     11 C          -7.2882  -15.2803   24.3191 C.ar    1  UNL1        0.2250
     12 C          -8.4182  -15.9212   25.0691 C.ar    1  UNL1        0.0574
     13 C          -9.5894  -16.4864   24.3215 C.ar    1  UNL1        0.0037
     14 C          -9.6306  -16.4106   22.8240 C.ar    1  UNL1        0.0168
     15 C          -8.5007  -15.7698   22.0740 C.ar    1  UNL1        0.0994
     16 N          -7.3295  -15.2046   22.8216 N.ar    1  UNL1       -0.2104
     17 C          -5.8554  -15.1383   26.4817 C.3     1  UNL1        0.2542
     18 O          -6.1170  -14.7151   25.0666 O.3     1  UNL1       -0.4561
     19 C          -5.4140  -20.8443   20.2718 C.3     1  UNL1        0.0559
     20 C          -4.1912  -19.9819   20.1657 C.ar    1  UNL1        0.0043
     21 C          -3.2743  -19.8940   18.9819 C.ar    1  UNL1        0.0966
     22 N          -2.1872  -18.9137   19.3095 N.ar    1  UNL1       -0.2273
     23 C          -2.4323  -18.3958   20.6958 C.ar    1  UNL1        0.1402
     24 N          -1.6877  -17.4083   21.5446 N.ar    1  UNL1       -0.3377
     25 C          -2.1817  -17.0811   22.9225 C.ar    1  UNL1        0.0691
     26 C          -3.4203  -17.7412   23.4517 C.ar    1  UNL1       -0.0047
     27 C          -3.9143  -17.4139   24.8297 C.3     1  UNL1        0.0326
     28 C          -4.1649  -18.7287   22.6029 C.ar    1  UNL1       -0.0001
     29 C          -3.6709  -19.0560   21.2250 C.ar    1  UNL1        0.0315
     30 H          -0.8748  -16.9750   21.1972 H       1  UNL1        0.1674
@<TRIPOS>BOND
     1    17    18    1
     2    18    11    1
     3    11    12   ar
     4    12    13   ar
     5    13    14   ar
     6    14    10    1
     7    10     8    1
     8     8     1    1
     9     1     2   ar
    10     2     3   ar
    11     3     4   ar
    12     4    19    1
    13    19    20    1
    14    20    21   ar
    15    21    22   ar
    16    22    23   ar
    17    23    24   ar
    18    24    25   ar
    19    25    26   ar
    20    26    27    1
    21    26    28   ar
    22    28    29   ar
    23     4     5   ar
    24     5     6   ar
    25     6     7    1
    26    14    15   ar
    27    15    16   ar
    28    16    11   ar
    29     6     1   ar
    30    29    20   ar
    31    29    23    1
    32     8     9    1
    33    24    30    1
@<TRIPOS>MOLECULE
*****
 30 33 0 0 0
SMALL
GASTEIGER

@<TRIPOS>ATOM
      1 C          -8.4038  -16.0734   26.1799 C.ar    1  UNL1        0.1564
      2 N          -8.8216  -17.4285   26.6688 N.ar    1  UNL1       -0.2274
      3 C          -9.6682  -18.3110   25.8002 C.ar    1  UNL1        0.0965
      4 C         -10.0970  -17.8384   24.4428 C.ar    1  UNL1        0.0037
      5 C          -9.6793  -16.4833   23.9538 C.ar    1  UNL1        0.0301
      6 C          -8.8327  -15.6008   24.8224 C.ar    1  UNL1        0.1710
      7 F          -8.4149  -14.2456   24.3334 F       1  UNL1       -0.2012
      8 N          -7.5572  -15.1908   27.0484 N.pl3   1  UNL1       -0.3126
      9 H          -7.9811  -14.5128   27.6227 H       1  UNL1        0.1486
     10 C          -6.0648  -15.3413   27.0419 C.3     1  UNL1        0.1170
     11 C          -3.9499  -16.6340   23.2862 C.ar    1  UNL1        0.2250
     12 C          -3.8955  -17.4964   24.5123 C.ar    1  UNL1        0.0574
     13 C          -4.6005  -17.0654   25.7642 C.ar    1  UNL1        0.0037
     14 C          -5.3598  -15.7721   25.7900 C.ar    1  UNL1        0.0168
     15 C          -5.4142  -14.9097   24.5639 C.ar    1  UNL1        0.0994
     16 N          -4.7092  -15.3407   23.3120 N.ar    1  UNL1       -0.2104
     17 C          -2.0140  -16.3386   21.5788 C.3     1  UNL1        0.2542
     18 O          -3.2449  -17.0648   22.0342 O.3     1  UNL1       -0.4561
     19 C         -10.9437  -18.7210   23.5742 C.3     1  UNL1        0.0559
     20 C         -10.6382  -18.8491   22.1112 C.ar    1  UNL1        0.0043
     21 C         -11.6257  -18.7191   20.9896 C.ar    1  UNL1        0.0966
     22 N         -10.8892  -18.9193   19.6983 N.ar    1  UNL1       -0.2273
     23 C          -9.4467  -19.1730   20.0218 C.ar    1  UNL1        0.1402
     24 N          -8.2544  -19.4379   19.1510 N.ar    1  UNL1       -0.3377
     25 C          -6.9069  -19.6593   19.7716 C.ar    1  UNL1        0.0691
     26 C          -6.7517  -19.6159   21.2630 C.ar    1  UNL1       -0.0047
     27 C          -5.4041  -19.8374   21.8836 C.3     1  UNL1        0.0326
     28 C          -7.9440  -19.3510   22.1337 C.ar    1  UNL1       -0.0001
     29 C          -9.2915  -19.1296   21.5131 C.ar    1  UNL1        0.0315
     30 H          -8.3562  -19.4664   18.1722 H       1  UNL1        0.1674
@<TRIPOS>BOND
     1    17    18    1
     2    18    11    1
     3    11    12   ar
     4    12    13   ar
     5    13    14   ar
     6    14    10    1
     7    10     8    1
     8     8     1    1
     9     1     2   ar
    10     2     3   ar
    11     3     4   ar
    12     4    19    1
    13    19    20    1
    14    20    21   ar
    15    21    22   ar
    16    22    23   ar
    17    23    24   ar
    18    24    25   ar
    19    25    26   ar
    20    26    27    1
    21    26    28   ar
    22    28    29   ar
    23     4     5   ar
    24     5     6   ar
    25     6     7    1
    26    14    15   ar
    27    15    16   ar
    28    16    11   ar
    29     6     1   ar
    30    29    20   ar
    31    29    23    1
    32     8     9    1
    33    24    30    1
@<TRIPOS>MOLECULE
*****
 30 33 0 0 0
SMALL
GASTEIGER

@<TRIPOS>ATOM
      1 C          -9.7249  -19.3473   21.6265 C.ar    1  UNL1        0.1564
      2 N          -8.7962  -19.8340   22.6991 N.ar    1  UNL1       -0.2274
      3 C          -7.3629  -20.1313   22.3720 C.ar    1  UNL1        0.0965
      4 C          -6.8581  -19.9419   20.9722 C.ar    1  UNL1        0.0037
      5 C          -7.7868  -19.4551   19.8995 C.ar    1  UNL1        0.0301
      6 C          -9.2202  -19.1578   20.2267 C.ar    1  UNL1        0.1710
      7 F         -10.1488  -18.6711   19.1540 F       1  UNL1       -0.2012
      8 N         -11.1583  -19.0499   21.9535 N.pl3   1  UNL1       -0.3126
      9 H         -11.8522  -19.1523   21.2627 H       1  UNL1        0.1486
     10 C         -11.5344  -18.5967   23.3331 C.3     1  UNL1        0.1170
     11 C          -8.5515  -16.3694   25.8611 C.ar    1  UNL1        0.2250
     12 C          -9.0852  -15.7452   24.6059 C.ar    1  UNL1        0.0574
     13 C         -10.0795  -16.4877   23.7632 C.ar    1  UNL1        0.0037
     14 C         -10.5401  -17.8543   24.1758 C.ar    1  UNL1        0.0168
     15 C         -10.0064  -18.4785   25.4310 C.ar    1  UNL1        0.0994
     16 N          -9.0121  -17.7360   26.2736 N.ar    1  UNL1       -0.2104
     17 C          -6.1316  -15.5085   26.2523 C.3     1  UNL1        0.2542
     18 O          -7.5572  -15.6270   26.7038 O.3     1  UNL1       -0.4561
     19 C          -5.4247  -20.2392   20.6451 C.3     1  UNL1        0.0559
     20 C          -4.3285  -19.4337   21.2772 C.ar    1  UNL1        0.0043
     21 C          -4.1570  -19.1772   22.7451 C.ar    1  UNL1        0.0966
     22 N          -2.9339  -18.3283   22.9275 N.ar    1  UNL1       -0.2273
     23 C          -2.3495  -18.0600   21.5723 C.ar    1  UNL1        0.1402
     24 N          -1.1439  -17.2820   21.1352 N.ar    1  UNL1       -0.3377
     25 C          -0.8002  -17.1871   19.6782 C.ar    1  UNL1        0.0691
     26 C          -1.6621  -17.8703   18.6583 C.ar    1  UNL1       -0.0047
     27 C          -1.3184  -17.7754   17.2013 C.3     1  UNL1        0.0326
     28 C          -2.8678  -18.6484   19.0954 C.ar    1  UNL1       -0.0001
     29 C          -3.2114  -18.7432   20.5523 C.ar    1  UNL1        0.0315
     30 H          -0.5781  -16.8336   21.8046 H       1  UNL1        0.1674
@<TRIPOS>BOND
     1    17    18    1
     2    18    11    1
     3    11    12   ar
     4    12    13   ar
     5    13    14   ar
     6    14    10    1
     7    10     8    1
     8     8     1    1
     9     1     2   ar
    10     2     3   ar
    11     3     4   ar
    12     4    19    1
    13    19    20    1
    14    20    21   ar
    15    21    22   ar
    16    22    23   ar
    17    23    24   ar
    18    24    25   ar
    19    25    26   ar
    20    26    27    1
    21    26    28   ar
    22    28    29   ar
    23     4     5   ar
    24     5     6   ar
    25     6     7    1
    26    14    15   ar
    27    15    16   ar
    28    16    11   ar
    29     6     1   ar
    30    29    20   ar
    31    29    23    1
    32     8     9    1
    33    24    30    1
@<TRIPOS>MOLECULE
*****
 30 33 0 0 0
SMALL
GASTEIGER

@<TRIPOS>ATOM
      1 C          -6.2772  -15.7902   24.5173 C.ar    1  UNL1        0.1564
      2 N          -6.6790  -15.5808   23.0874 N.ar    1  UNL1       -0.2274
      3 C          -8.1252  -15.6542   22.6963 C.ar    1  UNL1        0.0965
      4 C          -9.1697  -15.9369   23.7352 C.ar    1  UNL1        0.0037
      5 C          -8.7679  -16.1462   25.1651 C.ar    1  UNL1        0.0301
      6 C          -7.3217  -16.0728   25.5561 C.ar    1  UNL1        0.1710
      7 F          -6.9199  -16.2821   26.9861 F       1  UNL1       -0.2012
      8 N          -4.8310  -15.7168   24.9084 N.pl3   1  UNL1       -0.3126
      9 H          -4.4640  -14.8835   25.2828 H       1  UNL1        0.1486
     10 C          -3.9439  -16.9131   24.7293 C.3     1  UNL1        0.1170
     11 C          -2.8329  -18.2909   20.5920 C.ar    1  UNL1        0.2250
     12 C          -3.5593  -19.2176   21.5213 C.ar    1  UNL1        0.0574
     13 C          -3.9296  -18.7582   22.9004 C.ar    1  UNL1        0.0037
     14 C          -3.5735  -17.3723   23.3502 C.ar    1  UNL1        0.0168
     15 C          -2.8470  -16.4456   22.4209 C.ar    1  UNL1        0.0994
     16 N          -2.4767  -16.9050   21.0418 N.ar    1  UNL1       -0.2104
     17 C          -1.7464  -17.8195   18.2796 C.3     1  UNL1        0.2542
     18 O          -2.4625  -18.7501   19.2130 O.3     1  UNL1       -0.4561
     19 C         -10.6160  -16.0102   23.3440 C.3     1  UNL1        0.0559
     20 C         -11.0100  -16.6458   22.0437 C.ar    1  UNL1        0.0043
     21 C         -12.2485  -16.3426   21.2537 C.ar    1  UNL1        0.0966
     22 N         -12.2385  -17.2056   20.0269 N.ar    1  UNL1       -0.2273
     23 C         -10.9939  -18.0422   20.0587 C.ar    1  UNL1        0.1402
     24 N         -10.4539  -19.0744   19.1137 N.ar    1  UNL1       -0.3377
     25 C          -9.1546  -19.7605   19.4153 C.ar    1  UNL1        0.0691
     26 C          -8.3953  -19.4145   20.6618 C.ar    1  UNL1       -0.0047
     27 C          -7.0959  -20.1007   20.9633 C.3     1  UNL1        0.0326
     28 C          -8.9353  -18.3824   21.6067 C.ar    1  UNL1       -0.0001
     29 C         -10.2346  -17.6963   21.3052 C.ar    1  UNL1        0.0315
     30 H         -10.9522  -19.3014   18.2956 H       1  UNL1        0.1674
@<TRIPOS>BOND
     1    17    18    1
     2    18    11    1
     3    11    12   ar
     4    12    13   ar
     5    13    14   ar
     6    14    10    1
     7    10     8    1
     8     8     1    1
     9     1     2   ar
    10     2     3   ar
    11     3     4   ar
    12     4    19    1
    13    19    20    1
    14    20    21   ar
    15    21    22   ar
    16    22    23   ar
    17    23    24   ar
    18    24    25   ar
    19    25    26   ar
    20    26    27    1
    21    26    28   ar
    22    28    29   ar
    23     4     5   ar
    24     5     6   ar
    25     6     7    1
    26    14    15   ar
    27    15    16   ar
    28    16    11   ar
    29     6     1   ar
    30    29    20   ar
    31    29    23    1
    32     8     9    1
    33    24    30    1
@<TRIPOS>MOLECULE
*****
 30 33 0 0 0
SMALL
GASTEIGER

@<TRIPOS>ATOM
      1 C          -5.6312  -15.6945   25.6272 C.ar    1  UNL1        0.1564
      2 N          -4.7223  -16.6622   26.3255 N.ar    1  UNL1       -0.2274
      3 C          -3.6799  -17.4078   25.5462 C.ar    1  UNL1        0.0965
      4 C          -3.5462  -17.1858   24.0687 C.ar    1  UNL1        0.0037
      5 C          -4.4551  -16.2181   23.3705 C.ar    1  UNL1        0.0301
      6 C          -5.4976  -15.4725   24.1498 C.ar    1  UNL1        0.1710
      7 F          -6.4065  -14.5048   23.4516 F       1  UNL1       -0.2012
      8 N          -6.6737  -14.9489   26.4064 N.pl3   1  UNL1       -0.3126
      9 H          -6.5344  -14.0010   26.6332 H       1  UNL1        0.1486
     10 C          -7.9284  -15.6473   26.8401 C.3     1  UNL1        0.1170
     11 C         -10.4700  -17.7949   23.8107 C.ar    1  UNL1        0.2250
     12 C         -10.0420  -18.4985   25.0644 C.ar    1  UNL1        0.0574
     13 C          -9.1948  -17.7826   26.0742 C.ar    1  UNL1        0.0037
     14 C          -8.7756  -16.3631   25.8303 C.ar    1  UNL1        0.0168
     15 C          -9.2036  -15.6596   24.5766 C.ar    1  UNL1        0.0994
     16 N         -10.0509  -16.3755   23.5668 N.ar    1  UNL1       -0.2104
     17 C         -12.5237  -17.8348   22.2198 C.3     1  UNL1        0.2542
     18 O         -11.3172  -18.5108   22.8009 O.3     1  UNL1       -0.4561
     19 C          -2.5037  -17.9314   23.2895 C.3     1  UNL1        0.0559
     20 C          -2.8584  -18.5639   21.9764 C.ar    1  UNL1        0.0043
     21 C          -1.9518  -18.6980   20.7889 C.ar    1  UNL1        0.0966
     22 N          -2.7151  -19.3902   19.6989 N.ar    1  UNL1       -0.2273
     23 C          -4.0935  -19.6840   20.2127 C.ar    1  UNL1        0.1402
     24 N          -5.2793  -20.3505   19.5807 N.ar    1  UNL1       -0.3377
     25 C          -6.5537  -20.5063   20.3563 C.ar    1  UNL1        0.0691
     26 C          -6.6422  -19.9956   21.7639 C.ar    1  UNL1       -0.0047
     27 C          -7.9167  -20.1514   22.5395 C.3     1  UNL1        0.0326
     28 C          -5.4564  -19.3290   22.3959 C.ar    1  UNL1       -0.0001
     29 C          -4.1820  -19.1732   21.6203 C.ar    1  UNL1        0.0315
     30 H          -5.2212  -20.6857   18.6568 H       1  UNL1        0.1674
@<TRIPOS>BOND
     1    17    18    1
     2    18    11    1
     3    11    12   ar
     4    12    13   ar
     5    13    14   ar
     6    14    10    1
     7    10     8    1
     8     8     1    1
     9     1     2   ar
    10     2     3   ar
    11     3     4   ar
    12     4    19    1
    13    19    20    1
    14    20    21   ar
    15    21    22   ar
    16    22    23   ar
    17    23    24   ar
    18    24    25   ar
    19    25    26   ar
    20    26    27    1
    21    26    28   ar
    22    28    29   ar
    23     4     5   ar
    24     5     6   ar
    25     6     7    1
    26    14    15   ar
    27    15    16   ar
    28    16    11   ar
    29     6     1   ar
    30    29    20   ar
    31    29    23    1
    32     8     9    1
    33    24    30    1
@<TRIPOS>MOLECULE
*****
 30 33 0 0 0
SMALL
GASTEIGER

@<TRIPOS>ATOM
      1 C           6.3848   -2.8401   24.5626 C.ar    1  UNL1        0.1564
      2 N           7.1934   -3.5799   23.5385 N.ar    1  UNL1       -0.2274
      3 C           6.5744   -3.9606   22.2264 C.ar    1  UNL1        0.0965
      4 C           5.1468   -3.6016   21.9383 C.ar    1  UNL1        0.0037
      5 C           4.3381   -2.8618   22.9624 C.ar    1  UNL1        0.0301
      6 C           4.9571   -2.4810   24.2745 C.ar    1  UNL1        0.1710
      7 F           4.1485   -1.7412   25.2986 F       1  UNL1       -0.2012
      8 N           7.0037   -2.4593   25.8748 N.pl3   1  UNL1       -0.3126
      9 H           7.1037   -1.5097   26.1148 H       1  UNL1        0.1486
     10 C           7.4704   -3.5252   26.8214 C.3     1  UNL1        0.1170
     11 C           6.3078   -3.3435   31.1648 C.ar    1  UNL1        0.2250
     12 C           6.9755   -4.5702   30.6178 C.ar    1  UNL1        0.0574
     13 C           7.3631   -4.6307   29.1700 C.ar    1  UNL1        0.0037
     14 C           7.0828   -3.4645   28.2692 C.ar    1  UNL1        0.0168
     15 C           6.4151   -2.2378   28.8162 C.ar    1  UNL1        0.0994
     16 N           6.0276   -2.1773   30.2640 N.ar    1  UNL1       -0.2104
     17 C           4.6928   -2.5279   33.0294 C.3     1  UNL1        0.2542
     18 O           5.9202   -3.2828   32.6126 O.3     1  UNL1       -0.4561
     19 C           4.5278   -3.9824   20.6260 C.3     1  UNL1        0.0559
     20 C           4.5114   -3.0011   19.4916 C.ar    1  UNL1        0.0043
     21 C           5.4736   -2.9670   18.3414 C.ar    1  UNL1        0.0966
     22 N           5.0868   -1.8264   17.4473 N.ar    1  UNL1       -0.2273
     23 C           3.8855   -1.1557   18.0448 C.ar    1  UNL1        0.1402
     24 N           3.0696    0.0223   17.6017 N.ar    1  UNL1       -0.3377
     25 C           1.8980    0.4743   18.4220 C.ar    1  UNL1        0.0691
     26 C           1.5423   -0.2517   19.6855 C.ar    1  UNL1       -0.0047
     27 C           0.3707    0.2004   20.5059 C.3     1  UNL1        0.0326
     28 C           2.3583   -1.4297   20.1287 C.ar    1  UNL1       -0.0001
     29 C           3.5299   -1.8817   19.3083 C.ar    1  UNL1        0.0315
     30 H           3.3030    0.4988   16.7724 H       1  UNL1        0.1674
@<TRIPOS>BOND
     1    17    18    1
     2    18    11    1
     3    11    12   ar
     4    12    13   ar
     5    13    14   ar
     6    14    10    1
     7    10     8    1
     8     8     1    1
     9     1     2   ar
    10     2     3   ar
    11     3     4   ar
    12     4    19    1
    13    19    20    1
    14    20    21   ar
    15    21    22   ar
    16    22    23   ar
    17    23    24   ar
    18    24    25   ar
    19    25    26   ar
    20    26    27    1
    21    26    28   ar
    22    28    29   ar
    23     4     5   ar
    24     5     6   ar
    25     6     7    1
    26    14    15   ar
    27    15    16   ar
    28    16    11   ar
    29     6     1   ar
    30    29    20   ar
    31    29    23    1
    32     8     9    1
    33    24    30    1
@<TRIPOS>MOLECULE
*****
 30 33 0 0 0
SMALL
GASTEIGER

@<TRIPOS>ATOM
      1 C           4.9891   -2.4413   19.1036 C.ar    1  UNL1        0.1564
      2 N           6.2328   -1.6338   19.3296 N.ar    1  UNL1       -0.2274
      3 C           7.1474   -1.9687   20.4704 C.ar    1  UNL1        0.0965
      4 C           6.8184   -3.1111   21.3850 C.ar    1  UNL1        0.0037
      5 C           5.5747   -3.9187   21.1590 C.ar    1  UNL1        0.0301
      6 C           4.6601   -3.5837   20.0183 C.ar    1  UNL1        0.1710
      7 F           3.4164   -4.3913   19.7922 F       1  UNL1       -0.2012
      8 N           4.0744   -2.1065   17.9629 N.pl3   1  UNL1       -0.3126
      9 H           3.7409   -2.8209   17.3733 H       1  UNL1        0.1486
     10 C           3.6679   -0.6831   17.7204 C.3     1  UNL1        0.1170
     11 C           0.4520    1.1992   20.2432 C.ar    1  UNL1        0.2250
     12 C           0.8269   -0.2376   20.4553 C.ar    1  UNL1        0.0574
     13 C           1.8989   -0.8650   19.6143 C.ar    1  UNL1        0.0037
     14 C           2.5959   -0.0556   18.5613 C.ar    1  UNL1        0.0168
     15 C           2.2210    1.3812   18.3491 C.ar    1  UNL1        0.0994
     16 N           1.1491    2.0086   19.1901 N.ar    1  UNL1       -0.2104
     17 C          -1.4884    2.9063   20.5093 C.3     1  UNL1        0.2542
     18 O          -0.6199    1.8267   21.0841 O.3     1  UNL1       -0.4561
     19 C           7.7331   -3.4460   22.5258 C.3     1  UNL1        0.0559
     20 C           7.9925   -4.8796   22.8832 C.ar    1  UNL1        0.0043
     21 C           8.6205   -5.9105   21.9928 C.ar    1  UNL1        0.0966
     22 N           8.6855   -7.2019   22.7531 N.ar    1  UNL1       -0.2273
     23 C           8.0977   -6.9691   24.1134 C.ar    1  UNL1        0.1402
     24 N           7.8971   -7.8786   25.2891 N.ar    1  UNL1       -0.3377
     25 C           7.2682   -7.3529   26.5453 C.ar    1  UNL1        0.0691
     26 C           6.8398   -5.9176   26.6257 C.ar    1  UNL1       -0.0047
     27 C           6.2109   -5.3919   27.8820 C.3     1  UNL1        0.0326
     28 C           7.0404   -5.0081   25.4499 C.ar    1  UNL1       -0.0001
     29 C           7.6693   -5.5338   24.1938 C.ar    1  UNL1        0.0315
     30 H           8.1782   -8.8207   25.2363 H       1  UNL1        0.1674
@<TRIPOS>BOND
     1    17    18    1
     2    18    11    1
     3    11    12   ar
     4    12    13   ar
     5    13    14   ar
     6    14    10    1
     7    10     8    1
     8     8     1    1
     9     1     2   ar
    10     2     3   ar
    11     3     4   ar
    12     4    19    1
    13    19    20    1
    14    20    21   ar
    15    21    22   ar
    16    22    23   ar
    17    23    24   ar
    18    24    25   ar
    19    25    26   ar
    20    26    27    1
    21    26    28   ar
    22    28    29   ar
    23     4     5   ar
    24     5     6   ar
    25     6     7    1
    26    14    15   ar
    27    15    16   ar
    28    16    11   ar
    29     6     1   ar
    30    29    20   ar
    31    29    23    1
    32     8     9    1
    33    24    30    1
@<TRIPOS>MOLECULE
*****
 30 33 0 0 0
SMALL
GASTEIGER

@<TRIPOS>ATOM
      1 C           0.4004    2.0846   23.6201 C.ar    1  UNL1        0.1564
      2 N          -0.3645    2.6220   22.4470 N.ar    1  UNL1       -0.2274
      3 C          -0.1567    2.0334   21.0831 C.ar    1  UNL1        0.0965
      4 C           0.8159    0.9076   20.8922 C.ar    1  UNL1        0.0037
      5 C           1.5808    0.3702   22.0653 C.ar    1  UNL1        0.0301
      6 C           1.3730    0.9588   23.4293 C.ar    1  UNL1        0.1710
      7 F           2.1379    0.4214   24.6024 F       1  UNL1       -0.2012
      8 N           0.1926    2.6731   24.9841 N.pl3   1  UNL1       -0.3126
      9 H           0.5969    3.5413   25.2124 H       1  UNL1        0.1486
     10 C          -0.6310    1.9389   26.0004 C.3     1  UNL1        0.1170
     11 C           1.3670   -0.0250   29.5218 C.ar    1  UNL1        0.2250
     12 C           2.1478    0.9004   28.6365 C.ar    1  UNL1        0.0574
     13 C           1.4818    1.5551   27.4626 C.ar    1  UNL1        0.0037
     14 C           0.0349    1.2843   27.1742 C.ar    1  UNL1        0.0168
     15 C          -0.7459    0.3588   28.0595 C.ar    1  UNL1        0.0994
     16 N          -0.0799   -0.2958   29.2333 N.ar    1  UNL1       -0.2104
     17 C           3.5241   -0.6140   30.8446 C.3     1  UNL1        0.2542
     18 O           2.0329   -0.6796   30.6956 O.3     1  UNL1       -0.4561
     19 C           1.0237    0.3190   19.5281 C.3     1  UNL1        0.0559
     20 C           2.4071    0.2200   18.9568 C.ar    1  UNL1        0.0043
     21 C           3.1980    1.3472   18.3618 C.ar    1  UNL1        0.0966
     22 N           4.5221    0.8002   17.9174 N.ar    1  UNL1       -0.2273
     23 C           4.5496   -0.6649   18.2377 C.ar    1  UNL1        0.1402
     24 N           5.5960   -1.7188   18.0274 N.ar    1  UNL1       -0.3377
     25 C           5.3352   -3.1313   18.4595 C.ar    1  UNL1        0.0691
     26 C           4.0280   -3.4899   19.1019 C.ar    1  UNL1       -0.0047
     27 C           3.7672   -4.9025   19.5340 C.3     1  UNL1        0.0326
     28 C           2.9816   -2.4360   19.3122 C.ar    1  UNL1       -0.0001
     29 C           3.2424   -1.0235   18.8801 C.ar    1  UNL1        0.0315
     30 H           6.4539   -1.4835   17.6058 H       1  UNL1        0.1674
@<TRIPOS>BOND
     1    17    18    1
     2    18    11    1
     3    11    12   ar
     4    12    13   ar
     5    13    14   ar
     6    14    10    1
     7    10     8    1
     8     8     1    1
     9     1     2   ar
    10     2     3   ar
    11     3     4   ar
    12     4    19    1
    13    19    20    1
    14    20    21   ar
    15    21    22   ar
    16    22    23   ar
    17    23    24   ar
    18    24    25   ar
    19    25    26   ar
    20    26    27    1
    21    26    28   ar
    22    28    29   ar
    23     4     5   ar
    24     5     6   ar
    25     6     7    1
    26    14    15   ar
    27    15    16   ar
    28    16    11   ar
    29     6     1   ar
    30    29    20   ar
    31    29    23    1
    32     8     9    1
    33    24    30    1
@<TRIPOS>MOLECULE
*****
 30 33 0 0 0
SMALL
GASTEIGER

@<TRIPOS>ATOM
      1 C          -0.7891    2.2781   20.2941 C.ar    1  UNL1        0.1564
      2 N          -0.2908    0.9153   20.6741 N.ar    1  UNL1       -0.2274
      3 C           0.8725    0.3118   19.9444 C.ar    1  UNL1        0.0965
      4 C           1.5374    1.0710   18.8347 C.ar    1  UNL1        0.0037
      5 C           1.0391    2.4338   18.4547 C.ar    1  UNL1        0.0301
      6 C          -0.1241    3.0374   19.1845 C.ar    1  UNL1        0.1710
      7 F          -0.6224    4.4002   18.8045 F       1  UNL1       -0.2012
      8 N          -1.9523    2.8818   21.0238 N.pl3   1  UNL1       -0.3126
      9 H          -1.8926    3.0496   21.9921 H       1  UNL1        0.1486
     10 C          -3.2067    3.2296   20.2783 C.3     1  UNL1        0.1170
     11 C          -6.9322    4.3478   22.5410 C.ar    1  UNL1        0.2250
     12 C          -6.7950    4.7159   21.0934 C.ar    1  UNL1        0.0574
     13 C          -5.5532    4.3432   20.3392 C.ar    1  UNL1        0.0037
     14 C          -4.4485    3.6023   21.0326 C.ar    1  UNL1        0.0168
     15 C          -4.5857    3.2342   22.4802 C.ar    1  UNL1        0.0994
     16 N          -5.8275    3.6069   23.2344 N.ar    1  UNL1       -0.2104
     17 C          -8.2880    6.0749   23.9299 C.3     1  UNL1        0.2542
     18 O          -8.1740    4.7205   23.2953 O.3     1  UNL1       -0.4561
     19 C           2.7008    0.4674   18.1050 C.3     1  UNL1        0.0559
     20 C           3.9757    0.1738   18.8387 C.ar    1  UNL1        0.0043
     21 C           4.9143    1.1908   19.4173 C.ar    1  UNL1        0.0966
     22 N           6.0546    0.4571   20.0587 N.ar    1  UNL1       -0.2273
     23 C           5.8208   -1.0133   19.8766 C.ar    1  UNL1        0.1402
     24 N           6.6118   -2.2154   20.2999 N.ar    1  UNL1       -0.3377
     25 C           6.1180   -3.5926   19.9692 C.ar    1  UNL1        0.0691
     26 C           4.8332   -3.7677   19.2152 C.ar    1  UNL1       -0.0047
     27 C           4.3394   -5.1450   18.8844 C.3     1  UNL1        0.0326
     28 C           4.0421   -2.5656   18.7918 C.ar    1  UNL1       -0.0001
     29 C           4.5359   -1.1884   19.1225 C.ar    1  UNL1        0.0315
     30 H           7.4550   -2.1004   20.7948 H       1  UNL1        0.1674
@<TRIPOS>BOND
     1    17    18    1
     2    18    11    1
     3    11    12   ar
     4    12    13   ar
     5    13    14   ar
     6    14    10    1
     7    10     8    1
     8     8     1    1
     9     1     2   ar
    10     2     3   ar
    11     3     4   ar
    12     4    19    1
    13    19    20    1
    14    20    21   ar
    15    21    22   ar
    16    22    23   ar
    17    23    24   ar
    18    24    25   ar
    19    25    26   ar
    20    26    27    1
    21    26    28   ar
    22    28    29   ar
    23     4     5   ar
    24     5     6   ar
    25     6     7    1
    26    14    15   ar
    27    15    16   ar
    28    16    11   ar
    29     6     1   ar
    30    29    20   ar
    31    29    23    1
    32     8     9    1
    33    24    30    1
