@<TRIPOS>MOLECULE
*****
 33 35 0 0 0
SMALL
GASTEIGER

@<TRIPOS>ATOM
      1 C          -7.1753  -16.5770   23.9019 C.3     1  UNL1        0.1290
      2 N          -8.6324  -16.9113   23.7792 N.am    1  UNL1       -0.2187
      3 C          -9.4070  -17.8236   24.6835 C.2     1  UNL1        0.2554
      4 O          -8.8604  -18.5618   25.8693 O.2     1  UNL1       -0.2695
      5 C         -10.8241  -17.8681   24.1937 C.ar    1  UNL1        0.0596
      6 C         -12.0353  -18.6000   24.6909 C.ar    1  UNL1        0.0048
      7 C         -13.3478  -18.4470   23.9811 C.ar    1  UNL1        0.0014
      8 C         -13.4491  -17.5622   22.7741 C.ar    1  UNL1        0.0148
      9 C         -12.2379  -16.8303   22.2770 C.ar    1  UNL1        0.0548
     10 C         -10.9254  -16.9832   22.9868 C.ar    1  UNL1        0.0718
     11 C          -9.5709  -16.3919   22.7306 C.2     1  UNL1        0.2566
     12 O          -9.2170  -15.4471   21.6206 O.2     1  UNL1       -0.2694
     13 N         -12.3392  -15.9454   21.0700 N.am    1  UNL1       -0.2838
     14 C         -11.6348  -16.3243   19.8010 C.2     1  UNL1        0.2266
     15 C         -11.7361  -15.4395   18.5940 C.3     1  UNL1        0.0949
     16 O         -10.8291  -17.5881   19.7390 O.2     1  UNL1       -0.2748
     17 H         -12.8680  -15.1160   21.1107 H       1  UNL1        0.1549
     18 C          -3.6864  -17.8079   22.4658 C.ar    1  UNL1        0.1719
     19 C          -4.7069  -16.9982   23.2094 C.ar    1  UNL1        0.0374
     20 C          -6.1548  -17.3867   23.1584 C.ar    1  UNL1        0.0011
     21 C          -6.5822  -18.5851   22.3638 C.ar    1  UNL1        0.0007
     22 C          -5.5617  -19.3948   21.6202 C.ar    1  UNL1        0.0398
     23 C          -4.1138  -19.0062   21.6712 C.ar    1  UNL1        0.1724
     24 O          -3.0933  -19.8160   20.9277 O.3     1  UNL1       -0.4684
     25 C          -3.0775  -19.8081   19.4278 C.3     1  UNL1        0.2526
     26 O          -2.2385  -17.4193   22.5168 O.3     1  UNL1       -0.4724
     27 C          -0.8935  -16.8984   20.3560 C.3     1  UNL1        0.0512
     28 C          -1.6934  -16.4262   21.5337 C.3     1  UNL1        0.2057
     29 C          -6.7387  -15.4330   24.7682 C.3     1  UNL1        0.1755
     30 S          -6.8204  -15.5492   26.2615 S.O2    1  UNL1       -0.0062
     31 C          -6.9021  -15.6655   27.7548 C.3     1  UNL1        0.1761
     32 O          -5.3728  -15.9394   26.3103 O.2     1  UNL1       -0.1729
     33 O          -8.2679  -15.1590   26.2127 O.2     1  UNL1       -0.1729
@<TRIPOS>BOND
     1    27    28    1
     2    28    26    1
     3    26    18    1
     4    18    19   ar
     5    19    20   ar
     6    20     1    1
     7     1    29    1
     8    29    30    1
     9    30    31    1
    10    30    32    2
    11    30    33    2
    12     1     2    1
    13     2     3   am
    14     3     4    2
    15     3     5    1
    16     5     6   ar
    17     6     7   ar
    18     7     8   ar
    19     8     9   ar
    20     9    13    1
    21    13    14   am
    22    14    15    1
    23    14    16    2
    24     9    10   ar
    25    10    11    1
    26    11    12    2
    27    20    21   ar
    28    21    22   ar
    29    22    23   ar
    30    23    24    1
    31    24    25    1
    32    23    18   ar
    33    11     2   am
    34    10     5   ar
    35    13    17    1
@<TRIPOS>MOLECULE
*****
 33 35 0 0 0
SMALL
GASTEIGER

@<TRIPOS>ATOM
      1 C          -7.0683  -16.4539   23.9969 C.3     1  UNL1        0.1290
      2 N          -8.5133  -16.8182   23.8264 N.am    1  UNL1       -0.2187
      3 C          -9.2952  -17.7553   24.6984 C.2     1  UNL1        0.2554
      4 O          -8.7693  -18.4927   25.8941 O.2     1  UNL1       -0.2695
      5 C         -10.6953  -17.8257   24.1648 C.ar    1  UNL1        0.0596
      6 C         -11.9050  -18.5880   24.6180 C.ar    1  UNL1        0.0048
      7 C         -13.1982  -18.4567   23.8694 C.ar    1  UNL1        0.0014
      8 C         -13.2816  -17.5630   22.6676 C.ar    1  UNL1        0.0148
      9 C         -12.0719  -16.8007   22.2144 C.ar    1  UNL1        0.0548
     10 C         -10.7788  -16.9320   22.9630 C.ar    1  UNL1        0.0718
     11 C          -9.4302  -16.3094   22.7538 C.2     1  UNL1        0.2566
     12 O          -9.0631  -15.3469   21.6635 O.2     1  UNL1       -0.2694
     13 N         -12.1554  -15.9070   21.0125 N.am    1  UNL1       -0.2838
     14 C         -11.4527  -16.2890   19.7436 C.2     1  UNL1        0.2266
     15 C         -11.5361  -15.3954   18.5418 C.3     1  UNL1        0.0949
     16 O         -10.6664  -17.5648   19.6765 O.2     1  UNL1       -0.2748
     17 H         -12.6714  -15.0698   21.0566 H       1  UNL1        0.1549
     18 C          -5.3341  -19.0977   21.5984 C.ar    1  UNL1        0.1719
     19 C          -6.3951  -18.3095   22.3076 C.ar    1  UNL1        0.0374
     20 C          -6.0073  -17.2421   23.2877 C.ar    1  UNL1        0.0011
     21 C          -4.5586  -16.9630   23.5584 C.ar    1  UNL1        0.0007
     22 C          -3.4976  -17.7512   22.8491 C.ar    1  UNL1        0.0398
     23 C          -3.8854  -18.8186   21.8691 C.ar    1  UNL1        0.1724
     24 O          -2.8244  -19.6068   21.1597 O.3     1  UNL1       -0.4684
     25 C          -1.9923  -18.9558   20.0950 C.3     1  UNL1        0.2526
     26 O          -5.7219  -20.1651   20.6183 O.3     1  UNL1       -0.4724
     27 C          -7.8665  -19.6008   19.2648 C.3     1  UNL1        0.0512
     28 C          -7.1695  -20.4144   20.3147 C.3     1  UNL1        0.2057
     29 C          -6.6841  -15.3014   24.8767 C.3     1  UNL1        0.1755
     30 S          -6.7603  -15.4387   26.3685 S.O2    1  UNL1       -0.0062
     31 C          -6.8365  -15.5760   27.8603 C.3     1  UNL1        0.1761
     32 O          -8.2240  -15.1137   26.3237 O.2     1  UNL1       -0.1729
     33 O          -5.2966  -15.7637   26.4133 O.2     1  UNL1       -0.1729
@<TRIPOS>BOND
     1    27    28    1
     2    28    26    1
     3    26    18    1
     4    18    19   ar
     5    19    20   ar
     6    20     1    1
     7     1    29    1
     8    29    30    1
     9    30    31    1
    10    30    32    2
    11    30    33    2
    12     1     2    1
    13     2     3   am
    14     3     4    2
    15     3     5    1
    16     5     6   ar
    17     6     7   ar
    18     7     8   ar
    19     8     9   ar
    20     9    13    1
    21    13    14   am
    22    14    15    1
    23    14    16    2
    24     9    10   ar
    25    10    11    1
    26    11    12    2
    27    20    21   ar
    28    21    22   ar
    29    22    23   ar
    30    23    24    1
    31    24    25    1
    32    23    18   ar
    33    11     2   am
    34    10     5   ar
    35    13    17    1
@<TRIPOS>MOLECULE
*****
 33 35 0 0 0
SMALL
GASTEIGER

@<TRIPOS>ATOM
      1 C          -6.8389  -15.9537   23.6755 C.3     1  UNL1        0.1290
      2 N          -8.1343  -16.1300   22.9401 N.am    1  UNL1       -0.2187
      3 C          -8.5013  -15.4892   21.6346 C.2     1  UNL1        0.2554
      4 O          -7.6374  -14.5594   20.8351 O.2     1  UNL1       -0.2695
      5 C          -9.8840  -15.9413   21.2687 C.ar    1  UNL1        0.0596
      6 C         -10.7621  -15.6338   20.0921 C.ar    1  UNL1        0.0048
      7 C         -12.1277  -16.2467   19.9950 C.ar    1  UNL1        0.0014
      8 C         -12.6152  -17.1671   21.0745 C.ar    1  UNL1        0.0148
      9 C         -11.7371  -17.4745   22.2511 C.ar    1  UNL1        0.0548
     10 C         -10.3715  -16.8616   22.3482 C.ar    1  UNL1        0.0718
     11 C          -9.2901  -16.9783   23.3812 C.2     1  UNL1        0.2566
     12 O          -9.3535  -17.7991   24.6351 O.2     1  UNL1       -0.2694
     13 N         -12.2246  -18.3949   23.3306 N.am    1  UNL1       -0.2838
     14 C         -13.4054  -18.0069   24.1703 C.2     1  UNL1        0.2266
     15 C         -13.8929  -18.9272   25.2498 C.3     1  UNL1        0.0949
     16 O         -14.0987  -16.6984   23.9305 O.2     1  UNL1       -0.2748
     17 H         -11.7696  -19.2536   23.4880 H       1  UNL1        0.1549
     18 C          -4.5363  -18.8698   22.2811 C.ar    1  UNL1        0.1719
     19 C          -5.7550  -18.1112   22.7161 C.ar    1  UNL1        0.0374
     20 C          -5.6202  -16.7123   23.2405 C.ar    1  UNL1        0.0011
     21 C          -4.2666  -16.0720   23.3297 C.ar    1  UNL1        0.0007
     22 C          -3.0479  -16.8306   22.8947 C.ar    1  UNL1        0.0398
     23 C          -3.1828  -18.2295   22.3703 C.ar    1  UNL1        0.1724
     24 O          -1.9640  -18.9882   21.9353 O.3     1  UNL1       -0.4684
     25 C          -1.2904  -18.6458   20.6395 C.3     1  UNL1        0.2526
     26 O          -4.6711  -20.2687   21.7567 O.3     1  UNL1       -0.4724
     27 C          -6.6771  -20.3644   20.1085 C.3     1  UNL1        0.0512
     28 C          -5.2077  -20.5036   20.3759 C.3     1  UNL1        0.2057
     29 C          -6.7621  -15.0187   24.8459 C.3     1  UNL1        0.1755
     30 S          -6.9834  -15.5374   26.2359 S.O2    1  UNL1       -0.0062
     31 C          -7.2046  -16.0560   27.6259 C.3     1  UNL1        0.1761
     32 O          -5.5247  -15.8700   26.3440 O.2     1  UNL1       -0.1729
     33 O          -8.4420  -15.2048   26.1278 O.2     1  UNL1       -0.1729
@<TRIPOS>BOND
     1    27    28    1
     2    28    26    1
     3    26    18    1
     4    18    19   ar
     5    19    20   ar
     6    20     1    1
     7     1    29    1
     8    29    30    1
     9    30    31    1
    10    30    32    2
    11    30    33    2
    12     1     2    1
    13     2     3   am
    14     3     4    2
    15     3     5    1
    16     5     6   ar
    17     6     7   ar
    18     7     8   ar
    19     8     9   ar
    20     9    13    1
    21    13    14   am
    22    14    15    1
    23    14    16    2
    24     9    10   ar
    25    10    11    1
    26    11    12    2
    27    20    21   ar
    28    21    22   ar
    29    22    23   ar
    30    23    24    1
    31    24    25    1
    32    23    18   ar
    33    11     2   am
    34    10     5   ar
    35    13    17    1
@<TRIPOS>MOLECULE
*****
 33 35 0 0 0
SMALL
GASTEIGER

@<TRIPOS>ATOM
      1 C           6.5469   -1.8360   23.2449 C.3     1  UNL1        0.1290
      2 N           6.8525   -3.1778   23.8415 N.am    1  UNL1       -0.2187
      3 C           7.5191   -4.3237   23.1396 C.2     1  UNL1        0.2554
      4 O           7.9970   -4.3289   21.7177 O.2     1  UNL1       -0.2695
      5 C           7.6238   -5.4635   24.1090 C.ar    1  UNL1        0.0596
      6 C           8.1894   -6.8463   23.9751 C.ar    1  UNL1        0.0048
      7 C           8.1532   -7.7876   25.1424 C.ar    1  UNL1        0.0014
      8 C           7.5514   -7.3462   26.4435 C.ar    1  UNL1        0.0148
      9 C           6.9858   -5.9634   26.5774 C.ar    1  UNL1        0.0548
     10 C           7.0220   -5.0221   25.4102 C.ar    1  UNL1        0.0718
     11 C           6.5454   -3.6095   25.2448 C.2     1  UNL1        0.2566
     12 O           5.8785   -2.7750   26.2980 O.2     1  UNL1       -0.2694
     13 N           6.3840   -5.5220   27.8786 N.am    1  UNL1       -0.2838
     14 C           7.2447   -4.8712   28.9205 C.2     1  UNL1        0.2266
     15 C           6.6429   -4.4298   30.2216 C.3     1  UNL1        0.0949
     16 O           8.7073   -4.6618   28.6613 O.2     1  UNL1       -0.2748
     17 H           5.4241   -5.6595   28.0487 H       1  UNL1        0.1549
     18 C           3.7304   -2.1057   20.4620 C.ar    1  UNL1        0.1719
     19 C           5.0171   -2.3220   21.2019 C.ar    1  UNL1        0.0374
     20 C           5.2602   -1.6197   22.5050 C.ar    1  UNL1        0.0011
     21 C           4.2165   -0.7011   23.0679 C.ar    1  UNL1        0.0007
     22 C           2.9297   -0.4848   22.3279 C.ar    1  UNL1        0.0398
     23 C           2.6867   -1.1871   21.0250 C.ar    1  UNL1        0.1724
     24 O           1.4000   -0.9709   20.2849 O.3     1  UNL1       -0.4684
     25 C           0.4953    0.1623   20.6689 C.3     1  UNL1        0.2526
     26 O           3.4873   -2.8080   19.1590 O.3     1  UNL1       -0.4724
     27 C           4.5020   -5.1688   18.7756 C.3     1  UNL1        0.0512
     28 C           3.3316   -4.2996   19.1286 C.3     1  UNL1        0.2057
     29 C           7.5279   -0.7104   23.3882 C.3     1  UNL1        0.1755
     30 S           8.1551   -0.4273   24.7211 S.O2    1  UNL1       -0.0062
     31 C           8.7823   -0.1442   26.0539 C.3     1  UNL1        0.1761
     32 O           9.4285   -1.0712   24.2587 O.2     1  UNL1       -0.1729
     33 O           6.8817    0.2166   25.1835 O.2     1  UNL1       -0.1729
@<TRIPOS>BOND
     1    27    28    1
     2    28    26    1
     3    26    18    1
     4    18    19   ar
     5    19    20   ar
     6    20     1    1
     7     1    29    1
     8    29    30    1
     9    30    31    1
    10    30    32    2
    11    30    33    2
    12     1     2    1
    13     2     3   am
    14     3     4    2
    15     3     5    1
    16     5     6   ar
    17     6     7   ar
    18     7     8   ar
    19     8     9   ar
    20     9    13    1
    21    13    14   am
    22    14    15    1
    23    14    16    2
    24     9    10   ar
    25    10    11    1
    26    11    12    2
    27    20    21   ar
    28    21    22   ar
    29    22    23   ar
    30    23    24    1
    31    24    25    1
    32    23    18   ar
    33    11     2   am
    34    10     5   ar
    35    13    17    1
@<TRIPOS>MOLECULE
*****
 33 35 0 0 0
SMALL
GASTEIGER

@<TRIPOS>ATOM
      1 C           6.7099   -2.0590   23.0896 C.3     1  UNL1        0.1290
      2 N           6.9430   -3.3569   23.8047 N.am    1  UNL1       -0.2187
      3 C           7.5334   -4.5994   23.2067 C.2     1  UNL1        0.2554
      4 O           7.9945   -4.7621   21.7886 O.2     1  UNL1       -0.2695
      5 C           7.5818   -5.6505   24.2756 C.ar    1  UNL1        0.0596
      6 C           8.0639   -7.0709   24.2655 C.ar    1  UNL1        0.0048
      7 C           7.9854   -7.8984   25.5141 C.ar    1  UNL1        0.0014
      8 C           7.4249   -7.3056   26.7728 C.ar    1  UNL1        0.0148
      9 C           6.9428   -5.8852   26.7829 C.ar    1  UNL1        0.0548
     10 C           7.0213   -5.0577   25.5344 C.ar    1  UNL1        0.0718
     11 C           6.6265   -3.6402   25.2433 C.2     1  UNL1        0.2566
     12 O           6.0214   -2.6753   26.2194 O.2     1  UNL1       -0.2694
     13 N           6.3823   -5.2924   28.0416 N.am    1  UNL1       -0.2838
     14 C           7.3011   -4.6749   29.0538 C.2     1  UNL1        0.2266
     15 C           6.7406   -4.0821   30.3125 C.3     1  UNL1        0.0949
     16 O           8.7806   -4.6503   28.8072 O.2     1  UNL1       -0.2748
     17 H           5.4113   -5.3085   28.2035 H       1  UNL1        0.1549
     18 C           3.7757   -2.2933   20.4278 C.ar    1  UNL1        0.1719
     19 C           5.0806   -2.5420   21.1244 C.ar    1  UNL1        0.0374
     20 C           5.4050   -1.8103   22.3930 C.ar    1  UNL1        0.0011
     21 C           4.4245   -0.8298   22.9650 C.ar    1  UNL1        0.0007
     22 C           3.1195   -0.5811   22.2683 C.ar    1  UNL1        0.0398
     23 C           2.7952   -1.3128   20.9998 C.ar    1  UNL1        0.1724
     24 O           1.4902   -1.0641   20.3031 O.3     1  UNL1       -0.4684
     25 C           0.6453    0.1130   20.6911 C.3     1  UNL1        0.2526
     26 O           3.4513   -3.0250   19.1591 O.3     1  UNL1       -0.4724
     27 C           4.5624   -5.3251   18.6849 C.3     1  UNL1        0.0512
     28 C           3.3844   -4.5235   19.1537 C.3     1  UNL1        0.2057
     29 C           7.7818   -1.0099   23.0712 C.3     1  UNL1        0.1755
     30 S           8.1197   -0.3053   21.7908 S.O2    1  UNL1       -0.0062
     31 C           8.4576    0.3993   20.5104 C.3     1  UNL1        0.1761
     32 O           8.7014   -1.5757   21.2452 O.2     1  UNL1       -0.1729
     33 O           7.5380    0.9651   22.3364 O.2     1  UNL1       -0.1729
@<TRIPOS>BOND
     1    27    28    1
     2    28    26    1
     3    26    18    1
     4    18    19   ar
     5    19    20   ar
     6    20     1    1
     7     1    29    1
     8    29    30    1
     9    30    31    1
    10    30    32    2
    11    30    33    2
    12     1     2    1
    13     2     3   am
    14     3     4    2
    15     3     5    1
    16     5     6   ar
    17     6     7   ar
    18     7     8   ar
    19     8     9   ar
    20     9    13    1
    21    13    14   am
    22    14    15    1
    23    14    16    2
    24     9    10   ar
    25    10    11    1
    26    11    12    2
    27    20    21   ar
    28    21    22   ar
    29    22    23   ar
    30    23    24    1
    31    24    25    1
    32    23    18   ar
    33    11     2   am
    34    10     5   ar
    35    13    17    1
@<TRIPOS>MOLECULE
*****
 33 35 0 0 0
SMALL
GASTEIGER

@<TRIPOS>ATOM
      1 C           4.9187   -0.7085   32.9042 C.3     1  UNL1        0.1290
      2 N           4.6332   -0.1014   31.5626 N.am    1  UNL1       -0.2187
      3 C           5.5047    0.8788   30.8349 C.2     1  UNL1        0.2554
      4 O           6.8149    1.4240   31.3210 O.2     1  UNL1       -0.2695
      5 C           4.8362    1.2181   29.5357 C.ar    1  UNL1        0.0596
      6 C           5.2313    2.1292   28.4115 C.ar    1  UNL1        0.0048
      7 C           4.3416    2.2697   27.2121 C.ar    1  UNL1        0.0014
      8 C           3.0569    1.4992   27.1368 C.ar    1  UNL1        0.0148
      9 C           2.6618    0.5881   28.2610 C.ar    1  UNL1        0.0548
     10 C           3.5514    0.4476   29.4604 C.ar    1  UNL1        0.0718
     11 C           3.4260   -0.3679   30.7131 C.2     1  UNL1        0.2566
     12 O           2.2923   -1.2883   31.0561 O.2     1  UNL1       -0.2694
     13 N           1.3770   -0.1824   28.1857 N.am    1  UNL1       -0.2838
     14 C           0.1549    0.3264   28.8911 C.2     1  UNL1        0.2266
     15 C          -1.1299   -0.4441   28.8158 C.3     1  UNL1        0.0949
     16 O           0.2175    1.6058   29.6717 O.2     1  UNL1       -0.2748
     17 H           1.3359   -1.0221   27.6734 H       1  UNL1        0.1549
     18 C           3.0625    1.8294   35.3255 C.ar    1  UNL1        0.1719
     19 C           3.4974    1.1242   34.0752 C.ar    1  UNL1        0.0374
     20 C           4.4838   -0.0032   34.1545 C.ar    1  UNL1        0.0011
     21 C           5.0351   -0.4253   35.4841 C.ar    1  UNL1        0.0007
     22 C           4.6001    0.2801   36.7345 C.ar    1  UNL1        0.0398
     23 C           3.6138    1.4074   36.6552 C.ar    1  UNL1        0.1724
     24 O           3.1787    2.1128   37.9055 O.3     1  UNL1       -0.4684
     25 C           2.2054    1.4546   38.8379 C.3     1  UNL1        0.2526
     26 O           2.0761    2.9568   35.2462 O.3     1  UNL1       -0.4724
     27 C           0.9312    4.0150   33.1680 C.3     1  UNL1        0.0512
     28 C           2.1132    3.9055   34.0849 C.3     1  UNL1        0.2057
     29 C           5.6392   -2.0209   32.9955 C.3     1  UNL1        0.1755
     30 S           6.9009   -2.2398   32.2143 S.O2    1  UNL1       -0.0062
     31 C           8.1626   -2.4587   31.4331 C.3     1  UNL1        0.1761
     32 O           7.6347   -1.3159   33.1405 O.2     1  UNL1       -0.1729
     33 O           6.1671   -3.1638   31.2881 O.2     1  UNL1       -0.1729
@<TRIPOS>BOND
     1    27    28    1
     2    28    26    1
     3    26    18    1
     4    18    19   ar
     5    19    20   ar
     6    20     1    1
     7     1    29    1
     8    29    30    1
     9    30    31    1
    10    30    32    2
    11    30    33    2
    12     1     2    1
    13     2     3   am
    14     3     4    2
    15     3     5    1
    16     5     6   ar
    17     6     7   ar
    18     7     8   ar
    19     8     9   ar
    20     9    13    1
    21    13    14   am
    22    14    15    1
    23    14    16    2
    24     9    10   ar
    25    10    11    1
    26    11    12    2
    27    20    21   ar
    28    21    22   ar
    29    22    23   ar
    30    23    24    1
    31    24    25    1
    32    23    18   ar
    33    11     2   am
    34    10     5   ar
    35    13    17    1
@<TRIPOS>MOLECULE
*****
 33 35 0 0 0
SMALL
GASTEIGER

@<TRIPOS>ATOM
      1 C           0.7716    3.1509   19.6725 C.3     1  UNL1        0.1290
      2 N          -0.7088    3.3148   19.4949 N.am    1  UNL1       -0.2187
      3 C          -1.4032    3.7518   18.2392 C.2     1  UNL1        0.2554
      4 O          -0.7391    4.1017   16.9405 O.2     1  UNL1       -0.2695
      5 C          -2.8783    3.7775   18.5101 C.ar    1  UNL1        0.0596
      6 C          -4.0517    4.1300   17.6448 C.ar    1  UNL1        0.0048
      7 C          -5.4424    4.0614   18.2027 C.ar    1  UNL1        0.0014
      8 C          -5.6597    3.6402   19.6258 C.ar    1  UNL1        0.0148
      9 C          -4.4863    3.2877   20.4912 C.ar    1  UNL1        0.0548
     10 C          -3.0956    3.3564   19.9333 C.ar    1  UNL1        0.0718
     11 C          -1.7547    3.0704   20.5419 C.2     1  UNL1        0.2566
     12 O          -1.5040    2.6192   21.9503 O.2     1  UNL1       -0.2694
     13 N          -4.7036    2.8666   21.9143 N.am    1  UNL1       -0.2838
     14 C          -4.6251    3.8806   23.0169 C.2     1  UNL1        0.2266
     15 C          -4.8424    3.4595   24.4400 C.3     1  UNL1        0.0949
     16 O          -4.3293    5.3159   22.6962 O.2     1  UNL1       -0.2748
     17 H          -4.8977    1.9247   22.1248 H       1  UNL1        0.1549
     18 C           2.8035   -0.0029   18.3783 C.ar    1  UNL1        0.1719
     19 C           2.1891    1.3645   18.4275 C.ar    1  UNL1        0.0374
     20 C           1.3861    1.7834   19.6233 C.ar    1  UNL1        0.0011
     21 C           1.1976    0.8348   20.7698 C.ar    1  UNL1        0.0007
     22 C           1.8121   -0.5327   20.7206 C.ar    1  UNL1        0.0398
     23 C           2.6150   -0.9516   19.5248 C.ar    1  UNL1        0.1724
     24 O           3.2295   -2.3191   19.4756 O.3     1  UNL1       -0.4684
     25 C           4.2705   -2.7103   20.4822 C.3     1  UNL1        0.2526
     26 O           3.6065   -0.4218   17.1825 O.3     1  UNL1       -0.4724
     27 C           6.0999   -0.9098   17.7251 C.3     1  UNL1        0.0512
     28 C           5.0552   -0.0461   17.0828 C.3     1  UNL1        0.2057
     29 C           1.6376    4.3544   19.8992 C.3     1  UNL1        0.1755
     30 S           1.0882    5.5483   20.6223 S.O2    1  UNL1       -0.0062
     31 C           0.5387    6.7421   21.3455 C.3     1  UNL1        0.1761
     32 O           1.1907    4.8077   21.9228 O.2     1  UNL1       -0.1729
     33 O           0.9856    6.2888   19.3219 O.2     1  UNL1       -0.1729
@<TRIPOS>BOND
     1    27    28    1
     2    28    26    1
     3    26    18    1
     4    18    19   ar
     5    19    20   ar
     6    20     1    1
     7     1    29    1
     8    29    30    1
     9    30    31    1
    10    30    32    2
    11    30    33    2
    12     1     2    1
    13     2     3   am
    14     3     4    2
    15     3     5    1
    16     5     6   ar
    17     6     7   ar
    18     7     8   ar
    19     8     9   ar
    20     9    13    1
    21    13    14   am
    22    14    15    1
    23    14    16    2
    24     9    10   ar
    25    10    11    1
    26    11    12    2
    27    20    21   ar
    28    21    22   ar
    29    22    23   ar
    30    23    24    1
    31    24    25    1
    32    23    18   ar
    33    11     2   am
    34    10     5   ar
    35    13    17    1
@<TRIPOS>MOLECULE
*****
 33 35 0 0 0
SMALL
GASTEIGER

@<TRIPOS>ATOM
      1 C           1.4145    2.6819   20.3313 C.3     1  UNL1        0.1290
      2 N           2.5881    2.0536   19.6400 N.am    1  UNL1       -0.2187
      3 C           3.8573    2.7505   19.2484 C.2     1  UNL1        0.2554
      4 O           4.1759    4.1980   19.4793 O.2     1  UNL1       -0.2695
      5 C           4.7522    1.7457   18.5852 C.ar    1  UNL1        0.0596
      6 C           6.1266    1.8606   17.9956 C.ar    1  UNL1        0.0048
      7 C           6.7849    0.6576   17.3878 C.ar    1  UNL1        0.0014
      8 C           6.0687   -0.6602   17.3696 C.ar    1  UNL1        0.0148
      9 C           4.6942   -0.7751   17.9592 C.ar    1  UNL1        0.0548
     10 C           4.0360    0.4279   18.5670 C.ar    1  UNL1        0.0718
     11 C           2.6985    0.6182   19.2189 C.2     1  UNL1        0.2566
     12 O           1.6547   -0.4410   19.4152 O.2     1  UNL1       -0.2694
     13 N           3.9780   -2.0929   17.9410 N.am    1  UNL1       -0.2838
     14 C           4.0435   -2.9987   19.1348 C.2     1  UNL1        0.2266
     15 C           3.3273   -4.3165   19.1166 C.3     1  UNL1        0.0949
     16 O           4.8253   -2.5866   20.3469 O.2     1  UNL1       -0.2748
     17 H           3.4650   -2.3634   17.1454 H       1  UNL1        0.1549
     18 C          -2.2365    3.9422   19.4193 C.ar    1  UNL1        0.1719
     19 C          -1.0577    3.4731   20.2195 C.ar    1  UNL1        0.0374
     20 C           0.2357    3.1509   19.5312 C.ar    1  UNL1        0.0011
     21 C           0.3500    3.2979   18.0428 C.ar    1  UNL1        0.0007
     22 C          -0.8289    3.7669   17.2427 C.ar    1  UNL1        0.0398
     23 C          -2.1221    4.0891   17.9309 C.ar    1  UNL1        0.1724
     24 O          -3.3011    4.5582   17.1308 O.3     1  UNL1       -0.4684
     25 C          -4.0582    3.5889   16.2721 C.3     1  UNL1        0.2526
     26 O          -3.5298    4.2643   20.1076 O.3     1  UNL1       -0.4724
     27 C          -4.7275    3.1040   22.0998 C.3     1  UNL1        0.0512
     28 C          -4.3926    3.1582   20.6387 C.3     1  UNL1        0.2057
     29 C           1.4197    2.8411   21.8228 C.3     1  UNL1        0.1755
     30 S           1.8288    1.6937   22.6981 S.O2    1  UNL1       -0.0062
     31 C           2.2378    0.5463   23.5735 C.3     1  UNL1        0.1761
     32 O           0.5657    0.9689   22.3383 O.2     1  UNL1       -0.1729
     33 O           3.0918    2.4184   23.0580 O.2     1  UNL1       -0.1729
@<TRIPOS>BOND
     1    27    28    1
     2    28    26    1
     3    26    18    1
     4    18    19   ar
     5    19    20   ar
     6    20     1    1
     7     1    29    1
     8    29    30    1
     9    30    31    1
    10    30    32    2
    11    30    33    2
    12     1     2    1
    13     2     3   am
    14     3     4    2
    15     3     5    1
    16     5     6   ar
    17     6     7   ar
    18     7     8   ar
    19     8     9   ar
    20     9    13    1
    21    13    14   am
    22    14    15    1
    23    14    16    2
    24     9    10   ar
    25    10    11    1
    26    11    12    2
    27    20    21   ar
    28    21    22   ar
    29    22    23   ar
    30    23    24    1
    31    24    25    1
    32    23    18   ar
    33    11     2   am
    34    10     5   ar
    35    13    17    1
@<TRIPOS>MOLECULE
*****
 33 35 0 0 0
SMALL
GASTEIGER

@<TRIPOS>ATOM
      1 C           7.8724   -3.7945   23.5742 C.3     1  UNL1        0.1290
      2 N           6.7767   -3.4063   22.6261 N.am    1  UNL1       -0.2187
      3 C           6.6261   -3.8806   21.2110 C.2     1  UNL1        0.2554
      4 O           7.5446   -4.8264   20.4956 O.2     1  UNL1       -0.2695
      5 C           5.3956   -3.2431   20.6370 C.ar    1  UNL1        0.0596
      6 C           4.7517   -3.3410   19.2858 C.ar    1  UNL1        0.0048
      7 C           3.4979   -2.5707   18.9949 C.ar    1  UNL1        0.0014
      8 C           2.8881   -1.7023   20.0552 C.ar    1  UNL1        0.0148
      9 C           3.5321   -1.6044   21.4064 C.ar    1  UNL1        0.0548
     10 C           4.7858   -2.3747   21.6973 C.ar    1  UNL1        0.0718
     11 C           5.6394   -2.4757   22.9266 C.2     1  UNL1        0.2566
     12 O           5.3980   -1.7698   24.2279 O.2     1  UNL1       -0.2694
     13 N           2.9223   -0.7361   22.4666 N.am    1  UNL1       -0.2838
     14 C           3.3651    0.6893   22.6151 C.2     1  UNL1        0.2266
     15 C           2.7553    1.5576   23.6753 C.3     1  UNL1        0.0949
     16 O           4.4179    1.2465   21.7032 O.2     1  UNL1       -0.2748
     17 H           2.2314   -1.1017   23.0651 H       1  UNL1        0.1549
     18 C           6.9191   -6.2089   26.5762 C.ar    1  UNL1        0.1719
     19 C           7.0534   -4.9697   25.7417 C.ar    1  UNL1        0.0374
     20 C           7.7381   -5.0337   24.4086 C.ar    1  UNL1        0.0011
     21 C           8.2884   -6.3370   23.9099 C.ar    1  UNL1        0.0007
     22 C           8.1540   -7.5762   24.7444 C.ar    1  UNL1        0.0398
     23 C           7.4694   -7.5121   26.0775 C.ar    1  UNL1        0.1724
     24 O           7.3350   -8.7514   26.9120 O.3     1  UNL1       -0.4684
     25 C           8.5251   -9.2934   27.6469 C.3     1  UNL1        0.2526
     26 O           6.2345   -6.1448   27.9093 O.3     1  UNL1       -0.4724
     27 C           8.4697   -5.8363   29.1970 C.3     1  UNL1        0.0512
     28 C           6.9829   -5.6566   29.1141 C.3     1  UNL1        0.2057
     29 C           9.1024   -2.9436   23.6878 C.3     1  UNL1        0.1755
     30 S           8.9742   -1.4680   23.9250 S.O2    1  UNL1       -0.0062
     31 C           8.8461    0.0076   24.1623 C.3     1  UNL1        0.1761
     32 O           9.3847   -1.2043   22.5066 O.2     1  UNL1       -0.1729
     33 O           8.5637   -1.7317   25.3435 O.2     1  UNL1       -0.1729
@<TRIPOS>BOND
     1    27    28    1
     2    28    26    1
     3    26    18    1
     4    18    19   ar
     5    19    20   ar
     6    20     1    1
     7     1    29    1
     8    29    30    1
     9    30    31    1
    10    30    32    2
    11    30    33    2
    12     1     2    1
    13     2     3   am
    14     3     4    2
    15     3     5    1
    16     5     6   ar
    17     6     7   ar
    18     7     8   ar
    19     8     9   ar
    20     9    13    1
    21    13    14   am
    22    14    15    1
    23    14    16    2
    24     9    10   ar
    25    10    11    1
    26    11    12    2
    27    20    21   ar
    28    21    22   ar
    29    22    23   ar
    30    23    24    1
    31    24    25    1
    32    23    18   ar
    33    11     2   am
    34    10     5   ar
    35    13    17    1
