@<TRIPOS>MOLECULE
*****
 28 30 0 0 0
SMALL
GASTEIGER

@<TRIPOS>ATOM
      1 O          -4.4302  -16.1077   23.2470 O.2     1  UNL1       -0.2522
      2 C          -5.5369  -17.0184   22.8045 C.2     1  UNL1        0.3077
      3 N          -5.2517  -18.1323   21.8414 N.am    1  UNL1       -0.2681
      4 N          -6.9290  -16.8150   23.3252 N.am    1  UNL1       -0.2637
      5 C          -7.2142  -15.7010   24.2883 C.3     1  UNL1        0.0950
      6 C          -8.6061  -15.4977   24.8089 C.3     1  UNL1        0.0219
      7 C          -9.7129  -16.4084   24.3664 C.3     1  UNL1        0.0075
      8 C          -9.4277  -17.5224   23.4033 C.3     1  UNL1        0.0374
      9 C          -8.0357  -17.7257   22.8827 C.3     1  UNL1        0.0989
     10 H          -5.9781  -18.7300   21.5510 H       1  UNL1        0.1564
     11 C          -3.8597  -18.3357   21.3207 C.ar    1  UNL1        0.0516
     12 C          -3.5980  -18.2964   19.8443 C.ar    1  UNL1        0.0156
     13 C          -2.2061  -18.4997   19.3237 C.ar    1  UNL1        0.0127
     14 C          -1.0758  -18.7424   20.2795 C.ar    1  UNL1        0.0578
     15 CL          0.3162  -18.9457   19.7588 Cl      1  UNL1       -0.0822
     16 C          -1.3375  -18.7817   21.7560 C.ar    1  UNL1        0.0127
     17 C          -2.7295  -18.5784   22.2766 C.ar    1  UNL1        0.0156
     18 C         -10.8979  -17.7311   23.6150 C.ar    1  UNL1       -0.0212
     19 C         -11.8902  -16.9837   22.7743 C.ar    1  UNL1       -0.0042
     20 C         -13.3605  -17.1924   22.9860 C.ar    1  UNL1       -0.0003
     21 C         -13.8384  -18.1486   24.0383 C.ar    1  UNL1       -0.0000
     22 C         -12.8461  -18.8961   24.8789 C.ar    1  UNL1       -0.0003
     23 C         -11.3758  -18.6873   24.6673 C.ar    1  UNL1       -0.0042
     24 C          -9.6530  -18.7089   22.5136 C.3     1  UNL1        0.0083
     25 C          -9.1164  -18.7088   21.1130 C.3     1  UNL1        0.0321
     26 C         -10.0609  -18.6963   19.9478 C.3     1  UNL1        0.1372
     27 O         -10.7205  -17.4154   19.5306 O.3     1  UNL1       -0.3820
     28 H         -11.3227  -17.1188   20.2309 H       1  UNL1        0.2104
@<TRIPOS>BOND
     1     1     2    2
     2     2     3   am
     3     3    11    1
     4    11    12   ar
     5    12    13   ar
     6    13    14   ar
     7    14    15    1
     8    14    16   ar
     9    16    17   ar
    10     2     4   am
    11     4     5    1
    12     5     6    1
    13     6     7    1
    14     7     8    1
    15     8    24    1
    16    24    25    1
    17    25    26    1
    18    26    27    1
    19     8    18    1
    20    18    19   ar
    21    19    20   ar
    22    20    21   ar
    23    21    22   ar
    24    22    23   ar
    25     8     9    1
    26    17    11   ar
    27     9     4    1
    28    23    18   ar
    29     3    10    1
    30    27    28    1
@<TRIPOS>MOLECULE
*****
 28 30 0 0 0
SMALL
GASTEIGER

@<TRIPOS>ATOM
      1 O           7.6735   -5.2133   22.8325 O.2     1  UNL1       -0.2522
      2 C           6.6247   -4.1655   23.0607 C.2     1  UNL1        0.3077
      3 N           6.3124   -3.7081   24.4547 N.am    1  UNL1       -0.2681
      4 N           5.8882   -3.5750   21.8949 N.am    1  UNL1       -0.2637
      5 C           6.2005   -4.0324   20.5009 C.3     1  UNL1        0.0950
      6 C           5.4640   -3.4420   19.3352 C.3     1  UNL1        0.0219
      7 C           4.4152   -2.3942   19.5635 C.3     1  UNL1        0.0075
      8 C           4.1029   -1.9368   20.9575 C.3     1  UNL1        0.0374
      9 C           4.8394   -2.5273   22.1232 C.3     1  UNL1        0.0989
     10 H           5.6240   -3.0204   24.6045 H       1  UNL1        0.1564
     11 C           7.0489   -4.2986   25.6205 C.ar    1  UNL1        0.0516
     12 C           8.1628   -3.5322   26.2700 C.ar    1  UNL1        0.0156
     13 C           8.8992   -4.1227   27.4357 C.ar    1  UNL1        0.0127
     14 C           8.5217   -5.4795   27.9520 C.ar    1  UNL1        0.0578
     15 CL          9.2582   -6.0699   29.1178 Cl      1  UNL1       -0.0822
     16 C           7.4078   -6.2459   27.3025 C.ar    1  UNL1        0.0127
     17 C           6.6714   -5.6554   26.1368 C.ar    1  UNL1        0.0156
     18 C           3.1420   -1.0847   20.1824 C.ar    1  UNL1       -0.0212
     19 C           3.5891   -0.4080   18.9206 C.ar    1  UNL1       -0.0042
     20 C           2.6283    0.4440   18.1455 C.ar    1  UNL1       -0.0003
     21 C           1.2203    0.6193   18.6323 C.ar    1  UNL1       -0.0000
     22 C           0.7732   -0.0574   19.8941 C.ar    1  UNL1       -0.0003
     23 C           1.7341   -0.9094   20.6692 C.ar    1  UNL1       -0.0042
     24 C           3.4568   -1.1835   22.0823 C.3     1  UNL1        0.0083
     25 C           4.2630   -0.7971   23.2868 C.3     1  UNL1        0.0321
     26 C           3.6394   -0.8351   24.6505 C.3     1  UNL1        0.1372
     27 O           4.0449   -1.8949   25.6314 O.3     1  UNL1       -0.3820
     28 H           3.7672   -2.7639   25.3018 H       1  UNL1        0.2104
@<TRIPOS>BOND
     1     1     2    2
     2     2     3   am
     3     3    11    1
     4    11    12   ar
     5    12    13   ar
     6    13    14   ar
     7    14    15    1
     8    14    16   ar
     9    16    17   ar
    10     2     4   am
    11     4     5    1
    12     5     6    1
    13     6     7    1
    14     7     8    1
    15     8    24    1
    16    24    25    1
    17    25    26    1
    18    26    27    1
    19     8    18    1
    20    18    19   ar
    21    19    20   ar
    22    20    21   ar
    23    21    22   ar
    24    22    23   ar
    25     8     9    1
    26    17    11   ar
    27     9     4    1
    28    23    18   ar
    29     3    10    1
    30    27    28    1
@<TRIPOS>MOLECULE
*****
 28 30 0 0 0
SMALL
GASTEIGER

@<TRIPOS>ATOM
      1 O          -0.1997    2.7121   22.8242 O.2     1  UNL1       -0.2522
      2 C           0.2775    1.9777   21.6065 C.2     1  UNL1        0.3077
      3 N          -0.2702    2.3302   20.2553 N.am    1  UNL1       -0.2681
      4 N           1.3025    0.8906   21.7400 N.am    1  UNL1       -0.2637
      5 C           1.8502    0.5381   23.0912 C.3     1  UNL1        0.0950
      6 C           2.8752   -0.5489   23.2246 C.3     1  UNL1        0.0219
      7 C           3.3525   -1.2833   22.0069 C.3     1  UNL1        0.0075
      8 C           2.8048   -0.9308   20.6557 C.3     1  UNL1        0.0374
      9 C           1.7798    0.1562   20.5223 C.3     1  UNL1        0.0989
     10 H           0.0431    1.8482   19.4561 H       1  UNL1        0.1564
     11 C          -1.2952    3.4173   20.1218 C.ar    1  UNL1        0.0516
     12 C          -0.8792    4.7910   19.6864 C.ar    1  UNL1        0.0156
     13 C          -1.9042    5.8780   19.5529 C.ar    1  UNL1        0.0127
     14 C          -3.3452    5.5912   19.8549 C.ar    1  UNL1        0.0578
     15 CL         -4.3702    6.6782   19.7214 Cl      1  UNL1       -0.0822
     16 C          -3.7612    4.2174   20.2904 C.ar    1  UNL1        0.0127
     17 C          -2.7362    3.1305   20.4238 C.ar    1  UNL1        0.0156
     18 C           3.7541   -2.0277   20.2739 C.ar    1  UNL1       -0.0212
     19 C           5.1996   -1.9381   20.6641 C.ar    1  UNL1       -0.0042
     20 C           6.1489   -3.0350   20.2823 C.ar    1  UNL1       -0.0003
     21 C           5.6525   -4.2213   19.5101 C.ar    1  UNL1       -0.0000
     22 C           4.2070   -4.3109   19.1199 C.ar    1  UNL1       -0.0003
     23 C           3.2577   -3.2140   19.5018 C.ar    1  UNL1       -0.0042
     24 C           2.5867   -0.9591   19.1719 C.3     1  UNL1        0.0083
     25 C           3.1857    0.1086   18.3053 C.3     1  UNL1        0.0321
     26 C           4.0787   -0.2679   17.1604 C.3     1  UNL1        0.1372
     27 O           3.7059   -1.4100   16.2625 O.3     1  UNL1       -0.3820
     28 H           3.7299   -2.2386   16.7663 H       1  UNL1        0.2104
@<TRIPOS>BOND
     1     1     2    2
     2     2     3   am
     3     3    11    1
     4    11    12   ar
     5    12    13   ar
     6    13    14   ar
     7    14    15    1
     8    14    16   ar
     9    16    17   ar
    10     2     4   am
    11     4     5    1
    12     5     6    1
    13     6     7    1
    14     7     8    1
    15     8    24    1
    16    24    25    1
    17    25    26    1
    18    26    27    1
    19     8    18    1
    20    18    19   ar
    21    19    20   ar
    22    20    21   ar
    23    21    22   ar
    24    22    23   ar
    25     8     9    1
    26    17    11   ar
    27     9     4    1
    28    23    18   ar
    29     3    10    1
    30    27    28    1
@<TRIPOS>MOLECULE
*****
 28 30 0 0 0
SMALL
GASTEIGER

@<TRIPOS>ATOM
      1 O           2.1637    0.6877   26.3145 O.2     1  UNL1       -0.2522
      2 C           2.0479    0.6729   24.8191 C.2     1  UNL1        0.3077
      3 N           1.1268    1.6344   24.1286 N.am    1  UNL1       -0.2681
      4 N           2.8534   -0.3036   24.0141 N.am    1  UNL1       -0.2637
      5 C           3.7746   -1.2651   24.7046 C.3     1  UNL1        0.0950
      6 C           4.5800   -2.2415   23.8997 C.3     1  UNL1        0.0219
      7 C           4.4642   -2.2563   22.4042 C.3     1  UNL1        0.0075
      8 C           3.5431   -1.2947   21.7137 C.3     1  UNL1        0.0374
      9 C           2.7377   -0.3183   22.5187 C.3     1  UNL1        0.0989
     10 H           1.0509    1.6247   23.1470 H       1  UNL1        0.1564
     11 C           0.3213    2.6109   24.9335 C.ar    1  UNL1        0.0516
     12 C           0.7765    4.0345   25.0597 C.ar    1  UNL1        0.0156
     13 C          -0.0290    5.0108   25.8646 C.ar    1  UNL1        0.0127
     14 C          -1.2896    4.5635   26.5433 C.ar    1  UNL1        0.0578
     15 CL         -2.0951    5.5399   27.3483 Cl      1  UNL1       -0.0822
     16 C          -1.7448    3.1399   26.4171 C.ar    1  UNL1        0.0127
     17 C          -0.9393    2.1635   25.6122 C.ar    1  UNL1        0.0156
     18 C           4.0952   -2.0252   20.5256 C.ar    1  UNL1       -0.0212
     19 C           3.8810   -3.5035   20.3881 C.ar    1  UNL1       -0.0042
     20 C           4.4332   -4.2340   19.2000 C.ar    1  UNL1       -0.0003
     21 C           5.1995   -3.4863   18.1495 C.ar    1  UNL1       -0.0000
     22 C           5.4137   -2.0080   18.2870 C.ar    1  UNL1       -0.0003
     23 C           4.8615   -1.2775   19.4751 C.ar    1  UNL1       -0.0042
     24 C           2.8137   -0.5868   20.6106 C.3     1  UNL1        0.0083
     25 C           1.3352   -0.7781   20.4456 C.3     1  UNL1        0.0321
     26 C           0.4615    0.3911   20.0996 C.3     1  UNL1        0.1372
     27 O          -0.1732    1.2019   21.1902 O.3     1  UNL1       -0.3820
     28 H          -0.8162    0.6546   21.6676 H       1  UNL1        0.2104
@<TRIPOS>BOND
     1     1     2    2
     2     2     3   am
     3     3    11    1
     4    11    12   ar
     5    12    13   ar
     6    13    14   ar
     7    14    15    1
     8    14    16   ar
     9    16    17   ar
    10     2     4   am
    11     4     5    1
    12     5     6    1
    13     6     7    1
    14     7     8    1
    15     8    24    1
    16    24    25    1
    17    25    26    1
    18    26    27    1
    19     8    18    1
    20    18    19   ar
    21    19    20   ar
    22    20    21   ar
    23    21    22   ar
    24    22    23   ar
    25     8     9    1
    26    17    11   ar
    27     9     4    1
    28    23    18   ar
    29     3    10    1
    30    27    28    1
@<TRIPOS>MOLECULE
*****
 28 30 0 0 0
SMALL
GASTEIGER

@<TRIPOS>ATOM
      1 O          -0.1833    2.0637   24.7156 O.2     1  UNL1       -0.2522
      2 C           0.9489    1.0962   24.5370 C.2     1  UNL1        0.3077
      3 N           1.7177    0.6126   25.7308 N.am    1  UNL1       -0.2681
      4 N           1.3124    0.6121   23.1645 N.am    1  UNL1       -0.2637
      5 C           0.5437    1.0957   21.9707 C.3     1  UNL1        0.0950
      6 C           0.9072    0.6116   20.5983 C.3     1  UNL1        0.0219
      7 C           2.0394   -0.3559   20.4197 C.3     1  UNL1        0.0075
      8 C           2.8081   -0.8394   21.6135 C.3     1  UNL1        0.0374
      9 C           2.4446   -0.3554   22.9859 C.3     1  UNL1        0.0989
     10 H           2.4608   -0.0224   25.6135 H       1  UNL1        0.1564
     11 C           1.3542    1.0967   27.1033 C.ar    1  UNL1        0.0516
     12 C           2.1757    2.1635   27.7643 C.ar    1  UNL1        0.0156
     13 C           1.8122    2.6474   29.1367 C.ar    1  UNL1        0.0127
     14 C           0.6272    2.0646   29.8481 C.ar    1  UNL1        0.0578
     15 CL          0.2637    2.5486   31.2206 Cl      1  UNL1       -0.0822
     16 C          -0.1943    0.9978   29.1871 C.ar    1  UNL1        0.0127
     17 C           0.1692    0.5138   27.8147 C.ar    1  UNL1        0.0156
     18 C           3.5251   -1.5808   20.5242 C.ar    1  UNL1       -0.0212
     19 C           3.9773   -0.8525   19.2933 C.ar    1  UNL1       -0.0042
     20 C           4.6943   -1.5939   18.2041 C.ar    1  UNL1       -0.0003
     21 C           4.9590   -3.0635   18.3459 C.ar    1  UNL1       -0.0000
     22 C           4.5068   -3.7918   19.5768 C.ar    1  UNL1       -0.0003
     23 C           3.7898   -3.0504   20.6660 C.ar    1  UNL1       -0.0042
     24 C           3.8259   -1.5804   22.4290 C.3     1  UNL1        0.0083
     25 C           4.4156   -0.9428   23.6520 C.3     1  UNL1        0.0321
     26 C           4.6777   -1.7689   24.8762 C.3     1  UNL1        0.1372
     27 O           3.6914   -1.7691   26.0063 O.3     1  UNL1       -0.3820
     28 H           3.6610   -0.8872   26.4091 H       1  UNL1        0.2104
@<TRIPOS>BOND
     1     1     2    2
     2     2     3   am
     3     3    11    1
     4    11    12   ar
     5    12    13   ar
     6    13    14   ar
     7    14    15    1
     8    14    16   ar
     9    16    17   ar
    10     2     4   am
    11     4     5    1
    12     5     6    1
    13     6     7    1
    14     7     8    1
    15     8    24    1
    16    24    25    1
    17    25    26    1
    18    26    27    1
    19     8    18    1
    20    18    19   ar
    21    19    20   ar
    22    20    21   ar
    23    21    22   ar
    24    22    23   ar
    25     8     9    1
    26    17    11   ar
    27     9     4    1
    28    23    18   ar
    29     3    10    1
    30    27    28    1
@<TRIPOS>MOLECULE
*****
 28 30 0 0 0
SMALL
GASTEIGER

@<TRIPOS>ATOM
      1 O           5.1853   -2.1713   27.0092 O.2     1  UNL1       -0.2522
      2 C           5.2821   -2.4428   25.5371 C.2     1  UNL1        0.3077
      3 N           6.2102   -3.5065   25.0301 N.am    1  UNL1       -0.2681
      4 N           4.4506   -1.6506   24.5721 N.am    1  UNL1       -0.2637
      5 C           3.5225   -0.5869   25.0792 C.3     1  UNL1        0.0950
      6 C           2.6911    0.2052   24.1142 C.3     1  UNL1        0.0219
      7 C           2.7879   -0.0663   22.6421 C.3     1  UNL1        0.0075
      8 C           3.7160   -1.1299   22.1351 C.3     1  UNL1        0.0374
      9 C           4.5474   -1.9221   23.1001 C.3     1  UNL1        0.0989
     10 H           6.2737   -3.6846   24.0639 H       1  UNL1        0.1564
     11 C           7.0416   -4.2987   25.9951 C.ar    1  UNL1        0.0516
     12 C           6.5637   -5.6376   26.4735 C.ar    1  UNL1        0.0156
     13 C           7.3951   -6.4297   27.4384 C.ar    1  UNL1        0.0127
     14 C           8.7045   -5.8830   27.9250 C.ar    1  UNL1        0.0578
     15 CL          9.5359   -6.6752   28.8900 Cl      1  UNL1       -0.0822
     16 C           9.1824   -4.5441   27.4465 C.ar    1  UNL1        0.0127
     17 C           8.3510   -3.7520   26.4816 C.ar    1  UNL1        0.0156
     18 C           3.1371   -0.6491   20.8374 C.ar    1  UNL1       -0.0212
     19 C           4.0453   -0.2787   19.7026 C.ar    1  UNL1       -0.0042
     20 C           3.4665    0.2021   18.4049 C.ar    1  UNL1       -0.0003
     21 C           1.9794    0.3123   18.2423 C.ar    1  UNL1       -0.0000
     22 C           1.0712   -0.0581   19.3771 C.ar    1  UNL1       -0.0003
     23 C           1.6501   -0.5389   20.6748 C.ar    1  UNL1       -0.0042
     24 C           4.4431   -2.0266   21.1773 C.3     1  UNL1        0.0083
     25 C           4.3135   -3.5160   21.2987 C.3     1  UNL1        0.0321
     26 C           3.9503   -4.3377   20.0975 C.3     1  UNL1        0.1372
     27 O           5.0087   -5.1150   19.3726 O.3     1  UNL1       -0.3820
     28 H           5.6387   -4.5006   18.9645 H       1  UNL1        0.2104
@<TRIPOS>BOND
     1     1     2    2
     2     2     3   am
     3     3    11    1
     4    11    12   ar
     5    12    13   ar
     6    13    14   ar
     7    14    15    1
     8    14    16   ar
     9    16    17   ar
    10     2     4   am
    11     4     5    1
    12     5     6    1
    13     6     7    1
    14     7     8    1
    15     8    24    1
    16    24    25    1
    17    25    26    1
    18    26    27    1
    19     8    18    1
    20    18    19   ar
    21    19    20   ar
    22    20    21   ar
    23    21    22   ar
    24    22    23   ar
    25     8     9    1
    26    17    11   ar
    27     9     4    1
    28    23    18   ar
    29     3    10    1
    30    27    28    1
@<TRIPOS>MOLECULE
*****
 28 30 0 0 0
SMALL
GASTEIGER

@<TRIPOS>ATOM
      1 O          -0.8077    2.9347   21.8818 O.2     1  UNL1       -0.2522
      2 C           0.2622    2.0209   22.4016 C.2     1  UNL1        0.3077
      3 N           0.6142    2.0311   23.8596 N.am    1  UNL1       -0.2681
      4 N           0.9802    1.0967   21.4632 N.am    1  UNL1       -0.2637
      5 C           0.6282    1.0864   20.0051 C.3     1  UNL1        0.0950
      6 C           1.3461    0.1622   19.0668 C.3     1  UNL1        0.0219
      7 C           2.4160   -0.7516   19.5866 C.3     1  UNL1        0.0075
      8 C           2.7680   -0.7414   21.0446 C.3     1  UNL1        0.0374
      9 C           2.0501    0.1828   21.9829 C.3     1  UNL1        0.0989
     10 H           1.3164    1.4313   24.2007 H       1  UNL1        0.1564
     11 C          -0.1038    2.9553   24.7980 C.ar    1  UNL1        0.0516
     12 C           0.3255    4.3879   24.9144 C.ar    1  UNL1        0.0156
     13 C          -0.3925    5.3120   25.8528 C.ar    1  UNL1        0.0127
     14 C          -1.5396    4.8035   26.6747 C.ar    1  UNL1        0.0578
     15 CL         -2.2576    5.7277   27.6131 Cl      1  UNL1       -0.0822
     16 C          -1.9689    3.3710   26.5583 C.ar    1  UNL1        0.0127
     17 C          -1.2509    2.4469   25.6199 C.ar    1  UNL1        0.0156
     18 C           3.7234   -1.7883   20.5534 C.ar    1  UNL1       -0.0212
     19 C           5.1856   -1.6764   20.8689 C.ar    1  UNL1       -0.0042
     20 C           6.1410   -2.7233   20.3777 C.ar    1  UNL1       -0.0003
     21 C           5.6342   -3.8820   19.5711 C.ar    1  UNL1       -0.0000
     22 C           4.1720   -3.9938   19.2557 C.ar    1  UNL1       -0.0003
     23 C           3.2166   -2.9469   19.7469 C.ar    1  UNL1       -0.0042
     24 C           3.4518   -1.0947   22.3322 C.3     1  UNL1        0.0083
     25 C           2.8957   -0.6039   23.6359 C.3     1  UNL1        0.0321
     26 C           3.7542   -0.6064   24.8660 C.3     1  UNL1        0.1372
     27 O           3.5392   -1.6430   25.9285 O.3     1  UNL1       -0.3820
     28 H           2.6697   -1.5111   26.3378 H       1  UNL1        0.2104
@<TRIPOS>BOND
     1     1     2    2
     2     2     3   am
     3     3    11    1
     4    11    12   ar
     5    12    13   ar
     6    13    14   ar
     7    14    15    1
     8    14    16   ar
     9    16    17   ar
    10     2     4   am
    11     4     5    1
    12     5     6    1
    13     6     7    1
    14     7     8    1
    15     8    24    1
    16    24    25    1
    17    25    26    1
    18    26    27    1
    19     8    18    1
    20    18    19   ar
    21    19    20   ar
    22    20    21   ar
    23    21    22   ar
    24    22    23   ar
    25     8     9    1
    26    17    11   ar
    27     9     4    1
    28    23    18   ar
    29     3    10    1
    30    27    28    1
@<TRIPOS>MOLECULE
*****
 28 30 0 0 0
SMALL
GASTEIGER

@<TRIPOS>ATOM
      1 O           1.7864    0.4324   23.5850 O.2     1  UNL1       -0.2522
      2 C           0.6997    1.4158   23.2656 C.2     1  UNL1        0.3077
      3 N           0.4428    1.8136   21.8424 N.am    1  UNL1       -0.2681
      4 N          -0.1301    2.0014   24.3695 N.am    1  UNL1       -0.2637
      5 C           0.1268    1.6036   25.7928 C.3     1  UNL1        0.0950
      6 C          -0.7029    2.1892   26.8966 C.3     1  UNL1        0.0219
      7 C          -1.7896    3.1725   26.5772 C.3     1  UNL1        0.0075
      8 C          -2.0466    3.5703   25.1540 C.3     1  UNL1        0.0374
      9 C          -1.2168    2.9848   24.0501 C.3     1  UNL1        0.0989
     10 H          -0.2705    2.4590   21.6327 H       1  UNL1        0.1564
     11 C           1.2726    1.2280   20.7384 C.ar    1  UNL1        0.0516
     12 C           2.1563    2.1154   19.9129 C.ar    1  UNL1        0.0156
     13 C           2.9861    1.5298   18.8090 C.ar    1  UNL1        0.0127
     14 C           2.9321    0.0569   18.5307 C.ar    1  UNL1        0.0578
     15 CL          3.7619   -0.5287   17.4267 Cl      1  UNL1       -0.0822
     16 C           2.0483   -0.8305   19.3562 C.ar    1  UNL1        0.0127
     17 C           1.2186   -0.2449   20.4601 C.ar    1  UNL1        0.0156
     18 C          -3.0917    4.3934   25.8472 C.ar    1  UNL1       -0.0212
     19 C          -2.6836    5.4518   26.8286 C.ar    1  UNL1       -0.0042
     20 C          -3.7287    6.2748   27.5218 C.ar    1  UNL1       -0.0003
     21 C          -5.1818    6.0393   27.2335 C.ar    1  UNL1       -0.0000
     22 C          -5.5898    4.9809   26.2521 C.ar    1  UNL1       -0.0003
     23 C          -4.5447    4.1579   25.5589 C.ar    1  UNL1       -0.0042
     24 C          -2.6665    4.2540   23.9714 C.3     1  UNL1        0.0083
     25 C          -2.6555    3.5863   22.6283 C.3     1  UNL1        0.0321
     26 C          -3.8550    3.6828   21.7329 C.3     1  UNL1        0.1372
     27 O          -4.3654    2.4609   21.0284 O.3     1  UNL1       -0.3820
     28 H          -3.7058    2.1599   20.3842 H       1  UNL1        0.2104
@<TRIPOS>BOND
     1     1     2    2
     2     2     3   am
     3     3    11    1
     4    11    12   ar
     5    12    13   ar
     6    13    14   ar
     7    14    15    1
     8    14    16   ar
     9    16    17   ar
    10     2     4   am
    11     4     5    1
    12     5     6    1
    13     6     7    1
    14     7     8    1
    15     8    24    1
    16    24    25    1
    17    25    26    1
    18    26    27    1
    19     8    18    1
    20    18    19   ar
    21    19    20   ar
    22    20    21   ar
    23    21    22   ar
    24    22    23   ar
    25     8     9    1
    26    17    11   ar
    27     9     4    1
    28    23    18   ar
    29     3    10    1
    30    27    28    1
@<TRIPOS>MOLECULE
*****
 28 30 0 0 0
SMALL
GASTEIGER

@<TRIPOS>ATOM
      1 O           2.8028   -0.9681   30.3087 O.2     1  UNL1       -0.2522
      2 C           2.7077    0.1814   31.2677 C.2     1  UNL1        0.3077
      3 N           1.9563    1.4206   30.8809 N.am    1  UNL1       -0.2681
      4 N           3.3639    0.0915   32.6136 N.am    1  UNL1       -0.2637
      5 C           4.1153   -1.1477   33.0004 C.3     1  UNL1        0.0950
      6 C           4.7715   -1.2375   34.3462 C.3     1  UNL1        0.0219
      7 C           4.6764   -0.0880   35.3052 C.3     1  UNL1        0.0075
      8 C           3.9250    1.1512   34.9184 C.3     1  UNL1        0.0374
      9 C           3.2688    1.2410   33.5726 C.3     1  UNL1        0.0989
     10 H           1.8938    2.1751   31.5104 H       1  UNL1        0.1564
     11 C           1.3000    1.5105   29.5350 C.ar    1  UNL1        0.0516
     12 C          -0.0988    1.0026   29.3473 C.ar    1  UNL1        0.0156
     13 C          -0.7550    1.0924   28.0015 C.ar    1  UNL1        0.0127
     14 C          -0.0124    1.6902   26.8434 C.ar    1  UNL1        0.0578
     15 CL         -0.6686    1.7801   25.4975 Cl      1  UNL1       -0.0822
     16 C           1.3864    2.1981   27.0311 C.ar    1  UNL1        0.0127
     17 C           2.0426    2.1083   28.3770 C.ar    1  UNL1        0.0156
     18 C           4.3745    1.5385   36.2961 C.ar    1  UNL1       -0.0212
     19 C           3.5029    1.2421   37.4804 C.ar    1  UNL1       -0.0042
     20 C           3.9524    1.6294   38.8581 C.ar    1  UNL1       -0.0003
     21 C           5.2735    2.3131   39.0514 C.ar    1  UNL1       -0.0000
     22 C           6.1451    2.6095   37.8671 C.ar    1  UNL1       -0.0003
     23 C           5.6955    2.2222   36.4894 C.ar    1  UNL1       -0.0042
     24 C           3.3297    2.5250   35.0101 C.3     1  UNL1        0.0083
     25 C           2.0918    2.8594   34.2319 C.3     1  UNL1        0.0321
     26 C           1.4486    4.2055   34.3877 C.3     1  UNL1        0.1372
     27 O           1.2713    4.7984   35.7541 O.3     1  UNL1       -0.3820
     28 H           0.6446    4.2594   36.2616 H       1  UNL1        0.2104
@<TRIPOS>BOND
     1     1     2    2
     2     2     3   am
     3     3    11    1
     4    11    12   ar
     5    12    13   ar
     6    13    14   ar
     7    14    15    1
     8    14    16   ar
     9    16    17   ar
    10     2     4   am
    11     4     5    1
    12     5     6    1
    13     6     7    1
    14     7     8    1
    15     8    24    1
    16    24    25    1
    17    25    26    1
    18    26    27    1
    19     8    18    1
    20    18    19   ar
    21    19    20   ar
    22    20    21   ar
    23    21    22   ar
    24    22    23   ar
    25     8     9    1
    26    17    11   ar
    27     9     4    1
    28    23    18   ar
    29     3    10    1
    30    27    28    1
