@<TRIPOS>MOLECULE
*****
 20 22 0 0 0
SMALL
GASTEIGER

@<TRIPOS>ATOM
      1 C          -2.2404  -18.7776   20.1392 C.2     1  UNL1        0.1223
      2 C          -2.1865  -19.1775   21.5839 C.2     1  UNL1        0.0343
      3 C          -3.4573  -19.4241   22.3418 C.2     1  UNL1        0.0232
      4 C          -4.7819  -19.2707   21.6550 C.2     1  UNL1        0.0975
      5 N          -6.1904  -19.4455   22.1404 N.2     1  UNL1       -0.2200
      6 C          -7.1148  -19.1535   20.9957 C.2     1  UNL1        0.1901
      7 N          -6.2777  -18.7984   19.8028 N.2     1  UNL1       -0.2236
      8 C          -4.8358  -18.8708   20.2103 C.2     1  UNL1        0.0863
      9 C          -3.5651  -18.6242   19.4524 C.3     1  UNL1        0.1112
     10 C           0.1161  -17.6939   19.9898 C.3     1  UNL1        0.2520
     11 O          -0.9697  -18.5311   19.3813 O.2     1  UNL1       -0.4753
     12 S          -8.6133  -19.2073   21.0368 S.3     1  UNL1       -0.0709
     13 C          -9.4006  -17.9652   21.3326 C.3     1  UNL1        0.0913
     14 C         -10.6203  -18.0397   22.2024 C.ar    1  UNL1       -0.0109
     15 C         -10.5472  -18.7131   23.5407 C.ar    1  UNL1       -0.0037
     16 C         -11.7670  -18.7876   24.4105 C.ar    1  UNL1       -0.0046
     17 C         -13.0600  -18.1887   23.9420 C.ar    1  UNL1       -0.0219
     18 C         -14.2797  -18.2632   24.8117 C.3     1  UNL1        0.0310
     19 C         -13.1331  -17.5153   22.6036 C.ar    1  UNL1       -0.0046
     20 C         -11.9133  -17.4408   21.7338 C.ar    1  UNL1       -0.0037
@<TRIPOS>BOND
     1    10    11    1
     2    11     1    1
     3     1     2    2
     4     2     3    1
     5     3     4    2
     6     4     5    1
     7     5     6    2
     8     6    12    1
     9    12    13    1
    10    13    14    1
    11    14    15   ar
    12    15    16   ar
    13    16    17   ar
    14    17    18    1
    15    17    19   ar
    16    19    20   ar
    17     6     7    1
    18     7     8    2
    19     8     9    1
    20     9     1    1
    21     8     4    1
    22    20    14   ar
@<TRIPOS>MOLECULE
*****
 20 22 0 0 0
SMALL
GASTEIGER

@<TRIPOS>ATOM
      1 C          -2.6682  -18.9528   20.1982 C.2     1  UNL1        0.1223
      2 C          -2.5850  -19.3014   21.6547 C.2     1  UNL1        0.0343
      3 C          -3.8397  -19.4503   22.4631 C.2     1  UNL1        0.0232
      4 C          -5.1776  -19.2506   21.8150 C.2     1  UNL1        0.0975
      5 N          -6.5755  -19.3304   22.3531 N.2     1  UNL1       -0.2200
      6 C          -7.5226  -19.0312   21.2290 C.2     1  UNL1        0.1901
      7 N          -6.7101  -18.7664   19.9963 N.2     1  UNL1       -0.2236
      8 C          -5.2608  -18.9020   20.3585 C.2     1  UNL1        0.0863
      9 C          -4.0061  -18.7531   19.5501 C.3     1  UNL1        0.1112
     10 C          -0.3106  -17.9101   19.8745 C.3     1  UNL1        0.2520
     11 O          -1.4134  -18.8039   19.3898 O.2     1  UNL1       -0.4753
     12 S          -9.0195  -19.0019   21.3216 S.3     1  UNL1       -0.0709
     13 C          -9.7118  -17.8042   21.9015 C.3     1  UNL1        0.0913
     14 C          -9.3281  -17.3017   23.2617 C.ar    1  UNL1       -0.0109
     15 C          -9.6937  -18.0912   24.4836 C.ar    1  UNL1       -0.0037
     16 C          -9.3100  -17.5887   25.8438 C.ar    1  UNL1       -0.0046
     17 C          -8.5606  -16.2966   25.9822 C.ar    1  UNL1       -0.0219
     18 C          -8.1769  -15.7942   27.3424 C.3     1  UNL1        0.0310
     19 C          -8.1950  -15.5072   24.7603 C.ar    1  UNL1       -0.0046
     20 C          -8.5787  -16.0097   23.4000 C.ar    1  UNL1       -0.0037
@<TRIPOS>BOND
     1    10    11    1
     2    11     1    1
     3     1     2    2
     4     2     3    1
     5     3     4    2
     6     4     5    1
     7     5     6    2
     8     6    12    1
     9    12    13    1
    10    13    14    1
    11    14    15   ar
    12    15    16   ar
    13    16    17   ar
    14    17    18    1
    15    17    19   ar
    16    19    20   ar
    17     6     7    1
    18     7     8    2
    19     8     9    1
    20     9     1    1
    21     8     4    1
    22    20    14   ar
@<TRIPOS>MOLECULE
*****
 20 22 0 0 0
SMALL
GASTEIGER

@<TRIPOS>ATOM
      1 C          -1.9430  -18.3840   19.5843 C.2     1  UNL1        0.1223
      2 C          -1.4726  -18.3688   21.0085 C.2     1  UNL1        0.0343
      3 C          -2.4275  -18.6984   22.1173 C.2     1  UNL1        0.0232
      4 C          -3.8528  -19.0432   21.8020 C.2     1  UNL1        0.0975
      5 N          -5.0144  -19.4089   22.6777 N.2     1  UNL1       -0.2200
      6 C          -6.2028  -19.6501   21.7947 C.2     1  UNL1        0.1901
      7 N          -5.7756  -19.4335   20.3733 N.2     1  UNL1       -0.2236
      8 C          -4.3232  -19.0585   20.3778 C.2     1  UNL1        0.0863
      9 C          -3.3683  -18.7289   19.2689 C.3     1  UNL1        0.1112
     10 C          -1.5123  -17.6741   17.1225 C.3     1  UNL1        0.2520
     11 O          -0.9881  -18.0544   18.4754 O.2     1  UNL1       -0.4753
     12 S          -7.5771  -20.0395   22.2529 S.3     1  UNL1       -0.0709
     13 C          -8.4977  -19.0038   22.8273 C.3     1  UNL1        0.0913
     14 C          -9.3895  -18.2079   21.9212 C.ar    1  UNL1       -0.0109
     15 C         -10.0665  -18.8744   20.7604 C.ar    1  UNL1       -0.0037
     16 C         -10.9583  -18.0784   19.8544 C.ar    1  UNL1       -0.0046
     17 C         -11.1733  -16.6158   20.1091 C.ar    1  UNL1       -0.0219
     18 C         -12.0652  -15.8199   19.2031 C.3     1  UNL1        0.0310
     19 C         -10.4964  -15.9494   21.2700 C.ar    1  UNL1       -0.0046
     20 C          -9.6045  -16.7454   22.1760 C.ar    1  UNL1       -0.0037
@<TRIPOS>BOND
     1    10    11    1
     2    11     1    1
     3     1     2    2
     4     2     3    1
     5     3     4    2
     6     4     5    1
     7     5     6    2
     8     6    12    1
     9    12    13    1
    10    13    14    1
    11    14    15   ar
    12    15    16   ar
    13    16    17   ar
    14    17    18    1
    15    17    19   ar
    16    19    20   ar
    17     6     7    1
    18     7     8    2
    19     8     9    1
    20     9     1    1
    21     8     4    1
    22    20    14   ar
@<TRIPOS>MOLECULE
*****
 20 22 0 0 0
SMALL
GASTEIGER

@<TRIPOS>ATOM
      1 C         -16.6068   -7.8740   17.4591 C.2     1  UNL1        0.1223
      2 C         -16.7515   -6.9669   18.6449 C.2     1  UNL1        0.0343
      3 C         -15.5311   -6.4538   19.3500 C.2     1  UNL1        0.0232
      4 C         -14.1660   -6.8478   18.8694 C.2     1  UNL1        0.0975
      5 N         -12.7909   -6.5021   19.3591 N.2     1  UNL1       -0.2200
      6 C         -11.7964   -7.1955   18.4759 C.2     1  UNL1        0.1901
      7 N         -12.5567   -7.9698   17.4404 N.2     1  UNL1       -0.2236
      8 C         -14.0212   -7.7549   17.6836 C.2     1  UNL1        0.0863
      9 C         -15.2417   -8.2680   16.9784 C.3     1  UNL1        0.1112
     10 C         -19.0195   -8.8337   17.5470 C.3     1  UNL1        0.2520
     11 O         -17.8273   -8.3872   16.7539 O.2     1  UNL1       -0.4753
     12 S         -10.3035   -7.1267   18.6055 S.3     1  UNL1       -0.0709
     13 C          -9.6453   -5.8454   19.0238 C.3     1  UNL1        0.0913
     14 C          -9.9157   -4.5806   18.2643 C.ar    1  UNL1       -0.0109
     15 C          -9.3048   -4.3738   16.9100 C.ar    1  UNL1       -0.0037
     16 C          -9.5752   -3.1089   16.1505 C.ar    1  UNL1       -0.0046
     17 C         -10.4565   -2.0508   16.7452 C.ar    1  UNL1       -0.0219
     18 C         -10.7269   -0.7859   15.9856 C.3     1  UNL1        0.0310
     19 C         -11.0674   -2.2575   18.0994 C.ar    1  UNL1       -0.0046
     20 C         -10.7970   -3.5225   18.8590 C.ar    1  UNL1       -0.0037
@<TRIPOS>BOND
     1    10    11    1
     2    11     1    1
     3     1     2    2
     4     2     3    1
     5     3     4    2
     6     4     5    1
     7     5     6    2
     8     6    12    1
     9    12    13    1
    10    13    14    1
    11    14    15   ar
    12    15    16   ar
    13    16    17   ar
    14    17    18    1
    15    17    19   ar
    16    19    20   ar
    17     6     7    1
    18     7     8    2
    19     8     9    1
    20     9     1    1
    21     8     4    1
    22    20    14   ar
@<TRIPOS>MOLECULE
*****
 20 22 0 0 0
SMALL
GASTEIGER

@<TRIPOS>ATOM
      1 C          -4.9750  -16.6327   23.8234 C.2     1  UNL1        0.1223
      2 C          -5.1955  -15.7922   25.0461 C.2     1  UNL1        0.0343
      3 C          -6.5861  -15.3887   25.4380 C.2     1  UNL1        0.0232
      4 C          -7.7561  -15.8257   24.6072 C.2     1  UNL1        0.0975
      5 N          -9.2302  -15.5844   24.7441 N.2     1  UNL1       -0.2200
      6 C          -9.9207  -16.2758   23.6060 C.2     1  UNL1        0.1901
      7 N          -8.8733  -16.9444   22.7658 N.2     1  UNL1       -0.2236
      8 C          -7.5355  -16.6662   23.3846 C.2     1  UNL1        0.0863
      9 C          -6.1450  -17.0697   22.9927 C.3     1  UNL1        0.1112
     10 C          -3.3714  -18.2211   22.5368 C.3     1  UNL1        0.2520
     11 O          -3.5844  -17.0362   23.4315 O.2     1  UNL1       -0.4753
     12 S         -11.3991  -16.2951   23.3526 S.3     1  UNL1       -0.0709
     13 C         -12.0491  -17.5286   22.7994 C.3     1  UNL1        0.0913
     14 C         -11.3854  -18.2944   21.6936 C.ar    1  UNL1       -0.0109
     15 C         -11.2423  -17.6765   20.3342 C.ar    1  UNL1       -0.0037
     16 C         -10.5786  -18.4424   19.2284 C.ar    1  UNL1       -0.0046
     17 C         -10.0580  -19.8262   19.4818 C.ar    1  UNL1       -0.0219
     18 C          -9.3943  -20.5920   18.3760 C.3     1  UNL1        0.0310
     19 C         -10.2011  -20.4440   20.8411 C.ar    1  UNL1       -0.0046
     20 C         -10.8648  -19.6781   21.9470 C.ar    1  UNL1       -0.0037
@<TRIPOS>BOND
     1    10    11    1
     2    11     1    1
     3     1     2    2
     4     2     3    1
     5     3     4    2
     6     4     5    1
     7     5     6    2
     8     6    12    1
     9    12    13    1
    10    13    14    1
    11    14    15   ar
    12    15    16   ar
    13    16    17   ar
    14    17    18    1
    15    17    19   ar
    16    19    20   ar
    17     6     7    1
    18     7     8    2
    19     8     9    1
    20     9     1    1
    21     8     4    1
    22    20    14   ar
@<TRIPOS>MOLECULE
*****
 20 22 0 0 0
SMALL
GASTEIGER

@<TRIPOS>ATOM
      1 C          -4.4961    3.4149   24.0150 C.2     1  UNL1        0.1223
      2 C          -5.4146    3.2744   22.8375 C.2     1  UNL1        0.0343
      3 C          -4.8552    3.2745   21.4458 C.2     1  UNL1        0.0232
      4 C          -3.3773    3.4150   21.2315 C.2     1  UNL1        0.0975
      5 N          -2.5425    3.4488   19.9857 N.2     1  UNL1       -0.2200
      6 C          -1.1079    3.6102   20.3933 C.2     1  UNL1        0.1901
      7 N          -1.0562    3.6761   21.8910 N.2     1  UNL1       -0.2236
      8 C          -2.4588    3.5555   22.4090 C.2     1  UNL1        0.0863
      9 C          -3.0182    3.5555   23.8007 C.3     1  UNL1        0.1112
     10 C          -4.6287    4.4673   26.3867 C.3     1  UNL1        0.2520
     11 O          -5.0555    3.4149   25.4068 O.2     1  UNL1       -0.4753
     12 S           0.0684    3.6913   19.4660 S.3     1  UNL1       -0.0709
     13 C           0.3193    2.5936   18.4751 C.3     1  UNL1        0.0913
     14 C           1.1032    1.3810   18.8815 C.ar    1  UNL1       -0.0109
     15 C           2.4560    1.1279   18.2851 C.ar    1  UNL1       -0.0037
     16 C           3.2399   -0.0847   18.6916 C.ar    1  UNL1       -0.0046
     17 C           2.6709   -1.0441   19.6945 C.ar    1  UNL1       -0.0219
     18 C           3.4548   -2.2566   20.1010 C.3     1  UNL1        0.0310
     19 C           1.3181   -0.7909   20.2909 C.ar    1  UNL1       -0.0046
     20 C           0.5342    0.4217   19.8844 C.ar    1  UNL1       -0.0037
@<TRIPOS>BOND
     1    10    11    1
     2    11     1    1
     3     1     2    2
     4     2     3    1
     5     3     4    2
     6     4     5    1
     7     5     6    2
     8     6    12    1
     9    12    13    1
    10    13    14    1
    11    14    15   ar
    12    15    16   ar
    13    16    17   ar
    14    17    18    1
    15    17    19   ar
    16    19    20   ar
    17     6     7    1
    18     7     8    2
    19     8     9    1
    20     9     1    1
    21     8     4    1
    22    20    14   ar
@<TRIPOS>MOLECULE
*****
 20 22 0 0 0
SMALL
GASTEIGER

@<TRIPOS>ATOM
      1 C           2.5084   -1.0124   19.6183 C.2     1  UNL1        0.1223
      2 C           3.0288   -0.0713   18.5726 C.2     1  UNL1        0.0343
      3 C           2.3433    1.2421   18.3377 C.2     1  UNL1        0.0232
      4 C           1.1376    1.6145   19.1485 C.2     1  UNL1        0.0975
      5 N           0.2600    2.8309   19.1417 N.2     1  UNL1       -0.2200
      6 C          -0.8028    2.6416   20.1832 C.2     1  UNL1        0.1901
      7 N          -0.5820    1.3082   20.8338 N.2     1  UNL1       -0.2236
      8 C           0.6173    0.6734   20.1943 C.2     1  UNL1        0.0863
      9 C           1.3027   -0.6400   20.4292 C.3     1  UNL1        0.1112
     10 C           4.2932   -2.7727   18.9359 C.3     1  UNL1        0.2520
     11 O           3.1938   -2.3258   19.8533 O.2     1  UNL1       -0.4753
     12 S          -1.8947    3.6149   20.5157 S.3     1  UNL1       -0.0709
     13 C          -3.2988    3.3519   20.0581 C.3     1  UNL1        0.0913
     14 C          -4.4534    3.6639   20.9633 C.ar    1  UNL1       -0.0109
     15 C          -4.4454    3.1802   22.3831 C.ar    1  UNL1       -0.0037
     16 C          -5.6000    3.4921   23.2883 C.ar    1  UNL1       -0.0046
     17 C          -6.7628    4.2880   22.7737 C.ar    1  UNL1       -0.0219
     18 C          -7.9174    4.6000   23.6789 C.3     1  UNL1        0.0310
     19 C          -6.7708    4.7718   21.3539 C.ar    1  UNL1       -0.0046
     20 C          -5.6161    4.4597   20.4487 C.ar    1  UNL1       -0.0037
@<TRIPOS>BOND
     1    10    11    1
     2    11     1    1
     3     1     2    2
     4     2     3    1
     5     3     4    2
     6     4     5    1
     7     5     6    2
     8     6    12    1
     9    12    13    1
    10    13    14    1
    11    14    15   ar
    12    15    16   ar
    13    16    17   ar
    14    17    18    1
    15    17    19   ar
    16    19    20   ar
    17     6     7    1
    18     7     8    2
    19     8     9    1
    20     9     1    1
    21     8     4    1
    22    20    14   ar
@<TRIPOS>MOLECULE
*****
 20 22 0 0 0
SMALL
GASTEIGER

@<TRIPOS>ATOM
      1 C           8.4334   -7.1723   25.8651 C.2     1  UNL1        0.1223
      2 C           9.3865   -7.8609   24.9338 C.2     1  UNL1        0.0343
      3 C           9.4909   -7.4174   23.5047 C.2     1  UNL1        0.0232
      4 C           8.6422   -6.2853   23.0068 C.2     1  UNL1        0.0975
      5 N           8.5279   -5.6328   21.6610 N.2     1  UNL1       -0.2200
      6 C           7.5042   -4.5410   21.7605 C.2     1  UNL1        0.1901
      7 N           6.9857   -4.5186   23.1678 N.2     1  UNL1       -0.2236
      8 C           7.6890   -5.5967   23.9381 C.2     1  UNL1        0.0863
      9 C           7.5846   -6.0402   25.3672 C.3     1  UNL1        0.1112
     10 C           8.5357   -9.0586   27.6487 C.3     1  UNL1        0.2520
     11 O           8.3290   -7.6159   27.2942 O.2     1  UNL1       -0.4753
     12 S           7.0744   -3.6313   20.6479 S.3     1  UNL1       -0.0709
     13 C           5.8106   -3.9162   19.8920 C.3     1  UNL1        0.0913
     14 C           4.9032   -2.7893   19.4961 C.ar    1  UNL1       -0.0109
     15 C           3.7945   -2.3620   20.4117 C.ar    1  UNL1       -0.0037
     16 C           2.8872   -1.2351   20.0158 C.ar    1  UNL1       -0.0046
     17 C           3.0885   -0.5355   18.7042 C.ar    1  UNL1       -0.0219
     18 C           2.1811    0.5914   18.3083 C.3     1  UNL1        0.0310
     19 C           4.1971   -0.9627   17.7887 C.ar    1  UNL1       -0.0046
     20 C           5.1045   -2.0897   18.1846 C.ar    1  UNL1       -0.0037
@<TRIPOS>BOND
     1    10    11    1
     2    11     1    1
     3     1     2    2
     4     2     3    1
     5     3     4    2
     6     4     5    1
     7     5     6    2
     8     6    12    1
     9    12    13    1
    10    13    14    1
    11    14    15   ar
    12    15    16   ar
    13    16    17   ar
    14    17    18    1
    15    17    19   ar
    16    19    20   ar
    17     6     7    1
    18     7     8    2
    19     8     9    1
    20     9     1    1
    21     8     4    1
    22    20    14   ar
@<TRIPOS>MOLECULE
*****
 20 22 0 0 0
SMALL
GASTEIGER

@<TRIPOS>ATOM
      1 C           3.3903   -0.7319   18.6555 C.2     1  UNL1        0.1223
      2 C           2.7450   -1.4855   19.7805 C.2     1  UNL1        0.0343
      3 C           1.5469   -0.9122   20.4774 C.2     1  UNL1        0.0232
      4 C           0.9940    0.4148   20.0494 C.2     1  UNL1        0.0975
      5 N          -0.1669    1.2254   20.5446 N.2     1  UNL1       -0.2200
      6 C          -0.2391    2.4801   19.7257 C.2     1  UNL1        0.1901
      7 N           0.8771    2.4449   18.7243 N.2     1  UNL1       -0.2236
      8 C           1.6392    1.1685   18.9244 C.2     1  UNL1        0.0863
      9 C           2.8373    0.5951   18.2275 C.3     1  UNL1        0.1112
     10 C           4.9928   -2.7276   18.2098 C.3     1  UNL1        0.2520
     11 O           4.5884   -1.3052   17.9585 O.2     1  UNL1       -0.4753
     12 S          -1.2502    3.5773   19.8810 S.3     1  UNL1       -0.0709
     13 C          -2.6707    3.2444   20.2294 C.3     1  UNL1        0.0913
     14 C          -3.1532    3.4015   21.6409 C.ar    1  UNL1       -0.0109
     15 C          -2.1881    3.7766   22.7262 C.ar    1  UNL1       -0.0037
     16 C          -2.6706    3.9338   24.1377 C.ar    1  UNL1       -0.0046
     17 C          -4.1184    3.7158   24.4640 C.ar    1  UNL1       -0.0219
     18 C          -4.6010    3.8729   25.8755 C.3     1  UNL1        0.0310
     19 C          -5.0836    3.3407   23.3788 C.ar    1  UNL1       -0.0046
     20 C          -4.6010    3.1836   21.9672 C.ar    1  UNL1       -0.0037
@<TRIPOS>BOND
     1    10    11    1
     2    11     1    1
     3     1     2    2
     4     2     3    1
     5     3     4    2
     6     4     5    1
     7     5     6    2
     8     6    12    1
     9    12    13    1
    10    13    14    1
    11    14    15   ar
    12    15    16   ar
    13    16    17   ar
    14    17    18    1
    15    17    19   ar
    16    19    20   ar
    17     6     7    1
    18     7     8    2
    19     8     9    1
    20     9     1    1
    21     8     4    1
    22    20    14   ar
