@<TRIPOS>MOLECULE
*****
 35 39 0 0 0
SMALL
GASTEIGER

@<TRIPOS>ATOM
      1 C          -9.4720  -18.8906   20.8191 C.2     1  UNL1        0.2368
      2 O          -9.1091  -18.6217   19.3887 O.2     1  UNL1       -0.2737
      3 N          -8.4717  -19.5237   21.7403 N.am    1  UNL1       -0.3049
      4 H          -8.7098  -19.7001   22.6791 H       1  UNL1        0.1494
      5 C          -7.1086  -19.8878   21.2312 C.3     1  UNL1        0.0715
      6 C          -5.9097  -19.0985   21.6668 C.3     1  UNL1        0.0184
      7 C          -5.7454  -20.2519   20.7220 C.3     1  UNL1        0.0017
      8 C          -4.3822  -20.6161   20.2129 C.3     1  UNL1        0.0006
      9 C          -5.5811  -21.4054   19.7772 C.3     1  UNL1        0.0017
     10 C          -6.9443  -21.0412   20.2863 C.3     1  UNL1        0.0184
     11 C          -3.9450  -19.7950   20.7964 C.3     1  UNL1        0.0102
     12 C          -3.3477  -18.6734   21.5934 C.3     1  UNL1        0.0687
     13 C          -3.1834  -19.8269   20.6486 C.3     1  UNL1        0.0086
     14 C          -4.7108  -18.3093   22.1025 C.3     1  UNL1        0.0102
     15 C          -2.1488  -17.8842   22.0290 C.2     1  UNL1        0.2184
     16 N          -1.7498  -17.8629   23.4748 N.am    1  UNL1       -0.3288
     17 O          -1.3489  -17.1162   21.0189 O.2     1  UNL1       -0.2754
     18 H          -2.2748  -18.3669   24.1378 H       1  UNL1        0.1449
     19 H          -0.9630  -17.3449   23.7607 H       1  UNL1        0.1449
     20 C         -10.8351  -18.5264   21.3283 C.3     1  UNL1        0.1341
     21 C         -12.2692  -18.6698   21.7442 C.3     1  UNL1        0.0271
     22 C         -11.5127  -19.8615   21.2365 C.3     1  UNL1        0.0271
     23 N         -10.6309  -17.0649   21.5968 N.3     1  UNL1       -0.1484
     24 C         -11.4842  -16.0476   20.8990 C.3     1  UNL1        0.1153
     25 S          -9.5732  -16.6206   22.5633 S.O2    1  UNL1        0.0637
     26 O          -8.9662  -15.7536   21.5004 O.2     1  UNL1       -0.1528
     27 O         -10.1802  -17.4877   23.6262 O.2     1  UNL1       -0.1528
     28 C          -5.3426  -14.8436   26.4290 C.3     1  UNL1        0.0334
     29 C          -6.4002  -15.2878   25.4626 C.ar    1  UNL1        0.0057
     30 C          -7.7707  -15.6400   25.9603 C.ar    1  UNL1       -0.0007
     31 C          -8.8283  -16.0843   24.9938 C.ar    1  UNL1        0.0197
     32 C          -8.5155  -16.1763   23.5297 C.ar    1  UNL1        0.1244
     33 C          -7.1450  -15.8241   23.0320 C.ar    1  UNL1        0.0492
     34 C          -6.0874  -15.3799   23.9985 C.ar    1  UNL1        0.1375
     35 F          -4.7169  -15.0276   23.5007 F       1  UNL1       -0.2045
@<TRIPOS>BOND
     1    28    29    1
     2    29    30   ar
     3    30    31   ar
     4    31    32   ar
     5    32    25    1
     6    25    26    2
     7    25    27    2
     8    25    23    1
     9    23    24    1
    10    23    20    1
    11    20     1    1
    12     1     2    2
    13     1     3   am
    14     5     3    1
    15     5     6    1
    16     6     7    1
    17     7     8    1
    18     8     9    1
    19     9    10    1
    20    10    11    1
    21    11    12    1
    22    12    15    1
    23    15    16   am
    24    15    17    2
    25    12    13    1
    26    12    14    1
    27    20    21    1
    28    21    22    1
    29    32    33   ar
    30    33    34   ar
    31    34    35    1
    32    34    29   ar
    33    22    20    1
    34    10     5    1
    35    14     6    1
    36    13     8    1
    37     3     4    1
    38    16    18    1
    39    16    19    1
@<TRIPOS>MOLECULE
*****
 35 39 0 0 0
SMALL
GASTEIGER

@<TRIPOS>ATOM
      1 C          -6.0836  -16.2975   24.2249 C.2     1  UNL1        0.2368
      2 O          -5.9028  -15.3135   23.1073 O.2     1  UNL1       -0.2737
      3 N          -5.7817  -17.7498   24.0017 N.am    1  UNL1       -0.3049
      4 H          -5.9004  -18.3956   24.7352 H       1  UNL1        0.1494
      5 C          -5.2992  -18.2180   22.6609 C.3     1  UNL1        0.0715
      6 C          -3.8761  -17.9795   22.2507 C.3     1  UNL1        0.0184
      7 C          -4.8165  -18.6863   21.3200 C.3     1  UNL1        0.0017
      8 C          -4.3339  -19.1545   19.9792 C.3     1  UNL1        0.0006
      9 C          -5.7568  -19.3931   20.3893 C.3     1  UNL1        0.0017
     10 C          -6.2395  -18.9248   21.7302 C.3     1  UNL1        0.0184
     11 C          -3.3350  -18.7550   20.1993 C.3     1  UNL1        0.0102
     12 C          -1.9706  -18.2092   20.4998 C.3     1  UNL1        0.0687
     13 C          -2.9109  -18.9160   19.5691 C.3     1  UNL1        0.0086
     14 C          -2.4532  -17.7409   21.8406 C.3     1  UNL1        0.0102
     15 C          -0.5476  -17.9707   20.0896 C.2     1  UNL1        0.2184
     16 N           0.0151  -16.5804   20.1074 N.am    1  UNL1       -0.3288
     17 O           0.3127  -19.1225   19.6616 O.2     1  UNL1       -0.2754
     18 H          -0.5495  -15.8244   20.3883 H       1  UNL1        0.1449
     19 H           0.9491  -16.4238   19.8382 H       1  UNL1        0.1449
     20 C          -6.5662  -15.8293   25.5658 C.3     1  UNL1        0.1341
     21 C          -6.5715  -15.1526   26.9045 C.3     1  UNL1        0.0271
     22 C          -5.3592  -15.0663   26.0251 C.3     1  UNL1        0.0271
     23 N          -7.9408  -16.4297   25.5720 N.3     1  UNL1       -0.1484
     24 C          -8.4587  -17.1051   26.8071 C.3     1  UNL1        0.1153
     25 S          -8.7974  -16.3546   24.3429 S.O2    1  UNL1        0.0637
     26 O          -8.7894  -17.8515   24.2460 O.2     1  UNL1       -0.1528
     27 O          -8.8054  -14.8578   24.4399 O.2     1  UNL1       -0.1528
     28 C         -12.2241  -16.0545   19.4268 C.3     1  UNL1        0.0334
     29 C         -11.3674  -16.1296   20.6559 C.ar    1  UNL1        0.0057
     30 C         -10.0231  -15.4644   20.6748 C.ar    1  UNL1       -0.0007
     31 C          -9.1665  -15.5395   21.9038 C.ar    1  UNL1        0.0197
     32 C          -9.6541  -16.2796   23.1139 C.ar    1  UNL1        0.1244
     33 C         -10.9984  -16.9448   23.0950 C.ar    1  UNL1        0.0492
     34 C         -11.8551  -16.8697   21.8659 C.ar    1  UNL1        0.1375
     35 F         -13.1994  -17.5349   21.8470 F       1  UNL1       -0.2045
@<TRIPOS>BOND
     1    28    29    1
     2    29    30   ar
     3    30    31   ar
     4    31    32   ar
     5    32    25    1
     6    25    26    2
     7    25    27    2
     8    25    23    1
     9    23    24    1
    10    23    20    1
    11    20     1    1
    12     1     2    2
    13     1     3   am
    14     5     3    1
    15     5     6    1
    16     6     7    1
    17     7     8    1
    18     8     9    1
    19     9    10    1
    20    10    11    1
    21    11    12    1
    22    12    15    1
    23    15    16   am
    24    15    17    2
    25    12    13    1
    26    12    14    1
    27    20    21    1
    28    21    22    1
    29    32    33   ar
    30    33    34   ar
    31    34    35    1
    32    34    29   ar
    33    22    20    1
    34    10     5    1
    35    14     6    1
    36    13     8    1
    37     3     4    1
    38    16    18    1
    39    16    19    1
@<TRIPOS>MOLECULE
*****
 35 39 0 0 0
SMALL
GASTEIGER

@<TRIPOS>ATOM
      1 C         -11.5083   -4.8426   18.0487 C.2     1  UNL1        0.2368
      2 O         -11.9080   -4.4272   16.6639 O.2     1  UNL1       -0.2737
      3 N         -11.8013   -3.9456   19.2147 N.am    1  UNL1       -0.3049
      4 H         -11.5389   -4.2183   20.1236 H       1  UNL1        0.1494
      5 C         -12.4938   -2.6332   18.9960 C.3     1  UNL1        0.0715
      6 C         -13.9428   -2.4811   19.3530 C.3     1  UNL1        0.0184
      7 C         -13.1865   -1.3208   18.7773 C.3     1  UNL1        0.0017
      8 C         -13.8790   -0.0083   18.5585 C.3     1  UNL1        0.0006
      9 C         -12.4301   -0.1604   18.2016 C.3     1  UNL1        0.0017
     10 C         -11.7375   -1.4728   18.4203 C.3     1  UNL1        0.0184
     11 C         -14.8111   -0.4346   18.9527 C.3     1  UNL1        0.0102
     12 C         -16.0843   -1.0167   19.4912 C.3     1  UNL1        0.0687
     13 C         -15.3279    0.1437   18.9155 C.3     1  UNL1        0.0086
     14 C         -15.3917   -2.3291   19.7099 C.3     1  UNL1        0.0102
     15 C         -17.5333   -0.8646   19.8482 C.2     1  UNL1        0.2184
     16 N         -18.5765   -1.6336   19.0929 N.am    1  UNL1       -0.3288
     17 O         -17.9390    0.0564   20.9604 O.2     1  UNL1       -0.2754
     18 H         -18.3102   -2.2381   18.3629 H       1  UNL1        0.1449
     19 H         -19.5275   -1.5338   19.3272 H       1  UNL1        0.1449
     20 C         -10.8157   -6.1551   18.2675 C.3     1  UNL1        0.1341
     21 C          -9.7868   -7.1473   18.7221 C.3     1  UNL1        0.0271
     22 C          -9.6065   -5.6887   19.0226 C.3     1  UNL1        0.0271
     23 N         -11.7846   -7.0771   17.5884 N.3     1  UNL1       -0.1484
     24 C         -11.3557   -7.8602   16.3830 C.3     1  UNL1        0.1153
     25 S         -13.1823   -7.2161   18.1147 S.O2    1  UNL1        0.0637
     26 O         -12.6844   -6.9566   19.5056 O.2     1  UNL1       -0.1528
     27 O         -13.6803   -7.4755   16.7237 O.2     1  UNL1       -0.1528
     28 C         -18.7734   -7.7720   20.2197 C.3     1  UNL1        0.0334
     29 C         -17.3756   -7.6330   19.6934 C.ar    1  UNL1        0.0057
     30 C         -16.8009   -6.2704   19.4421 C.ar    1  UNL1       -0.0007
     31 C         -15.4031   -6.1316   18.9158 C.ar    1  UNL1        0.0197
     32 C         -14.5801   -7.3551   18.6409 C.ar    1  UNL1        0.1244
     33 C         -15.1549   -8.7176   18.8923 C.ar    1  UNL1        0.0492
     34 C         -16.5527   -8.8566   19.4186 C.ar    1  UNL1        0.1375
     35 F         -17.1274  -10.2191   19.6699 F       1  UNL1       -0.2045
@<TRIPOS>BOND
     1    28    29    1
     2    29    30   ar
     3    30    31   ar
     4    31    32   ar
     5    32    25    1
     6    25    26    2
     7    25    27    2
     8    25    23    1
     9    23    24    1
    10    23    20    1
    11    20     1    1
    12     1     2    2
    13     1     3   am
    14     5     3    1
    15     5     6    1
    16     6     7    1
    17     7     8    1
    18     8     9    1
    19     9    10    1
    20    10    11    1
    21    11    12    1
    22    12    15    1
    23    15    16   am
    24    15    17    2
    25    12    13    1
    26    12    14    1
    27    20    21    1
    28    21    22    1
    29    32    33   ar
    30    33    34   ar
    31    34    35    1
    32    34    29   ar
    33    22    20    1
    34    10     5    1
    35    14     6    1
    36    13     8    1
    37     3     4    1
    38    16    18    1
    39    16    19    1
@<TRIPOS>MOLECULE
*****
 35 39 0 0 0
SMALL
GASTEIGER

@<TRIPOS>ATOM
      1 C         -15.4183   -1.7787   18.9424 C.2     1  UNL1        0.2368
      2 O         -15.0306   -1.4473   17.5318 O.2     1  UNL1       -0.2737
      3 N         -14.4291   -2.4383   19.8569 N.am    1  UNL1       -0.3049
      4 H         -14.6836   -2.6558   20.7827 H       1  UNL1        0.1494
      5 C         -13.0521   -2.7664   19.3608 C.3     1  UNL1        0.0715
      6 C         -12.6520   -4.1967   19.1496 C.3     1  UNL1        0.0184
      7 C         -11.6750   -3.0947   18.8648 C.3     1  UNL1        0.0017
      8 C         -10.2980   -3.4229   18.3687 C.3     1  UNL1        0.0006
      9 C         -10.6980   -1.9927   18.5799 C.3     1  UNL1        0.0017
     10 C         -12.0751   -1.6645   19.0760 C.3     1  UNL1        0.0184
     11 C         -10.5419   -4.4931   18.3998 C.3     1  UNL1        0.0102
     12 C         -10.8750   -5.9550   18.4423 C.3     1  UNL1        0.0687
     13 C          -9.8980   -4.8530   18.1575 C.3     1  UNL1        0.0086
     14 C         -12.2520   -5.6268   18.9384 C.3     1  UNL1        0.0102
     15 C         -10.4750   -7.3852   18.2311 C.2     1  UNL1        0.2184
     16 N          -9.5700   -8.0641   19.2159 N.am    1  UNL1       -0.3288
     17 O         -10.9800   -8.1364   17.0350 O.2     1  UNL1       -0.2754
     18 H          -9.2385   -7.5711   20.0010 H       1  UNL1        0.1449
     19 H          -9.3074   -9.0028   19.0773 H       1  UNL1        0.1449
     20 C         -16.7954   -1.4505   19.4385 C.3     1  UNL1        0.1341
     21 C         -17.8964   -0.7604   20.1879 C.3     1  UNL1        0.0271
     22 C         -16.4787   -0.2944   20.3402 C.3     1  UNL1        0.0271
     23 N         -17.5902   -2.4927   18.7091 N.3     1  UNL1       -0.1484
     24 C         -18.9140   -2.1366   18.1001 C.3     1  UNL1        0.1153
     25 S         -17.0612   -3.8912   18.5886 S.O2    1  UNL1        0.0637
     26 O         -17.1477   -3.7951   17.0941 O.2     1  UNL1       -0.1528
     27 O         -16.9747   -3.9872   20.0830 O.2     1  UNL1       -0.1528
     28 C         -14.9451   -9.4849   18.1066 C.3     1  UNL1        0.0334
     29 C         -15.4741   -8.0865   18.2271 C.ar    1  UNL1        0.0057
     30 C         -15.1655   -7.0737   17.1645 C.ar    1  UNL1       -0.0007
     31 C         -15.6946   -5.6753   17.2850 C.ar    1  UNL1        0.0197
     32 C         -16.5321   -5.2897   18.4681 C.ar    1  UNL1        0.1244
     33 C         -16.8407   -6.3024   19.5307 C.ar    1  UNL1        0.0492
     34 C         -16.3117   -7.7009   19.4102 C.ar    1  UNL1        0.1375
     35 F         -16.6203   -8.7136   20.4728 F       1  UNL1       -0.2045
@<TRIPOS>BOND
     1    28    29    1
     2    29    30   ar
     3    30    31   ar
     4    31    32   ar
     5    32    25    1
     6    25    26    2
     7    25    27    2
     8    25    23    1
     9    23    24    1
    10    23    20    1
    11    20     1    1
    12     1     2    2
    13     1     3   am
    14     5     3    1
    15     5     6    1
    16     6     7    1
    17     7     8    1
    18     8     9    1
    19     9    10    1
    20    10    11    1
    21    11    12    1
    22    12    15    1
    23    15    16   am
    24    15    17    2
    25    12    13    1
    26    12    14    1
    27    20    21    1
    28    21    22    1
    29    32    33   ar
    30    33    34   ar
    31    34    35    1
    32    34    29   ar
    33    22    20    1
    34    10     5    1
    35    14     6    1
    36    13     8    1
    37     3     4    1
    38    16    18    1
    39    16    19    1
@<TRIPOS>MOLECULE
*****
 35 39 0 0 0
SMALL
GASTEIGER

@<TRIPOS>ATOM
      1 C         -16.1191   -3.4249   19.2898 C.2     1  UNL1        0.2368
      2 O         -15.7185   -4.0516   20.5924 O.2     1  UNL1       -0.2737
      3 N         -17.1630   -4.0777   18.4331 N.am    1  UNL1       -0.3049
      4 H         -17.4260   -3.6664   17.5781 H       1  UNL1        0.1494
      5 C         -17.8064   -5.3573   18.8789 C.3     1  UNL1        0.0715
      6 C         -17.1071   -6.6656   18.6564 C.3     1  UNL1        0.0184
      7 C         -18.4497   -6.6369   19.3247 C.3     1  UNL1        0.0017
      8 C         -19.0930   -7.9165   19.7705 C.3     1  UNL1        0.0006
      9 C         -19.7923   -6.6083   19.9929 C.3     1  UNL1        0.0017
     10 C         -19.1490   -5.3286   19.5471 C.3     1  UNL1        0.0184
     11 C         -18.2300   -8.4815   19.3940 C.3     1  UNL1        0.0102
     12 C         -17.0512   -9.2534   18.8798 C.3     1  UNL1        0.0687
     13 C         -18.3938   -9.2247   19.5480 C.3     1  UNL1        0.0086
     14 C         -16.4078   -7.9738   18.4340 C.3     1  UNL1        0.0102
     15 C         -16.3519  -10.5617   18.6573 C.2     1  UNL1        0.2184
     16 N         -17.0161  -11.8450   19.0596 N.am    1  UNL1       -0.3288
     17 O         -14.9884  -10.5866   18.0326 O.2     1  UNL1       -0.2754
     18 H         -17.9110  -11.8287   19.4697 H       1  UNL1        0.1449
     19 H         -16.5571  -12.7037   18.9136 H       1  UNL1        0.1449
     20 C         -15.4758   -2.1452   18.8440 C.3     1  UNL1        0.1341
     21 C         -15.1043   -0.6924   18.8073 C.3     1  UNL1        0.0271
     22 C         -16.0352   -1.2021   19.8674 C.3     1  UNL1        0.0271
     23 N         -14.6930   -2.6441   17.6657 N.3     1  UNL1       -0.1484
     24 C         -14.9548   -2.0833   16.2994 C.3     1  UNL1        0.1153
     25 S         -13.6482   -3.7040   17.8538 S.O2    1  UNL1        0.0637
     26 O         -12.8688   -2.7784   18.7402 O.2     1  UNL1       -0.1528
     27 O         -14.4277   -4.6297   16.9674 O.2     1  UNL1       -0.1528
     28 C          -9.4695   -7.9433   18.6063 C.3     1  UNL1        0.0334
     29 C         -10.5142   -6.8835   18.4182 C.ar    1  UNL1        0.0057
     30 C         -11.7590   -7.1875   17.6384 C.ar    1  UNL1       -0.0007
     31 C         -12.8036   -6.1276   17.4503 C.ar    1  UNL1        0.0197
     32 C         -12.6035   -4.7639   18.0420 C.ar    1  UNL1        0.1244
     33 C         -11.3588   -4.4599   18.8218 C.ar    1  UNL1        0.0492
     34 C         -10.3141   -5.5198   19.0099 C.ar    1  UNL1        0.1375
     35 F          -9.0693   -5.2158   19.7897 F       1  UNL1       -0.2045
@<TRIPOS>BOND
     1    28    29    1
     2    29    30   ar
     3    30    31   ar
     4    31    32   ar
     5    32    25    1
     6    25    26    2
     7    25    27    2
     8    25    23    1
     9    23    24    1
    10    23    20    1
    11    20     1    1
    12     1     2    2
    13     1     3   am
    14     5     3    1
    15     5     6    1
    16     6     7    1
    17     7     8    1
    18     8     9    1
    19     9    10    1
    20    10    11    1
    21    11    12    1
    22    12    15    1
    23    15    16   am
    24    15    17    2
    25    12    13    1
    26    12    14    1
    27    20    21    1
    28    21    22    1
    29    32    33   ar
    30    33    34   ar
    31    34    35    1
    32    34    29   ar
    33    22    20    1
    34    10     5    1
    35    14     6    1
    36    13     8    1
    37     3     4    1
    38    16    18    1
    39    16    19    1
