@<TRIPOS>MOLECULE
*****
 31 33 0 0 0
SMALL
GASTEIGER

@<TRIPOS>ATOM
      1 C         -10.1649  -18.2384   23.6102 C.3     1  UNL1        0.1624
      2 O          -9.1779  -19.2371   23.0825 O.3     1  UNL1       -0.3320
      3 C          -7.9810  -18.4851   22.5805 C.3     1  UNL1        0.2371
      4 C          -8.2283  -17.0217   22.7980 C.3     1  UNL1        0.1895
      5 O          -7.2906  -15.9066   22.4417 O.3     1  UNL1       -0.3779
      6 C          -9.5781  -16.8692   23.4345 C.3     1  UNL1        0.1701
      7 O         -10.2269  -15.5749   23.8263 O.3     1  UNL1       -0.3794
      8 H          -7.6902  -15.0573   22.6866 H       1  UNL1        0.2106
      9 H         -11.0965  -15.7544   24.2168 H       1  UNL1        0.2105
     10 N          -6.7526  -19.0902   21.9684 N.ar    1  UNL1       -0.2694
     11 C          -6.7235  -20.2252   20.9880 C.ar    1  UNL1        0.1816
     12 N          -5.2905  -20.5030   20.6430 N.ar    1  UNL1       -0.2194
     13 C          -4.4338  -19.5399   21.4101 C.ar    1  UNL1        0.1481
     14 C          -2.9477  -19.3452   21.4686 C.ar    1  UNL1        0.1480
     15 N          -2.0440  -20.2183   20.6494 N.pl3   1  UNL1       -0.3413
     16 N          -2.3652  -18.2773   22.3462 N.ar    1  UNL1       -0.2078
     17 C          -3.2688  -17.4041   23.1653 C.ar    1  UNL1        0.2015
     18 N          -4.7549  -17.5988   23.1069 N.ar    1  UNL1       -0.2048
     19 C          -5.3374  -18.6667   22.2293 C.ar    1  UNL1        0.1690
     20 H          -2.4264  -20.9193   20.0734 H       1  UNL1        0.1438
     21 H          -1.0686  -20.0905   20.6878 H       1  UNL1        0.1438
     22 C         -11.5038  -18.5537   24.2088 C.3     1  UNL1        0.1050
     23 C         -14.0694  -18.1468   24.2533 C.3     1  UNL1        0.0900
     24 N         -12.7575  -18.0896   23.5284 N.3     1  UNL1       -0.2656
     25 C         -12.6992  -17.5683   22.1230 C.3     1  UNL1        0.0987
     26 C         -11.9895  -18.3542   21.0606 C.2     1  UNL1       -0.0120
     27 C         -11.3225  -17.6424   19.9209 C.2     1  UNL1       -0.0125
     28 C         -11.3652  -16.1450   19.8439 C.3     1  UNL1        0.0916
     29 N         -12.4004  -15.4670   18.9962 N.3     1  UNL1       -0.3175
     30 H         -12.2308  -15.6837   18.0141 H       1  UNL1        0.1192
     31 H         -12.3467  -14.4580   19.1360 H       1  UNL1        0.1192
@<TRIPOS>BOND
     1    23    24    1
     2    24    25    1
     3    25    26    1
     4    26    27    2
     5    27    28    1
     6    28    29    1
     7    24    22    1
     8     1    22    1
     9     1     2    1
    10     2     3    1
    11     3    10    1
    12    10    11   ar
    13    11    12   ar
    14    12    13   ar
    15    13    14   ar
    16    14    15    1
    17    14    16   ar
    18    16    17   ar
    19    17    18   ar
    20    18    19   ar
    21     3     4    1
    22     4     5    1
    23     4     6    1
    24     6     7    1
    25     6     1    1
    26    19    10   ar
    27    19    13   ar
    28    29    30    1
    29    29    31    1
    30    15    20    1
    31    15    21    1
    32     5     8    1
    33     7     9    1
@<TRIPOS>MOLECULE
*****
 31 33 0 0 0
SMALL
GASTEIGER

@<TRIPOS>ATOM
      1 C          -5.0400  -16.7599   23.6926 C.3     1  UNL1        0.1624
      2 O          -6.1914  -17.2512   22.8661 O.3     1  UNL1       -0.3320
      3 C          -7.3406  -16.3080   23.0652 C.3     1  UNL1        0.2371
      4 C          -6.8995  -15.2339   24.0147 C.3     1  UNL1        0.1895
      5 O          -7.7337  -14.0825   24.4926 O.3     1  UNL1       -0.3779
      6 C          -5.4776  -15.5131   24.4025 C.3     1  UNL1        0.1701
      7 O          -4.6405  -14.6902   25.3362 O.3     1  UNL1       -0.3794
      8 H          -7.2116  -13.5348   25.0995 H       1  UNL1        0.2106
      9 H          -3.7593  -15.0878   25.4161 H       1  UNL1        0.2105
     10 N          -8.6934  -16.4194   22.4269 N.ar    1  UNL1       -0.2694
     11 C          -9.1191  -15.7692   21.1439 C.ar    1  UNL1        0.1816
     12 N         -10.5468  -16.1486   20.8836 N.ar    1  UNL1       -0.2194
     13 C         -11.0034  -17.0332   22.0056 C.ar    1  UNL1        0.1481
     14 C         -12.3143  -17.7079   22.2820 C.ar    1  UNL1        0.1480
     15 N         -13.4598  -17.5405   21.3282 N.pl3   1  UNL1       -0.3413
     16 N         -12.4796  -18.5500   23.5123 N.ar    1  UNL1       -0.2078
     17 C         -11.3341  -18.7174   24.4661 C.ar    1  UNL1        0.2015
     18 N         -10.0232  -18.0426   24.1897 N.ar    1  UNL1       -0.2048
     19 C          -9.8579  -17.2006   22.9595 C.ar    1  UNL1        0.1690
     20 H         -13.3513  -16.9878   20.5208 H       1  UNL1        0.1438
     21 H         -14.3201  -17.9834   21.5096 H       1  UNL1        0.1438
     22 C          -3.6883  -17.4027   23.7918 C.3     1  UNL1        0.1050
     23 C          -2.2227  -16.3872   21.9021 C.3     1  UNL1        0.0900
     24 N          -2.8500  -17.5800   22.5605 N.3     1  UNL1       -0.2656
     25 C          -2.6390  -18.9503   21.9878 C.3     1  UNL1        0.0987
     26 C          -2.5700  -19.1392   20.5013 C.2     1  UNL1       -0.0120
     27 C          -3.8264  -19.3738   19.7160 C.2     1  UNL1       -0.0125
     28 C          -5.1516  -19.4194   20.4172 C.3     1  UNL1        0.0916
     29 N          -6.2561  -18.4970   19.9941 N.3     1  UNL1       -0.3175
     30 H          -5.9898  -17.5331   20.1949 H       1  UNL1        0.1192
     31 H          -7.1073  -18.7283   20.5063 H       1  UNL1        0.1192
@<TRIPOS>BOND
     1    23    24    1
     2    24    25    1
     3    25    26    1
     4    26    27    2
     5    27    28    1
     6    28    29    1
     7    24    22    1
     8     1    22    1
     9     1     2    1
    10     2     3    1
    11     3    10    1
    12    10    11   ar
    13    11    12   ar
    14    12    13   ar
    15    13    14   ar
    16    14    15    1
    17    14    16   ar
    18    16    17   ar
    19    17    18   ar
    20    18    19   ar
    21     3     4    1
    22     4     5    1
    23     4     6    1
    24     6     7    1
    25     6     1    1
    26    19    10   ar
    27    19    13   ar
    28    29    30    1
    29    29    31    1
    30    15    20    1
    31    15    21    1
    32     5     8    1
    33     7     9    1
@<TRIPOS>MOLECULE
*****
 31 33 0 0 0
SMALL
GASTEIGER

@<TRIPOS>ATOM
      1 C         -10.1130  -18.0545   23.4627 C.3     1  UNL1        0.1624
      2 O          -8.7835  -18.7070   23.2252 O.3     1  UNL1       -0.3320
      3 C          -7.7722  -17.6252   22.9866 C.3     1  UNL1        0.2371
      4 C          -8.4767  -16.3041   23.0767 C.3     1  UNL1        0.1895
      5 O          -7.8453  -14.9546   22.9031 O.3     1  UNL1       -0.3779
      6 C          -9.9235  -16.5693   23.3710 C.3     1  UNL1        0.1701
      7 O         -10.9928  -15.5317   23.5432 O.3     1  UNL1       -0.3794
      8 H          -8.5198  -14.2658   23.0105 H       1  UNL1        0.2106
      9 H         -11.8399  -15.9675   23.7258 H       1  UNL1        0.2105
     10 N          -6.3126  -17.8289   22.7070 N.ar    1  UNL1       -0.2694
     11 C          -5.1844  -17.0232   23.2798 C.ar    1  UNL1        0.1816
     12 N          -3.8995  -17.5704   22.7323 N.ar    1  UNL1       -0.2194
     13 C          -4.2336  -18.7142   21.8212 C.ar    1  UNL1        0.1481
     14 C          -3.3726  -19.6308   21.0037 C.ar    1  UNL1        0.1480
     15 N          -1.8812  -19.4711   21.0194 N.pl3   1  UNL1       -0.3413
     16 N          -4.0029  -20.7073   20.1707 N.ar    1  UNL1       -0.2078
     17 C          -5.4943  -20.8670   20.1551 C.ar    1  UNL1        0.2015
     18 N          -6.3553  -19.9503   20.9725 N.ar    1  UNL1       -0.2048
     19 C          -5.7250  -18.8739   21.8055 C.ar    1  UNL1        0.1690
     20 H          -1.4675  -18.7646   21.5661 H       1  UNL1        0.1438
     21 H          -1.3160  -20.0728   20.4829 H       1  UNL1        0.1438
     22 C         -11.4053  -18.7627   23.7429 C.3     1  UNL1        0.1050
     23 C         -13.7805  -17.7655   24.0807 C.3     1  UNL1        0.0900
     24 N         -12.6879  -18.2383   23.1683 N.3     1  UNL1       -0.2656
     25 C         -12.8777  -18.1866   21.6811 C.3     1  UNL1        0.0987
     26 C         -12.3814  -17.0046   20.9024 C.2     1  UNL1       -0.0120
     27 C         -11.2529  -17.1688   19.9278 C.2     1  UNL1       -0.0125
     28 C         -10.6209  -18.5150   19.7321 C.3     1  UNL1        0.0916
     29 N          -9.1618  -18.7077   20.0215 N.3     1  UNL1       -0.3175
     30 H          -8.6090  -18.1618   19.3605 H       1  UNL1        0.1192
     31 H          -8.9244  -19.6953   19.9291 H       1  UNL1        0.1192
@<TRIPOS>BOND
     1    23    24    1
     2    24    25    1
     3    25    26    1
     4    26    27    2
     5    27    28    1
     6    28    29    1
     7    24    22    1
     8     1    22    1
     9     1     2    1
    10     2     3    1
    11     3    10    1
    12    10    11   ar
    13    11    12   ar
    14    12    13   ar
    15    13    14   ar
    16    14    15    1
    17    14    16   ar
    18    16    17   ar
    19    17    18   ar
    20    18    19   ar
    21     3     4    1
    22     4     5    1
    23     4     6    1
    24     6     7    1
    25     6     1    1
    26    19    10   ar
    27    19    13   ar
    28    29    30    1
    29    29    31    1
    30    15    20    1
    31    15    21    1
    32     5     8    1
    33     7     9    1
@<TRIPOS>MOLECULE
*****
 31 33 0 0 0
SMALL
GASTEIGER

@<TRIPOS>ATOM
      1 C         -10.2605  -19.0905   22.8062 C.3     1  UNL1        0.1624
      2 O          -8.9429  -18.6901   23.4009 O.3     1  UNL1       -0.3320
      3 C          -7.9243  -18.6701   22.2999 C.3     1  UNL1        0.2371
      4 C          -8.6124  -19.0583   21.0249 C.3     1  UNL1        0.1895
      5 O          -7.9695  -19.1674   19.6740 O.3     1  UNL1       -0.3779
      6 C         -10.0562  -19.3181   21.3377 C.3     1  UNL1        0.1701
      7 O         -11.1106  -19.7327   20.3547 O.3     1  UNL1       -0.3794
      8 H          -8.6342  -19.4351   19.0203 H       1  UNL1        0.2106
      9 H         -11.9589  -19.8342   20.8140 H       1  UNL1        0.2105
     10 N          -6.4726  -18.3230   22.4481 N.ar    1  UNL1       -0.2694
     11 C          -5.9139  -17.2024   23.2741 C.ar    1  UNL1        0.1816
     12 N          -4.4207  -17.2224   23.1328 N.ar    1  UNL1       -0.2194
     13 C          -4.0566  -18.3553   22.2195 C.ar    1  UNL1        0.1481
     14 C          -2.7341  -18.8554   21.7186 C.ar    1  UNL1        0.1480
     15 N          -1.4659  -18.1752   22.1417 N.pl3   1  UNL1       -0.3413
     16 N          -2.6798  -20.0356   20.7945 N.ar    1  UNL1       -0.2078
     17 C          -3.9480  -20.7159   20.3714 C.ar    1  UNL1        0.2015
     18 N          -5.2704  -20.2158   20.8723 N.ar    1  UNL1       -0.2048
     19 C          -5.3247  -19.0355   21.7964 C.ar    1  UNL1        0.1690
     20 H          -1.5016  -17.4005   22.7482 H       1  UNL1        0.1438
     21 H          -0.5979  -18.5034   21.8129 H       1  UNL1        0.1438
     22 C         -11.5551  -19.2376   23.5495 C.3     1  UNL1        0.1050
     23 C         -13.7813  -18.1705   24.3591 C.3     1  UNL1        0.0900
     24 N         -12.6271  -18.1989   23.4015 N.3     1  UNL1       -0.2656
     25 C         -12.5449  -17.1886   22.2957 C.3     1  UNL1        0.0987
     26 C         -11.4460  -16.1677   22.2929 C.2     1  UNL1       -0.0120
     27 C         -10.8790  -15.6797   20.9926 C.2     1  UNL1       -0.0125
     28 C         -11.4110  -16.2127   19.6954 C.3     1  UNL1        0.0916
     29 N         -12.4569  -15.4457   18.9420 N.3     1  UNL1       -0.3175
     30 H         -13.3202  -15.4248   19.4848 H       1  UNL1        0.1192
     31 H         -12.6304  -15.8987   18.0447 H       1  UNL1        0.1192
@<TRIPOS>BOND
     1    23    24    1
     2    24    25    1
     3    25    26    1
     4    26    27    2
     5    27    28    1
     6    28    29    1
     7    24    22    1
     8     1    22    1
     9     1     2    1
    10     2     3    1
    11     3    10    1
    12    10    11   ar
    13    11    12   ar
    14    12    13   ar
    15    13    14   ar
    16    14    15    1
    17    14    16   ar
    18    16    17   ar
    19    17    18   ar
    20    18    19   ar
    21     3     4    1
    22     4     5    1
    23     4     6    1
    24     6     7    1
    25     6     1    1
    26    19    10   ar
    27    19    13   ar
    28    29    30    1
    29    29    31    1
    30    15    20    1
    31    15    21    1
    32     5     8    1
    33     7     9    1
@<TRIPOS>MOLECULE
*****
 31 33 0 0 0
SMALL
GASTEIGER

@<TRIPOS>ATOM
      1 C          -7.9477  -18.8105   22.5329 C.3     1  UNL1        0.1624
      2 O          -6.5410  -19.2172   22.2077 O.3     1  UNL1       -0.3320
      3 C          -5.6381  -18.0646   22.5339 C.3     1  UNL1        0.2371
      4 C          -6.4868  -16.9456   23.0606 C.3     1  UNL1        0.1895
      5 O          -5.9945  -15.6016   23.5093 O.3     1  UNL1       -0.3779
      6 C          -7.9142  -17.4065   23.0600 C.3     1  UNL1        0.1701
      7 O          -9.0999  -16.6044   23.5079 O.3     1  UNL1       -0.3794
      8 H          -6.7460  -15.0640   23.8042 H       1  UNL1        0.2106
      9 H          -9.9060  -17.1342   23.4056 H       1  UNL1        0.2105
     10 N          -4.1481  -18.0361   22.3632 N.ar    1  UNL1       -0.2694
     11 C          -3.1356  -17.9585   23.4672 C.ar    1  UNL1        0.1816
     12 N          -1.7708  -17.9546   22.8449 N.ar    1  UNL1       -0.2194
     13 C          -1.9398  -18.0299   21.3563 C.ar    1  UNL1        0.1481
     14 C          -0.9457  -18.0591   20.2335 C.ar    1  UNL1        0.1480
     15 N           0.5236  -18.0087   20.5311 N.pl3   1  UNL1       -0.3413
     16 N          -1.4208  -18.1386   18.8130 N.ar    1  UNL1       -0.2078
     17 C          -2.8901  -18.1890   18.5153 C.ar    1  UNL1        0.2015
     18 N          -3.8843  -18.1598   19.6381 N.ar    1  UNL1       -0.2048
     19 C          -3.4091  -18.0803   21.0586 C.ar    1  UNL1        0.1690
     20 H           0.8355  -17.9565   21.4635 H       1  UNL1        0.1438
     21 H           1.1761  -18.0279   19.7942 H       1  UNL1        0.1438
     22 C          -9.1729  -19.6588   22.3610 C.3     1  UNL1        0.1050
     23 C         -10.4026  -19.6481   24.6496 C.3     1  UNL1        0.0900
     24 N         -10.4010  -19.3761   23.1745 N.3     1  UNL1       -0.2656
     25 C         -11.6276  -18.8212   22.5129 C.3     1  UNL1        0.0987
     26 C         -12.3328  -17.6399   23.1106 C.2     1  UNL1       -0.0120
     27 C         -12.3412  -16.3263   22.3864 C.2     1  UNL1       -0.0125
     28 C         -11.6445  -16.1940   21.0646 C.3     1  UNL1        0.0916
     29 N         -10.2871  -15.5598   20.9925 N.3     1  UNL1       -0.3175
     30 H         -10.3581  -14.5748   21.2474 H       1  UNL1        0.1192
     31 H          -9.9245  -15.6400   20.0425 H       1  UNL1        0.1192
@<TRIPOS>BOND
     1    23    24    1
     2    24    25    1
     3    25    26    1
     4    26    27    2
     5    27    28    1
     6    28    29    1
     7    24    22    1
     8     1    22    1
     9     1     2    1
    10     2     3    1
    11     3    10    1
    12    10    11   ar
    13    11    12   ar
    14    12    13   ar
    15    13    14   ar
    16    14    15    1
    17    14    16   ar
    18    16    17   ar
    19    17    18   ar
    20    18    19   ar
    21     3     4    1
    22     4     5    1
    23     4     6    1
    24     6     7    1
    25     6     1    1
    26    19    10   ar
    27    19    13   ar
    28    29    30    1
    29    29    31    1
    30    15    20    1
    31    15    21    1
    32     5     8    1
    33     7     9    1
@<TRIPOS>MOLECULE
*****
 31 33 0 0 0
SMALL
GASTEIGER

@<TRIPOS>ATOM
      1 C          -8.2068  -16.2936   24.4475 C.3     1  UNL1        0.1624
      2 O          -7.1886  -16.6807   23.4163 O.3     1  UNL1       -0.3320
      3 C          -5.8609  -16.1314   23.8469 C.3     1  UNL1        0.2371
      4 C          -6.0585  -15.4049   25.1441 C.3     1  UNL1        0.1895
      5 O          -4.9933  -14.7015   25.9319 O.3     1  UNL1       -0.3779
      6 C          -7.5084  -15.5050   25.5154 C.3     1  UNL1        0.1701
      7 O          -8.1476  -14.9195   26.7395 O.3     1  UNL1       -0.3794
      8 H          -5.3845  -14.3139   26.7304 H       1  UNL1        0.2106
      9 H          -9.0949  -15.1282   26.7409 H       1  UNL1        0.2105
     10 N          -4.5633  -16.2823   23.1096 N.ar    1  UNL1       -0.2694
     11 C          -3.6671  -15.1649   22.6645 C.ar    1  UNL1        0.1816
     12 N          -2.4841  -15.7691   21.9678 N.ar    1  UNL1       -0.2194
     13 C          -2.6491  -17.2599   21.9823 C.ar    1  UNL1        0.1481
     14 C          -1.7954  -18.3696   21.4442 C.ar    1  UNL1        0.1480
     15 N          -0.5103  -18.0524   20.7385 N.pl3   1  UNL1       -0.3413
     16 N          -2.2266  -19.7964   21.6117 N.ar    1  UNL1       -0.2078
     17 C          -3.5117  -20.1136   22.3174 C.ar    1  UNL1        0.2015
     18 N          -4.3655  -19.0039   22.8556 N.ar    1  UNL1       -0.2048
     19 C          -3.9342  -17.5771   22.6880 C.ar    1  UNL1        0.1690
     20 H          -0.2272  -17.1159   20.6285 H       1  UNL1        0.1438
     21 H           0.0501  -18.7807   20.3852 H       1  UNL1        0.1438
     22 C          -9.6672  -16.6351   24.4162 C.3     1  UNL1        0.1050
     23 C          -9.8866  -16.3954   21.8385 C.3     1  UNL1        0.0900
     24 N         -10.3160  -17.0366   23.1248 N.3     1  UNL1       -0.2656
     25 C         -11.3944  -18.0794   23.1196 C.3     1  UNL1        0.0987
     26 C         -12.8134  -17.6893   22.8295 C.2     1  UNL1       -0.0120
     27 C         -13.8888  -17.9681   23.8375 C.2     1  UNL1       -0.0125
     28 C         -13.5451  -18.6370   25.1353 C.3     1  UNL1        0.0916
     29 N         -14.5244  -18.6175   26.2714 N.3     1  UNL1       -0.3175
     30 H         -14.6451  -17.6594   26.5999 H       1  UNL1        0.1192
     31 H         -14.1722  -19.1965   27.0338 H       1  UNL1        0.1192
@<TRIPOS>BOND
     1    23    24    1
     2    24    25    1
     3    25    26    1
     4    26    27    2
     5    27    28    1
     6    28    29    1
     7    24    22    1
     8     1    22    1
     9     1     2    1
    10     2     3    1
    11     3    10    1
    12    10    11   ar
    13    11    12   ar
    14    12    13   ar
    15    13    14   ar
    16    14    15    1
    17    14    16   ar
    18    16    17   ar
    19    17    18   ar
    20    18    19   ar
    21     3     4    1
    22     4     5    1
    23     4     6    1
    24     6     7    1
    25     6     1    1
    26    19    10   ar
    27    19    13   ar
    28    29    30    1
    29    29    31    1
    30    15    20    1
    31    15    21    1
    32     5     8    1
    33     7     9    1
@<TRIPOS>MOLECULE
*****
 31 33 0 0 0
SMALL
GASTEIGER

@<TRIPOS>ATOM
      1 C          -5.7943  -19.1703   21.7893 C.3     1  UNL1        0.1624
      2 O          -6.8428  -19.2275   22.8604 O.3     1  UNL1       -0.3320
      3 C          -8.1847  -19.0968   22.2029 C.3     1  UNL1        0.2371
      4 C          -7.9654  -18.9588   20.7255 C.3     1  UNL1        0.1895
      5 O          -9.0357  -18.8028   19.6861 O.3     1  UNL1       -0.3779
      6 C          -6.4881  -19.0042   20.4697 C.3     1  UNL1        0.1701
      7 O          -5.8216  -18.9016   19.1300 O.3     1  UNL1       -0.3794
      8 H          -8.6271  -18.7343   18.8091 H       1  UNL1        0.2106
      9 H          -4.8598  -18.9592   19.2420 H       1  UNL1        0.2105
     10 N          -9.5126  -19.1030   22.9004 N.ar    1  UNL1       -0.2694
     11 C          -9.9471  -20.0710   23.9607 C.ar    1  UNL1        0.1816
     12 N         -11.3422  -19.7085   24.3757 N.ar    1  UNL1       -0.2194
     13 C         -11.7700  -18.5164   23.5719 C.ar    1  UNL1        0.1481
     14 C         -13.0430  -17.7234   23.5524 C.ar    1  UNL1        0.1480
     15 N         -14.1738  -18.0977   24.4642 N.pl3   1  UNL1       -0.3413
     16 N         -13.1853  -16.5562   22.6212 N.ar    1  UNL1       -0.2078
     17 C         -12.0545  -16.1819   21.7095 C.ar    1  UNL1        0.2015
     18 N         -10.7815  -16.9749   21.7289 N.ar    1  UNL1       -0.2048
     19 C         -10.6392  -18.1422   22.6601 C.ar    1  UNL1        0.1690
     20 H         -14.0804  -18.8638   25.0754 H       1  UNL1        0.1438
     21 H         -15.0093  -17.5772   24.4514 H       1  UNL1        0.1438
     22 C          -4.3120  -19.2629   22.0006 C.3     1  UNL1        0.1050
     23 C          -4.2168  -17.1524   23.5128 C.3     1  UNL1        0.0900
     24 N          -3.5565  -18.0852   22.5413 N.3     1  UNL1       -0.2656
     25 C          -2.1407  -17.8403   22.1103 C.3     1  UNL1        0.0987
     26 C          -1.4678  -18.7945   21.1687 C.2     1  UNL1       -0.0120
     27 C          -1.4442  -18.5045   19.6971 C.2     1  UNL1       -0.0125
     28 C          -2.0934  -17.2604   19.1673 C.3     1  UNL1        0.0916
     29 N          -3.5535  -17.2645   18.8237 N.3     1  UNL1       -0.3175
     30 H          -3.7154  -17.8907   18.0350 H       1  UNL1        0.1192
     31 H          -3.8466  -16.3201   18.5738 H       1  UNL1        0.1192
@<TRIPOS>BOND
     1    23    24    1
     2    24    25    1
     3    25    26    1
     4    26    27    2
     5    27    28    1
     6    28    29    1
     7    24    22    1
     8     1    22    1
     9     1     2    1
    10     2     3    1
    11     3    10    1
    12    10    11   ar
    13    11    12   ar
    14    12    13   ar
    15    13    14   ar
    16    14    15    1
    17    14    16   ar
    18    16    17   ar
    19    17    18   ar
    20    18    19   ar
    21     3     4    1
    22     4     5    1
    23     4     6    1
    24     6     7    1
    25     6     1    1
    26    19    10   ar
    27    19    13   ar
    28    29    30    1
    29    29    31    1
    30    15    20    1
    31    15    21    1
    32     5     8    1
    33     7     9    1
@<TRIPOS>MOLECULE
*****
 31 33 0 0 0
SMALL
GASTEIGER

@<TRIPOS>ATOM
      1 C          -4.4363  -18.6992   21.9889 C.3     1  UNL1        0.1624
      2 O          -5.8345  -18.1566   22.0133 O.3     1  UNL1       -0.3320
      3 C          -6.6919  -19.0465   21.1631 C.3     1  UNL1        0.2371
      4 C          -5.8236  -20.1390   20.6132 C.3     1  UNL1        0.1895
      5 O          -6.2709  -21.2509   19.7113 O.3     1  UNL1       -0.3779
      6 C          -4.4295  -19.9245   21.1236 C.3     1  UNL1        0.1701
      7 O          -3.2380  -20.7841   20.8216 O.3     1  UNL1       -0.3794
      8 H          -5.5149  -21.8215   19.5020 H       1  UNL1        0.2106
      9 H          -2.4584  -20.4268   21.2749 H       1  UNL1        0.2105
     10 N          -8.1599  -18.8740   20.9076 N.ar    1  UNL1       -0.2694
     11 C          -8.9255  -19.4395   19.7483 C.ar    1  UNL1        0.1816
     12 N         -10.3587  -19.0208   19.8908 N.ar    1  UNL1       -0.2194
     13 C         -10.4790  -18.1964   21.1383 C.ar    1  UNL1        0.1481
     14 C         -11.6503  -17.5167   21.7831 C.ar    1  UNL1        0.1480
     15 N         -13.0093  -17.6074   21.1547 N.pl3   1  UNL1       -0.3413
     16 N         -11.4627  -16.7463   23.0563 N.ar    1  UNL1       -0.2078
     17 C         -10.1037  -16.6556   23.6847 C.ar    1  UNL1        0.2015
     18 N          -8.9324  -17.3353   23.0399 N.ar    1  UNL1       -0.2048
     19 C          -9.1200  -18.1057   21.7667 C.ar    1  UNL1        0.1690
     20 H         -13.1325  -18.1131   20.3190 H       1  UNL1        0.1438
     21 H         -13.7782  -17.1613   21.5779 H       1  UNL1        0.1438
     22 C          -3.2525  -18.1185   22.7043 C.3     1  UNL1        0.1050
     23 C          -2.1194  -15.9526   21.8240 C.3     1  UNL1        0.0900
     24 N          -2.1598  -17.4486   21.9250 N.3     1  UNL1       -0.2656
     25 C          -1.1074  -18.2748   21.2468 C.3     1  UNL1        0.0987
     26 C          -0.3690  -17.7240   20.0629 C.2     1  UNL1       -0.0120
     27 C          -1.0334  -17.6803   18.7187 C.2     1  UNL1       -0.0125
     28 C          -2.4359  -18.1874   18.5584 C.3     1  UNL1        0.0916
     29 N          -3.5974  -17.2693   18.7992 N.3     1  UNL1       -0.3175
     30 H          -3.6231  -17.0045   19.7839 H       1  UNL1        0.1192
     31 H          -4.4647  -17.7463   18.5526 H       1  UNL1        0.1192
@<TRIPOS>BOND
     1    23    24    1
     2    24    25    1
     3    25    26    1
     4    26    27    2
     5    27    28    1
     6    28    29    1
     7    24    22    1
     8     1    22    1
     9     1     2    1
    10     2     3    1
    11     3    10    1
    12    10    11   ar
    13    11    12   ar
    14    12    13   ar
    15    13    14   ar
    16    14    15    1
    17    14    16   ar
    18    16    17   ar
    19    17    18   ar
    20    18    19   ar
    21     3     4    1
    22     4     5    1
    23     4     6    1
    24     6     7    1
    25     6     1    1
    26    19    10   ar
    27    19    13   ar
    28    29    30    1
    29    29    31    1
    30    15    20    1
    31    15    21    1
    32     5     8    1
    33     7     9    1
@<TRIPOS>MOLECULE
*****
 31 33 0 0 0
SMALL
GASTEIGER

@<TRIPOS>ATOM
      1 C          -5.4952  -19.2992   21.4616 C.3     1  UNL1        0.1624
      2 O          -6.4862  -19.4105   22.5820 O.3     1  UNL1       -0.3320
      3 C          -7.8598  -19.2372   22.0048 C.3     1  UNL1        0.2371
      4 C          -7.7177  -19.0187   20.5277 C.3     1  UNL1        0.1895
      5 O          -8.8400  -18.8003   19.5568 O.3     1  UNL1       -0.3779
      6 C          -6.2562  -19.0570   20.1918 C.3     1  UNL1        0.1701
      7 O          -5.6605  -18.8837   18.8263 O.3     1  UNL1       -0.3794
      8 H          -8.4776  -18.6853   18.6643 H       1  UNL1        0.2106
      9 H          -4.6947  -18.9520   18.8838 H       1  UNL1        0.2105
     10 N          -9.1491  -19.2755   22.7704 N.ar    1  UNL1       -0.2694
     11 C          -9.5108  -20.2640   23.8392 C.ar    1  UNL1        0.1816
     12 N         -10.8884  -19.9315   24.3309 N.ar    1  UNL1       -0.2194
     13 C         -11.3780  -18.7376   23.5662 C.ar    1  UNL1        0.1481
     14 C         -12.6638  -17.9673   23.6234 C.ar    1  UNL1        0.1480
     15 N         -13.7387  -18.3727   24.5878 N.pl3   1  UNL1       -0.3413
     16 N         -12.8747  -16.7915   22.7162 N.ar    1  UNL1       -0.2078
     17 C         -11.7997  -16.3861   21.7517 C.ar    1  UNL1        0.2015
     18 N         -10.5140  -17.1565   21.6945 N.ar    1  UNL1       -0.2048
     19 C         -10.3031  -18.3322   22.6017 C.ar    1  UNL1        0.1690
     20 H         -13.6003  -19.1444   25.1833 H       1  UNL1        0.1438
     21 H         -14.5826  -17.8671   24.6254 H       1  UNL1        0.1438
     22 C          -4.0046  -19.4105   21.5885 C.3     1  UNL1        0.1050
     23 C          -2.3687  -17.9163   20.2315 C.3     1  UNL1        0.0900
     24 N          -3.1493  -18.1826   21.4844 N.3     1  UNL1       -0.2656
     25 C          -3.0745  -17.2211   22.6334 C.3     1  UNL1        0.0987
     26 C          -3.8333  -17.5016   23.8966 C.2     1  UNL1       -0.0120
     27 C          -4.8111  -16.4934   24.4236 C.2     1  UNL1       -0.0125
     28 C          -5.0301  -15.2050   23.6874 C.3     1  UNL1        0.0916
     29 N          -6.4132  -14.8098   23.2624 N.3     1  UNL1       -0.3175
     30 H          -6.7543  -15.4672   22.5611 H       1  UNL1        0.1192
     31 H          -6.3916  -13.8703   22.8658 H       1  UNL1        0.1192
@<TRIPOS>BOND
     1    23    24    1
     2    24    25    1
     3    25    26    1
     4    26    27    2
     5    27    28    1
     6    28    29    1
     7    24    22    1
     8     1    22    1
     9     1     2    1
    10     2     3    1
    11     3    10    1
    12    10    11   ar
    13    11    12   ar
    14    12    13   ar
    15    13    14   ar
    16    14    15    1
    17    14    16   ar
    18    16    17   ar
    19    17    18   ar
    20    18    19   ar
    21     3     4    1
    22     4     5    1
    23     4     6    1
    24     6     7    1
    25     6     1    1
    26    19    10   ar
    27    19    13   ar
    28    29    30    1
    29    29    31    1
    30    15    20    1
    31    15    21    1
    32     5     8    1
    33     7     9    1
