@<TRIPOS>MOLECULE
*****
 33 36 0 0 0
SMALL
GASTEIGER

@<TRIPOS>ATOM
      1 C          -9.3954  -18.1387   20.6673 C.ar    1  UNL1        0.1399
      2 C         -10.2859  -18.6729   19.5848 C.ar    1  UNL1        0.0554
      3 C          -9.8430  -19.8443   18.7593 C.ar    1  UNL1        0.1047
      4 N          -8.5096  -20.4816   19.0163 N.ar    1  UNL1       -0.2119
      5 C          -7.6192  -19.9475   20.0987 C.ar    1  UNL1        0.2218
      6 N          -8.0621  -18.7760   20.9243 N.ar    1  UNL1       -0.1983
      7 N          -9.8383  -16.9672   21.4928 N.pl3   1  UNL1       -0.2705
      8 C         -11.0359  -16.1660   21.0760 C.3     1  UNL1        0.1187
      9 C          -6.8269  -15.3839   27.7423 C.3     1  UNL1        0.0540
     10 C          -6.5877  -15.4203   26.2620 C.ar    1  UNL1        0.0804
     11 N          -5.3197  -15.0269   25.5639 N.ar    1  UNL1       -0.1736
     12 N          -5.5228  -15.2200   24.0903 N.ar    1  UNL1       -0.2491
     13 C          -4.5101  -14.9481   23.0176 C.3     1  UNL1        0.1537
     14 C          -6.9163  -15.7328   23.8777 C.ar    1  UNL1        0.0803
     15 C          -7.6709  -16.1030   22.6353 C.ar    1  UNL1        0.0336
     16 C          -9.0836  -16.5970   22.7352 C.ar    1  UNL1        0.0542
     17 C          -9.7418  -16.7208   24.0774 C.ar    1  UNL1        0.0150
     18 C          -8.9872  -16.3506   25.3197 C.ar    1  UNL1        0.0040
     19 C          -7.5744  -15.8566   25.2199 C.ar    1  UNL1        0.0326
     20 N          -6.2858  -20.5848   20.3557 N.pl3   1  UNL1       -0.2825
     21 H          -6.1630  -21.5491   20.2000 H       1  UNL1        0.1551
     22 C          -5.1397  -19.7529   20.8498 C.ar    1  UNL1        0.0518
     23 C          -5.0893  -19.3231   22.2860 C.ar    1  UNL1        0.0148
     24 C          -3.9431  -18.4911   22.7801 C.ar    1  UNL1        0.0026
     25 C          -2.8473  -18.0889   21.8380 C.ar    1  UNL1        0.0200
     26 C          -2.8978  -18.5188   20.4018 C.ar    1  UNL1        0.1229
     27 C          -4.0439  -19.3507   19.9077 C.ar    1  UNL1        0.0346
     28 S          -1.8020  -18.1166   19.4597 S.O2    1  UNL1        0.0572
     29 N          -0.7062  -17.7144   18.5176 N.3     1  UNL1       -0.2035
     30 O          -0.8232  -18.9344   20.2491 O.2     1  UNL1       -0.1532
     31 O          -2.7808  -17.2989   18.6702 O.2     1  UNL1       -0.1532
     32 H           0.1697  -18.1476   18.8101 H       1  UNL1        0.1442
     33 H          -0.6039  -16.6996   18.5283 H       1  UNL1        0.1442
@<TRIPOS>BOND
     1     9    10    1
     2    10    11   ar
     3    11    12   ar
     4    12    13    1
     5    12    14   ar
     6    14    15   ar
     7    15    16   ar
     8    16     7    1
     9     7     8    1
    10     7     1    1
    11     1     2   ar
    12     2     3   ar
    13     3     4   ar
    14     4     5   ar
    15     5    20    1
    16    20    22    1
    17    22    23   ar
    18    23    24   ar
    19    24    25   ar
    20    25    26   ar
    21    26    28    1
    22    28    29    1
    23    28    30    2
    24    28    31    2
    25    26    27   ar
    26     5     6   ar
    27    16    17   ar
    28    17    18   ar
    29    18    19   ar
    30    19    10   ar
    31    19    14   ar
    32     6     1   ar
    33    27    22   ar
    34    20    21    1
    35    29    32    1
    36    29    33    1
@<TRIPOS>MOLECULE
*****
 33 36 0 0 0
SMALL
GASTEIGER

@<TRIPOS>ATOM
      1 C          -4.8313  -19.6610   21.1899 C.ar    1  UNL1        0.1399
      2 C          -3.5269  -19.7839   20.4595 C.ar    1  UNL1        0.0554
      3 C          -2.3432  -18.9731   20.8968 C.ar    1  UNL1        0.1047
      4 N          -2.4638  -18.0394   22.0646 N.ar    1  UNL1       -0.2119
      5 C          -3.7681  -17.9165   22.7950 C.ar    1  UNL1        0.2218
      6 N          -4.9519  -18.7274   22.3577 N.ar    1  UNL1       -0.1983
      7 N          -6.0151  -20.4718   20.7525 N.pl3   1  UNL1       -0.2705
      8 C          -5.8095  -21.7975   20.0814 C.3     1  UNL1        0.1187
      9 C         -12.6164  -17.8523   21.1916 C.3     1  UNL1        0.0540
     10 C         -11.5233  -18.5088   21.9816 C.ar    1  UNL1        0.0804
     11 N         -11.5785  -18.8621   23.4384 N.ar    1  UNL1       -0.1736
     12 N         -10.2724  -19.4989   23.8106 N.ar    1  UNL1       -0.2491
     13 C          -9.8950  -20.0064   25.1708 C.3     1  UNL1        0.1537
     14 C          -9.4100  -19.5392   22.5840 C.ar    1  UNL1        0.0803
     15 C          -8.0207  -20.0541   22.3503 C.ar    1  UNL1        0.0336
     16 C          -7.4045  -19.9570   20.9862 C.ar    1  UNL1        0.0542
     17 C          -8.1776  -19.3450   19.8558 C.ar    1  UNL1        0.0150
     18 C          -9.5669  -18.8302   20.0895 C.ar    1  UNL1        0.0040
     19 C         -10.1831  -18.9273   21.4536 C.ar    1  UNL1        0.0326
     20 N          -3.8887  -16.9829   23.9628 N.pl3   1  UNL1       -0.2825
     21 H          -3.0968  -16.7721   24.5084 H       1  UNL1        0.1551
     22 C          -5.2159  -16.3703   24.2993 C.ar    1  UNL1        0.0518
     23 C          -5.4738  -15.8530   25.6835 C.ar    1  UNL1        0.0148
     24 C          -6.8010  -15.2404   26.0201 C.ar    1  UNL1        0.0026
     25 C          -7.8703  -15.1452   24.9725 C.ar    1  UNL1        0.0200
     26 C          -7.6124  -15.6625   23.5883 C.ar    1  UNL1        0.1229
     27 C          -6.2853  -16.2751   23.2518 C.ar    1  UNL1        0.0346
     28 S          -8.6818  -15.5673   22.5407 S.O2    1  UNL1        0.0572
     29 N          -9.7511  -15.4720   21.4931 N.3     1  UNL1       -0.2035
     30 O          -7.6689  -15.0707   21.5520 O.2     1  UNL1       -0.1532
     31 O          -9.6946  -16.0638   23.5294 O.2     1  UNL1       -0.1532
     32 H          -9.3442  -15.1321   20.6218 H       1  UNL1        0.1442
     33 H         -10.4759  -14.8255   21.8049 H       1  UNL1        0.1442
@<TRIPOS>BOND
     1     9    10    1
     2    10    11   ar
     3    11    12   ar
     4    12    13    1
     5    12    14   ar
     6    14    15   ar
     7    15    16   ar
     8    16     7    1
     9     7     8    1
    10     7     1    1
    11     1     2   ar
    12     2     3   ar
    13     3     4   ar
    14     4     5   ar
    15     5    20    1
    16    20    22    1
    17    22    23   ar
    18    23    24   ar
    19    24    25   ar
    20    25    26   ar
    21    26    28    1
    22    28    29    1
    23    28    30    2
    24    28    31    2
    25    26    27   ar
    26     5     6   ar
    27    16    17   ar
    28    17    18   ar
    29    18    19   ar
    30    19    10   ar
    31    19    14   ar
    32     6     1   ar
    33    27    22   ar
    34    20    21    1
    35    29    32    1
    36    29    33    1
@<TRIPOS>MOLECULE
*****
 33 36 0 0 0
SMALL
GASTEIGER

@<TRIPOS>ATOM
      1 C          -4.8792  -19.6554   21.1824 C.ar    1  UNL1        0.1399
      2 C          -3.5578  -20.0906   20.6216 C.ar    1  UNL1        0.0554
      3 C          -2.3083  -19.3414   20.9784 C.ar    1  UNL1        0.1047
      4 N          -2.3800  -18.1570   21.8959 N.ar    1  UNL1       -0.2119
      5 C          -3.7014  -17.7217   22.4568 C.ar    1  UNL1        0.2218
      6 N          -4.9510  -18.4709   22.1000 N.ar    1  UNL1       -0.1983
      7 N          -6.1288  -20.4045   20.8257 N.pl3   1  UNL1       -0.2705
      8 C          -6.0753  -21.5171   19.8210 C.3     1  UNL1        0.1187
      9 C         -12.0609  -18.9625   24.4812 C.3     1  UNL1        0.0540
     10 C         -11.4121  -18.8360   23.1347 C.ar    1  UNL1        0.0804
     11 N         -12.0233  -18.2088   21.9169 N.ar    1  UNL1       -0.1736
     12 N         -11.0270  -18.2997   20.7992 N.ar    1  UNL1       -0.2491
     13 C         -11.2232  -17.7957   19.4001 C.3     1  UNL1        0.1537
     14 C          -9.8002  -18.9831   21.3262 C.ar    1  UNL1        0.0803
     15 C          -8.4971  -19.3464   20.6782 C.ar    1  UNL1        0.0336
     16 C          -7.4320  -20.0412   21.4737 C.ar    1  UNL1        0.0542
     17 C          -7.6700  -20.3727   22.9171 C.ar    1  UNL1        0.0150
     18 C          -8.9731  -20.0094   23.5651 C.ar    1  UNL1        0.0040
     19 C         -10.0382  -19.3146   22.7696 C.ar    1  UNL1        0.0326
     20 N          -3.7732  -16.5373   23.3743 N.pl3   1  UNL1       -0.2825
     21 H          -2.9648  -16.0054   23.5557 H       1  UNL1        0.1551
     22 C          -5.0765  -16.1632   24.0155 C.ar    1  UNL1        0.0518
     23 C          -5.1236  -15.8228   25.4756 C.ar    1  UNL1        0.0148
     24 C          -6.4271  -15.4487   26.1169 C.ar    1  UNL1        0.0026
     25 C          -7.6834  -15.4149   25.2980 C.ar    1  UNL1        0.0200
     26 C          -7.6362  -15.7553   23.8378 C.ar    1  UNL1        0.1229
     27 C          -6.3328  -16.1294   23.1966 C.ar    1  UNL1        0.0346
     28 S          -8.8925  -15.7216   23.0189 S.O2    1  UNL1        0.0572
     29 N         -10.1488  -15.6879   22.2000 N.3     1  UNL1       -0.2035
     30 O          -9.7067  -15.9446   24.2588 O.2     1  UNL1       -0.1532
     31 O          -8.0783  -15.4986   21.7790 O.2     1  UNL1       -0.1532
     32 H         -10.9556  -15.8232   22.8094 H       1  UNL1        0.1442
     33 H         -10.1205  -16.4321   21.5031 H       1  UNL1        0.1442
@<TRIPOS>BOND
     1     9    10    1
     2    10    11   ar
     3    11    12   ar
     4    12    13    1
     5    12    14   ar
     6    14    15   ar
     7    15    16   ar
     8    16     7    1
     9     7     8    1
    10     7     1    1
    11     1     2   ar
    12     2     3   ar
    13     3     4   ar
    14     4     5   ar
    15     5    20    1
    16    20    22    1
    17    22    23   ar
    18    23    24   ar
    19    24    25   ar
    20    25    26   ar
    21    26    28    1
    22    28    29    1
    23    28    30    2
    24    28    31    2
    25    26    27   ar
    26     5     6   ar
    27    16    17   ar
    28    17    18   ar
    29    18    19   ar
    30    19    10   ar
    31    19    14   ar
    32     6     1   ar
    33    27    22   ar
    34    20    21    1
    35    29    32    1
    36    29    33    1
@<TRIPOS>MOLECULE
*****
 33 36 0 0 0
SMALL
GASTEIGER

@<TRIPOS>ATOM
      1 C          -9.6724  -17.8940   20.9318 C.ar    1  UNL1        0.1399
      2 C         -10.6890  -18.3332   19.9200 C.ar    1  UNL1        0.0554
      3 C         -10.3733  -19.4580   18.9791 C.ar    1  UNL1        0.1047
      4 N          -9.0411  -20.1436   19.0501 N.ar    1  UNL1       -0.2119
      5 C          -8.0245  -19.7045   20.0618 C.ar    1  UNL1        0.2218
      6 N          -8.3401  -18.5796   21.0027 N.ar    1  UNL1       -0.1983
      7 N          -9.9880  -16.7692   21.8726 N.pl3   1  UNL1       -0.2705
      8 C         -11.3174  -16.0786   21.7967 C.3     1  UNL1        0.1187
      9 C          -4.8176  -14.4392   26.1702 C.3     1  UNL1        0.0540
     10 C          -6.1284  -15.1679   26.1439 C.ar    1  UNL1        0.0804
     11 N          -6.8509  -15.7260   27.3340 N.ar    1  UNL1       -0.1736
     12 N          -8.1159  -16.3695   26.8485 N.ar    1  UNL1       -0.2491
     13 C          -9.1416  -17.0534   27.7031 C.3     1  UNL1        0.1537
     14 C          -8.1751  -16.2091   25.3582 C.ar    1  UNL1        0.0803
     15 C          -9.1889  -16.6434   24.3415 C.ar    1  UNL1        0.0336
     16 C          -8.9743  -16.3350   22.8894 C.ar    1  UNL1        0.0542
     17 C          -7.7459  -15.5923   22.4539 C.ar    1  UNL1        0.0150
     18 C          -6.7322  -15.1581   23.4706 C.ar    1  UNL1        0.0040
     19 C          -6.9468  -15.4665   24.9228 C.ar    1  UNL1        0.0326
     20 N          -6.6923  -20.3901   20.1327 N.pl3   1  UNL1       -0.2825
     21 H          -6.5941  -21.3108   19.7982 H       1  UNL1        0.1551
     22 C          -5.5096  -19.6729   20.7133 C.ar    1  UNL1        0.0518
     23 C          -5.4550  -19.3854   22.1844 C.ar    1  UNL1        0.0148
     24 C          -4.2723  -18.6682   22.7650 C.ar    1  UNL1        0.0026
     25 C          -3.1444  -18.2386   21.8744 C.ar    1  UNL1        0.0200
     26 C          -3.1991  -18.5262   20.4032 C.ar    1  UNL1        0.1229
     27 C          -4.3817  -19.2433   19.8226 C.ar    1  UNL1        0.0346
     28 S          -2.0712  -18.0965   19.5126 S.O2    1  UNL1        0.0572
     29 N          -0.9432  -17.6669   18.6220 N.3     1  UNL1       -0.2035
     30 O          -3.0157  -17.2285   18.7351 O.2     1  UNL1       -0.1532
     31 O          -1.1267  -18.9645   20.2900 O.2     1  UNL1       -0.1532
     32 H          -1.2931  -17.0130   17.9216 H       1  UNL1        0.1442
     33 H          -0.5473  -18.4837   18.1567 H       1  UNL1        0.1442
@<TRIPOS>BOND
     1     9    10    1
     2    10    11   ar
     3    11    12   ar
     4    12    13    1
     5    12    14   ar
     6    14    15   ar
     7    15    16   ar
     8    16     7    1
     9     7     8    1
    10     7     1    1
    11     1     2   ar
    12     2     3   ar
    13     3     4   ar
    14     4     5   ar
    15     5    20    1
    16    20    22    1
    17    22    23   ar
    18    23    24   ar
    19    24    25   ar
    20    25    26   ar
    21    26    28    1
    22    28    29    1
    23    28    30    2
    24    28    31    2
    25    26    27   ar
    26     5     6   ar
    27    16    17   ar
    28    17    18   ar
    29    18    19   ar
    30    19    10   ar
    31    19    14   ar
    32     6     1   ar
    33    27    22   ar
    34    20    21    1
    35    29    32    1
    36    29    33    1
@<TRIPOS>MOLECULE
*****
 33 36 0 0 0
SMALL
GASTEIGER

@<TRIPOS>ATOM
      1 C          -8.1910  -16.2991   23.7693 C.ar    1  UNL1        0.1399
      2 C          -8.2990  -16.0369   25.2423 C.ar    1  UNL1        0.0554
      3 C          -7.0813  -15.6445   26.0254 C.ar    1  UNL1        0.1047
      4 N          -5.7557  -15.5144   25.3357 N.ar    1  UNL1       -0.2119
      5 C          -5.6477  -15.7766   23.8627 C.ar    1  UNL1        0.2218
      6 N          -6.8654  -16.1690   23.0795 N.ar    1  UNL1       -0.1983
      7 N          -9.4087  -16.6914   22.9861 N.pl3   1  UNL1       -0.2705
      8 C         -10.7488  -16.1235   23.3487 C.3     1  UNL1        0.1187
      9 C          -9.4469  -21.0198   17.3385 C.3     1  UNL1        0.0540
     10 C          -8.6439  -20.6043   18.5353 C.ar    1  UNL1        0.0804
     11 N          -7.3024  -21.1478   18.9289 N.ar    1  UNL1       -0.1736
     12 N          -6.8708  -20.4517   20.1855 N.ar    1  UNL1       -0.2491
     13 C          -5.5894  -20.6879   20.9287 C.3     1  UNL1        0.1537
     14 C          -7.9456  -19.4780   20.5687 C.ar    1  UNL1        0.0803
     15 C          -8.0680  -18.5178   21.7144 C.ar    1  UNL1        0.0336
     16 C          -9.2862  -17.6518   21.8403 C.ar    1  UNL1        0.0542
     17 C         -10.3821  -17.7461   20.8204 C.ar    1  UNL1        0.0150
     18 C         -10.2597  -18.7064   19.6746 C.ar    1  UNL1        0.0040
     19 C          -9.0414  -19.5723   19.5488 C.ar    1  UNL1        0.0326
     20 N          -4.3221  -15.6465   23.1730 N.pl3   1  UNL1       -0.2825
     21 H          -3.8884  -14.7655   23.1023 H       1  UNL1        0.1551
     22 C          -3.6574  -16.8586   22.5909 C.ar    1  UNL1        0.0518
     23 C          -3.6706  -18.1556   23.3441 C.ar    1  UNL1        0.0148
     24 C          -3.0058  -19.3678   22.7620 C.ar    1  UNL1        0.0026
     25 C          -2.3278  -19.2828   21.4267 C.ar    1  UNL1        0.0200
     26 C          -2.3146  -17.9857   20.6734 C.ar    1  UNL1        0.1229
     27 C          -2.9794  -16.7736   21.2555 C.ar    1  UNL1        0.0346
     28 S          -1.6367  -17.9007   19.3381 S.O2    1  UNL1        0.0572
     29 N          -0.9587  -17.8157   18.0027 N.3     1  UNL1       -0.2035
     30 O          -2.7836  -17.0929   18.8071 O.2     1  UNL1       -0.1532
     31 O          -0.4897  -18.7085   19.8690 O.2     1  UNL1       -0.1532
     32 H          -1.5404  -17.2786   17.3597 H       1  UNL1        0.1442
     33 H          -0.8199  -18.7556   17.6315 H       1  UNL1        0.1442
@<TRIPOS>BOND
     1     9    10    1
     2    10    11   ar
     3    11    12   ar
     4    12    13    1
     5    12    14   ar
     6    14    15   ar
     7    15    16   ar
     8    16     7    1
     9     7     8    1
    10     7     1    1
    11     1     2   ar
    12     2     3   ar
    13     3     4   ar
    14     4     5   ar
    15     5    20    1
    16    20    22    1
    17    22    23   ar
    18    23    24   ar
    19    24    25   ar
    20    25    26   ar
    21    26    28    1
    22    28    29    1
    23    28    30    2
    24    28    31    2
    25    26    27   ar
    26     5     6   ar
    27    16    17   ar
    28    17    18   ar
    29    18    19   ar
    30    19    10   ar
    31    19    14   ar
    32     6     1   ar
    33    27    22   ar
    34    20    21    1
    35    29    32    1
    36    29    33    1
@<TRIPOS>MOLECULE
*****
 33 36 0 0 0
SMALL
GASTEIGER

@<TRIPOS>ATOM
      1 C          -7.5166  -16.4414   25.2203 C.ar    1  UNL1        0.1399
      2 C          -7.3538  -15.6542   26.4867 C.ar    1  UNL1        0.0554
      3 C          -6.1327  -14.8077   26.6919 C.ar    1  UNL1        0.1047
      4 N          -5.0743  -14.7482   25.6306 N.ar    1  UNL1       -0.2119
      5 C          -5.2371  -15.5354   24.3641 C.ar    1  UNL1        0.2218
      6 N          -6.4583  -16.3820   24.1590 N.ar    1  UNL1       -0.1983
      7 N          -8.7378  -17.2880   25.0152 N.pl3   1  UNL1       -0.2705
      8 C          -9.6280  -17.6144   26.1775 C.3     1  UNL1        0.1187
      9 C          -9.8018  -20.2202   18.6197 C.3     1  UNL1        0.0540
     10 C         -10.2789  -19.1429   19.5481 C.ar    1  UNL1        0.0804
     11 N         -11.3880  -18.1708   19.2746 N.ar    1  UNL1       -0.1736
     12 N         -11.5251  -17.2757   20.4704 N.ar    1  UNL1       -0.2491
     13 C         -12.5131  -16.1578   20.6264 C.3     1  UNL1        0.1537
     14 C         -10.5007  -17.6946   21.4830 C.ar    1  UNL1        0.0803
     15 C         -10.1698  -17.1744   22.8503 C.ar    1  UNL1        0.0336
     16 C          -9.0687  -17.8082   23.6477 C.ar    1  UNL1        0.0542
     17 C          -8.2985  -18.9622   23.0776 C.ar    1  UNL1        0.0150
     18 C          -8.6294  -19.4825   21.7102 C.ar    1  UNL1        0.0040
     19 C          -9.7305  -18.8487   20.9129 C.ar    1  UNL1        0.0326
     20 N          -4.1788  -15.4759   23.3028 N.pl3   1  UNL1       -0.2825
     21 H          -3.8249  -14.6056   23.0087 H       1  UNL1        0.1551
     22 C          -3.6596  -16.7425   22.6896 C.ar    1  UNL1        0.0518
     23 C          -4.0397  -18.0701   23.2754 C.ar    1  UNL1        0.0148
     24 C          -3.5206  -19.3368   22.6621 C.ar    1  UNL1        0.0026
     25 C          -2.6213  -19.2759   21.4631 C.ar    1  UNL1        0.0200
     26 C          -2.2412  -17.9483   20.8773 C.ar    1  UNL1        0.1229
     27 C          -2.7604  -16.6817   21.4906 C.ar    1  UNL1        0.0346
     28 S          -1.3419  -17.8874   19.6783 S.O2    1  UNL1        0.0572
     29 N          -0.4427  -17.8265   18.4793 N.3     1  UNL1       -0.2035
     30 O          -2.4613  -17.3032   18.8685 O.2     1  UNL1       -0.1532
     31 O          -0.2226  -18.4715   20.4882 O.2     1  UNL1       -0.1532
     32 H          -0.9565  -17.4382   17.6884 H       1  UNL1        0.1442
     33 H          -0.1210  -18.7663   18.2475 H       1  UNL1        0.1442
@<TRIPOS>BOND
     1     9    10    1
     2    10    11   ar
     3    11    12   ar
     4    12    13    1
     5    12    14   ar
     6    14    15   ar
     7    15    16   ar
     8    16     7    1
     9     7     8    1
    10     7     1    1
    11     1     2   ar
    12     2     3   ar
    13     3     4   ar
    14     4     5   ar
    15     5    20    1
    16    20    22    1
    17    22    23   ar
    18    23    24   ar
    19    24    25   ar
    20    25    26   ar
    21    26    28    1
    22    28    29    1
    23    28    30    2
    24    28    31    2
    25    26    27   ar
    26     5     6   ar
    27    16    17   ar
    28    17    18   ar
    29    18    19   ar
    30    19    10   ar
    31    19    14   ar
    32     6     1   ar
    33    27    22   ar
    34    20    21    1
    35    29    32    1
    36    29    33    1
@<TRIPOS>MOLECULE
*****
 33 36 0 0 0
SMALL
GASTEIGER

@<TRIPOS>ATOM
      1 C          -5.7710  -16.3378   24.5979 C.ar    1  UNL1        0.1399
      2 C          -6.2891  -15.8403   25.9148 C.ar    1  UNL1        0.0554
      3 C          -7.6221  -15.1561   25.9862 C.ar    1  UNL1        0.1047
      4 N          -8.4369  -14.9693   24.7408 N.ar    1  UNL1       -0.2119
      5 C          -7.9189  -15.4667   23.4239 C.ar    1  UNL1        0.2218
      6 N          -6.5859  -16.1510   23.3525 N.ar    1  UNL1       -0.1983
      7 N          -4.4381  -17.0220   24.5265 N.pl3   1  UNL1       -0.2705
      8 C          -3.7185  -17.3960   25.7884 C.3     1  UNL1        0.1187
      9 C          -1.1138  -17.9480   18.3037 C.3     1  UNL1        0.0540
     10 C          -2.1912  -18.4987   19.1902 C.ar    1  UNL1        0.0804
     11 N          -3.0510  -19.6921   18.8959 N.ar    1  UNL1       -0.1736
     12 N          -3.9891  -19.8835   20.0506 N.ar    1  UNL1       -0.2491
     13 C          -5.0253  -20.9609   20.1754 C.3     1  UNL1        0.1537
     14 C          -3.7092  -18.8084   21.0585 C.ar    1  UNL1        0.0803
     15 C          -4.3226  -18.4983   22.3917 C.ar    1  UNL1        0.0336
     16 C          -3.8248  -17.3322   23.1932 C.ar    1  UNL1        0.0542
     17 C          -2.7136  -16.4763   22.6615 C.ar    1  UNL1        0.0150
     18 C          -2.1002  -16.7865   21.3283 C.ar    1  UNL1        0.0040
     19 C          -2.5980  -17.9525   20.5268 C.ar    1  UNL1        0.0326
     20 N          -8.7337  -15.2799   22.1785 N.pl3   1  UNL1       -0.2825
     21 H          -8.4295  -14.6562   21.4802 H       1  UNL1        0.1551
     22 C         -10.0120  -16.0434   21.9971 C.ar    1  UNL1        0.0518
     23 C         -10.6634  -16.1054   20.6473 C.ar    1  UNL1        0.0148
     24 C         -11.9418  -16.8689   20.4658 C.ar    1  UNL1        0.0026
     25 C         -12.5687  -17.5705   21.6341 C.ar    1  UNL1        0.0200
     26 C         -11.9172  -17.5085   22.9839 C.ar    1  UNL1        0.1229
     27 C         -10.6389  -16.7450   23.1653 C.ar    1  UNL1        0.0346
     28 S         -12.5441  -18.2100   24.1522 S.O2    1  UNL1        0.0572
     29 N         -13.1710  -18.9115   25.3204 N.3     1  UNL1       -0.2035
     30 O         -11.1814  -18.5218   24.6961 O.2     1  UNL1       -0.1532
     31 O         -13.9068  -17.8982   23.6082 O.2     1  UNL1       -0.1532
     32 H         -12.4395  -19.2704   25.9340 H       1  UNL1        0.1442
     33 H         -13.7435  -19.6861   24.9847 H       1  UNL1        0.1442
@<TRIPOS>BOND
     1     9    10    1
     2    10    11   ar
     3    11    12   ar
     4    12    13    1
     5    12    14   ar
     6    14    15   ar
     7    15    16   ar
     8    16     7    1
     9     7     8    1
    10     7     1    1
    11     1     2   ar
    12     2     3   ar
    13     3     4   ar
    14     4     5   ar
    15     5    20    1
    16    20    22    1
    17    22    23   ar
    18    23    24   ar
    19    24    25   ar
    20    25    26   ar
    21    26    28    1
    22    28    29    1
    23    28    30    2
    24    28    31    2
    25    26    27   ar
    26     5     6   ar
    27    16    17   ar
    28    17    18   ar
    29    18    19   ar
    30    19    10   ar
    31    19    14   ar
    32     6     1   ar
    33    27    22   ar
    34    20    21    1
    35    29    32    1
    36    29    33    1
@<TRIPOS>MOLECULE
*****
 33 36 0 0 0
SMALL
GASTEIGER

@<TRIPOS>ATOM
      1 C          -5.6024  -16.4938   25.1403 C.ar    1  UNL1        0.1399
      2 C          -5.8722  -15.8868   26.4852 C.ar    1  UNL1        0.0554
      3 C          -7.1622  -15.1639   26.7367 C.ar    1  UNL1        0.1047
      4 N          -8.1825  -15.0480   25.6433 N.ar    1  UNL1       -0.2119
      5 C          -7.9128  -15.6550   24.2984 C.ar    1  UNL1        0.2218
      6 N          -6.6228  -16.3779   24.0469 N.ar    1  UNL1       -0.1983
      7 N          -4.3124  -17.2166   24.8888 N.pl3   1  UNL1       -0.2705
      8 C          -3.4840  -17.6964   26.0436 C.3     1  UNL1        0.1187
      9 C          -1.7125  -17.8166   18.2924 C.3     1  UNL1        0.0540
     10 C          -2.6652  -18.4308   19.2747 C.ar    1  UNL1        0.0804
     11 N          -3.5231  -19.6376   19.0345 N.ar    1  UNL1       -0.1736
     12 N          -4.3154  -19.8987   20.2811 N.ar    1  UNL1       -0.2491
     13 C          -5.3026  -21.0101   20.4819 C.3     1  UNL1        0.1537
     14 C          -3.9473  -18.8532   21.2918 C.ar    1  UNL1        0.0803
     15 C          -4.4089  -18.6101   22.6981 C.ar    1  UNL1        0.0336
     16 C          -3.8508  -17.4598   23.4824 C.ar    1  UNL1        0.0542
     17 C          -2.8309  -16.5526   22.8604 C.ar    1  UNL1        0.0150
     18 C          -2.3692  -16.7957   21.4541 C.ar    1  UNL1        0.0040
     19 C          -2.9274  -17.9460   20.6698 C.ar    1  UNL1        0.0326
     20 N          -8.9331  -15.5391   23.2050 N.pl3   1  UNL1       -0.2825
     21 H          -9.1334  -14.6599   22.8098 H       1  UNL1        0.1551
     22 C          -9.6483  -16.7627   22.7138 C.ar    1  UNL1        0.0518
     23 C         -10.8731  -17.2528   23.4277 C.ar    1  UNL1        0.0148
     24 C         -11.5883  -18.4764   22.9364 C.ar    1  UNL1        0.0026
     25 C         -11.0787  -19.2099   21.7314 C.ar    1  UNL1        0.0200
     26 C          -9.8538  -18.7198   21.0175 C.ar    1  UNL1        0.1229
     27 C          -9.1387  -17.4962   21.5087 C.ar    1  UNL1        0.0346
     28 S          -9.3442  -19.4533   19.8124 S.O2    1  UNL1        0.0572
     29 N          -8.8345  -20.1868   18.6073 N.3     1  UNL1       -0.2035
     30 O         -10.7150  -20.0134   19.5736 O.2     1  UNL1       -0.1532
     31 O          -7.9733  -18.8931   20.0512 O.2     1  UNL1       -0.1532
     32 H          -9.5979  -20.7122   18.1811 H       1  UNL1        0.1442
     33 H          -8.0945  -20.8300   18.8886 H       1  UNL1        0.1442
@<TRIPOS>BOND
     1     9    10    1
     2    10    11   ar
     3    11    12   ar
     4    12    13    1
     5    12    14   ar
     6    14    15   ar
     7    15    16   ar
     8    16     7    1
     9     7     8    1
    10     7     1    1
    11     1     2   ar
    12     2     3   ar
    13     3     4   ar
    14     4     5   ar
    15     5    20    1
    16    20    22    1
    17    22    23   ar
    18    23    24   ar
    19    24    25   ar
    20    25    26   ar
    21    26    28    1
    22    28    29    1
    23    28    30    2
    24    28    31    2
    25    26    27   ar
    26     5     6   ar
    27    16    17   ar
    28    17    18   ar
    29    18    19   ar
    30    19    10   ar
    31    19    14   ar
    32     6     1   ar
    33    27    22   ar
    34    20    21    1
    35    29    32    1
    36    29    33    1
@<TRIPOS>MOLECULE
*****
 33 36 0 0 0
SMALL
GASTEIGER

@<TRIPOS>ATOM
      1 C           6.2612   -3.5662   20.0636 C.ar    1  UNL1        0.1399
      2 C           7.0443   -2.4273   19.4807 C.ar    1  UNL1        0.0554
      3 C           8.5394   -2.4064   19.6000 C.ar    1  UNL1        0.1047
      4 N           9.2515   -3.5243   20.3023 N.ar    1  UNL1       -0.2119
      5 C           8.4684   -4.6631   20.8852 C.ar    1  UNL1        0.2218
      6 N           6.9733   -4.6841   20.7659 N.ar    1  UNL1       -0.1983
      7 N           4.7662   -3.5871   19.9443 N.pl3   1  UNL1       -0.2705
      8 C           4.0898   -4.6896   19.1848 C.3     1  UNL1        0.1187
      9 C           0.6147    1.6657   22.3538 C.3     1  UNL1        0.0540
     10 C           1.6382    0.6500   22.7670 C.ar    1  UNL1        0.0804
     11 N           2.1696    0.4481   24.1552 N.ar    1  UNL1       -0.1736
     12 N           3.1698   -0.6688   24.1107 N.ar    1  UNL1       -0.2491
     13 C           3.9468   -1.2034   25.2770 C.3     1  UNL1        0.1537
     14 C           3.2566   -1.1572   22.6951 C.ar    1  UNL1        0.0803
     15 C           4.0753   -2.2388   22.0550 C.ar    1  UNL1        0.0336
     16 C           3.9474   -2.5054   20.5845 C.ar    1  UNL1        0.0542
     17 C           3.0008   -1.6904   19.7540 C.ar    1  UNL1        0.0150
     18 C           2.1821   -0.6087   20.3941 C.ar    1  UNL1        0.0040
     19 C           2.3100   -0.3422   21.8647 C.ar    1  UNL1        0.0326
     20 N           9.1805   -5.7811   21.5875 N.pl3   1  UNL1       -0.2825
     21 H           9.9001   -6.2716   21.1284 H       1  UNL1        0.1551
     22 C           8.7961   -6.1517   22.9893 C.ar    1  UNL1        0.0518
     23 C           9.1949   -7.4851   23.5486 C.ar    1  UNL1        0.0148
     24 C           8.8105   -7.8557   24.9504 C.ar    1  UNL1        0.0026
     25 C           8.0274   -6.8929   25.7928 C.ar    1  UNL1        0.0200
     26 C           7.6286   -5.5594   25.2334 C.ar    1  UNL1        0.1229
     27 C           8.0130   -5.1888   23.8316 C.ar    1  UNL1        0.0346
     28 S           6.8454   -4.5966   26.0757 S.O2    1  UNL1        0.0572
     29 N           6.0622   -3.6337   26.9181 N.3     1  UNL1       -0.2035
     30 O           7.2246   -3.4786   25.1504 O.2     1  UNL1       -0.1532
     31 O           6.4662   -5.7146   27.0011 O.2     1  UNL1       -0.1532
     32 H           6.1278   -2.6987   26.5158 H       1  UNL1        0.1442
     33 H           6.4416   -3.6238   27.8649 H       1  UNL1        0.1442
@<TRIPOS>BOND
     1     9    10    1
     2    10    11   ar
     3    11    12   ar
     4    12    13    1
     5    12    14   ar
     6    14    15   ar
     7    15    16   ar
     8    16     7    1
     9     7     8    1
    10     7     1    1
    11     1     2   ar
    12     2     3   ar
    13     3     4   ar
    14     4     5   ar
    15     5    20    1
    16    20    22    1
    17    22    23   ar
    18    23    24   ar
    19    24    25   ar
    20    25    26   ar
    21    26    28    1
    22    28    29    1
    23    28    30    2
    24    28    31    2
    25    26    27   ar
    26     5     6   ar
    27    16    17   ar
    28    17    18   ar
    29    18    19   ar
    30    19    10   ar
    31    19    14   ar
    32     6     1   ar
    33    27    22   ar
    34    20    21    1
    35    29    32    1
    36    29    33    1
