@<TRIPOS>MOLECULE
*****
 21 23 0 0 0
SMALL
GASTEIGER

@<TRIPOS>ATOM
      1 N          -7.1117  -18.4696   22.3731 N.pl3   1  UNL1       -0.3007
      2 F          -6.8823  -19.1490   19.4600 F       1  UNL1       -0.2029
      3 C          -5.6646  -19.1795   20.3354 C.ar    1  UNL1        0.1533
      4 C          -4.3322  -19.5497   19.7542 C.ar    1  UNL1        0.0309
      5 C          -3.1145  -19.5802   20.6296 C.ar    1  UNL1        0.0024
      6 C          -3.2292  -19.2405   22.0861 C.ar    1  UNL1        0.0014
      7 C          -4.5615  -18.8703   22.6672 C.ar    1  UNL1        0.0168
      8 C          -5.7792  -18.8398   21.7919 C.ar    1  UNL1        0.0759
      9 C          -7.3968  -17.0455   22.7480 C.3     1  UNL1        0.1045
     10 C          -8.2572  -15.9527   22.1863 C.3     1  UNL1        0.0900
     11 N          -7.8000  -15.0315   23.2783 N.3     1  UNL1       -0.2946
     12 C          -6.9397  -16.1244   23.8400 C.3     1  UNL1        0.0900
     13 H          -8.5452  -14.7252   23.9038 H       1  UNL1        0.1233
     14 C          -8.1589  -19.5236   22.5793 C.3     1  UNL1        0.1178
     15 C          -9.5728  -19.1264   22.8841 C.ar    1  UNL1       -0.0024
     16 C         -10.0436  -19.0616   24.3068 C.ar    1  UNL1       -0.0017
     17 C         -11.4576  -18.6645   24.6116 C.ar    1  UNL1        0.0111
     18 C         -12.4008  -18.3321   23.4936 C.ar    1  UNL1        0.0577
     19 CL        -13.8148  -17.9350   23.7984 Cl      1  UNL1       -0.0822
     20 C         -11.9301  -18.3970   22.0709 C.ar    1  UNL1        0.0111
     21 C         -10.5161  -18.7941   21.7661 C.ar    1  UNL1       -0.0017
@<TRIPOS>BOND
     1     2     3    1
     2     3     4   ar
     3     4     5   ar
     4     5     6   ar
     5     6     7   ar
     6     7     8   ar
     7     8     1    1
     8     1    14    1
     9    14    15    1
    10    15    16   ar
    11    16    17   ar
    12    17    18   ar
    13    18    19    1
    14    18    20   ar
    15    20    21   ar
    16     1     9    1
    17     9    10    1
    18    10    11    1
    19    11    12    1
    20     8     3   ar
    21    21    15   ar
    22    12     9    1
    23    11    13    1
@<TRIPOS>MOLECULE
*****
 21 23 0 0 0
SMALL
GASTEIGER

@<TRIPOS>ATOM
      1 N          -7.0327  -18.5056   22.3821 N.pl3   1  UNL1       -0.3007
      2 F          -4.5024  -18.0001   23.9126 F       1  UNL1       -0.2029
      3 C          -4.4437  -18.6360   22.5553 C.ar    1  UNL1        0.1533
      4 C          -3.1198  -19.0192   21.9632 C.ar    1  UNL1        0.0309
      5 C          -3.0611  -19.6551   20.6060 C.ar    1  UNL1        0.0024
      6 C          -4.3261  -19.9078   19.8407 C.ar    1  UNL1        0.0014
      7 C          -5.6500  -19.5247   20.4328 C.ar    1  UNL1        0.0168
      8 C          -5.7088  -18.8888   21.7900 C.ar    1  UNL1        0.0759
      9 C          -7.3228  -17.0697   22.7044 C.3     1  UNL1        0.1045
     10 C          -8.1284  -15.9801   22.0612 C.3     1  UNL1        0.0900
     11 N          -7.7330  -15.0389   23.1603 N.3     1  UNL1       -0.2946
     12 C          -6.9273  -16.1285   23.8034 C.3     1  UNL1        0.0900
     13 H          -8.5141  -14.7088   23.7270 H       1  UNL1        0.1233
     14 C          -8.0666  -19.5584   22.6517 C.3     1  UNL1        0.1178
     15 C          -9.4864  -19.1618   22.9285 C.ar    1  UNL1       -0.0024
     16 C         -10.4182  -18.8670   21.7906 C.ar    1  UNL1       -0.0017
     17 C         -11.8382  -18.4704   22.0675 C.ar    1  UNL1        0.0111
     18 C         -12.3262  -18.3686   23.4821 C.ar    1  UNL1        0.0577
     19 CL        -13.7461  -17.9720   23.7589 Cl      1  UNL1       -0.0822
     20 C         -11.3944  -18.6634   24.6200 C.ar    1  UNL1        0.0111
     21 C          -9.9746  -19.0600   24.3433 C.ar    1  UNL1       -0.0017
@<TRIPOS>BOND
     1     2     3    1
     2     3     4   ar
     3     4     5   ar
     4     5     6   ar
     5     6     7   ar
     6     7     8   ar
     7     8     1    1
     8     1    14    1
     9    14    15    1
    10    15    16   ar
    11    16    17   ar
    12    17    18   ar
    13    18    19    1
    14    18    20   ar
    15    20    21   ar
    16     1     9    1
    17     9    10    1
    18    10    11    1
    19    11    12    1
    20     8     3   ar
    21    21    15   ar
    22    12     9    1
    23    11    13    1
@<TRIPOS>MOLECULE
*****
 21 23 0 0 0
SMALL
GASTEIGER

@<TRIPOS>ATOM
      1 N          -7.1542  -18.3746   22.3586 N.pl3   1  UNL1       -0.3007
      2 F          -9.4991  -18.8696   24.1632 F       1  UNL1       -0.2029
      3 C          -9.6232  -19.1133   22.6883 C.ar    1  UNL1        0.1533
      4 C         -10.9196  -19.6045   22.1157 C.ar    1  UNL1        0.0309
      5 C         -11.0436  -19.8482   20.6409 C.ar    1  UNL1        0.0024
      6 C          -9.8712  -19.6007   19.7386 C.ar    1  UNL1        0.0014
      7 C          -8.5748  -19.1095   20.3112 C.ar    1  UNL1        0.0168
      8 C          -8.4508  -18.8658   21.7860 C.ar    1  UNL1        0.0759
      9 C          -7.0469  -16.9709   22.8763 C.3     1  UNL1        0.1045
     10 C          -7.8615  -15.7202   22.7270 C.3     1  UNL1        0.0900
     11 N          -6.8952  -14.9857   23.6083 N.3     1  UNL1       -0.2946
     12 C          -6.0806  -16.2363   23.7576 C.3     1  UNL1        0.0900
     13 H          -7.3017  -14.6469   24.4804 H       1  UNL1        0.1233
     14 C          -5.9650  -19.2872   22.4135 C.3     1  UNL1        0.1178
     15 C          -4.7259  -18.9518   21.6377 C.ar    1  UNL1       -0.0024
     16 C          -4.6986  -19.1404   20.1498 C.ar    1  UNL1       -0.0017
     17 C          -3.4593  -18.8050   19.3739 C.ar    1  UNL1        0.0111
     18 C          -2.2475  -18.2812   20.0859 C.ar    1  UNL1        0.0577
     19 CL         -1.0083  -17.9459   19.3100 Cl      1  UNL1       -0.0822
     20 C          -2.2748  -18.0927   21.5738 C.ar    1  UNL1        0.0111
     21 C          -3.5139  -18.4280   22.3496 C.ar    1  UNL1       -0.0017
@<TRIPOS>BOND
     1     2     3    1
     2     3     4   ar
     3     4     5   ar
     4     5     6   ar
     5     6     7   ar
     6     7     8   ar
     7     8     1    1
     8     1    14    1
     9    14    15    1
    10    15    16   ar
    11    16    17   ar
    12    17    18   ar
    13    18    19    1
    14    18    20   ar
    15    20    21   ar
    16     1     9    1
    17     9    10    1
    18    10    11    1
    19    11    12    1
    20     8     3   ar
    21    21    15   ar
    22    12     9    1
    23    11    13    1
@<TRIPOS>MOLECULE
*****
 21 23 0 0 0
SMALL
GASTEIGER

@<TRIPOS>ATOM
      1 N          -8.7491  -17.5121   23.0514 N.pl3   1  UNL1       -0.3007
      2 F         -10.9975  -18.2694   24.8876 F       1  UNL1       -0.2029
      3 C         -11.2799  -17.9427   23.4511 C.ar    1  UNL1        0.1533
      4 C         -12.6865  -17.9945   22.9327 C.ar    1  UNL1        0.0309
      5 C         -12.9690  -17.6678   21.4962 C.ar    1  UNL1        0.0024
      6 C         -11.8448  -17.2892   20.5782 C.ar    1  UNL1        0.0014
      7 C         -10.4382  -17.2373   21.0965 C.ar    1  UNL1        0.0168
      8 C         -10.1558  -17.5640   22.5330 C.ar    1  UNL1        0.0759
      9 C          -8.1897  -16.2225   23.5747 C.3     1  UNL1        0.1045
     10 C          -7.3218  -15.1367   23.0111 C.3     1  UNL1        0.0900
     11 N          -7.3987  -14.3986   24.3147 N.3     1  UNL1       -0.2946
     12 C          -8.2666  -15.4845   24.8783 C.3     1  UNL1        0.0900
     13 H          -7.8569  -13.4895   24.2521 H       1  UNL1        0.1233
     14 C          -7.9019  -18.7500   23.0465 C.3     1  UNL1        0.1178
     15 C          -6.7333  -18.8553   22.1119 C.ar    1  UNL1       -0.0024
     16 C          -5.3369  -18.6971   22.6364 C.ar    1  UNL1       -0.0017
     17 C          -4.1683  -18.8025   21.7018 C.ar    1  UNL1        0.0111
     18 C          -4.3962  -19.0659   20.2428 C.ar    1  UNL1        0.0577
     19 CL         -3.2277  -19.1712   19.3083 Cl      1  UNL1       -0.0822
     20 C          -5.7926  -19.2240   19.7184 C.ar    1  UNL1        0.0111
     21 C          -6.9612  -19.1187   20.6529 C.ar    1  UNL1       -0.0017
@<TRIPOS>BOND
     1     2     3    1
     2     3     4   ar
     3     4     5   ar
     4     5     6   ar
     5     6     7   ar
     6     7     8   ar
     7     8     1    1
     8     1    14    1
     9    14    15    1
    10    15    16   ar
    11    16    17   ar
    12    17    18   ar
    13    18    19    1
    14    18    20   ar
    15    20    21   ar
    16     1     9    1
    17     9    10    1
    18    10    11    1
    19    11    12    1
    20     8     3   ar
    21    21    15   ar
    22    12     9    1
    23    11    13    1
@<TRIPOS>MOLECULE
*****
 21 23 0 0 0
SMALL
GASTEIGER

@<TRIPOS>ATOM
      1 N          -9.0547  -17.4686   23.4402 N.pl3   1  UNL1       -0.3007
      2 F         -10.8287  -15.7618   21.7256 F       1  UNL1       -0.2029
      3 C         -11.4324  -16.7546   22.6742 C.ar    1  UNL1        0.1533
      4 C         -12.9231  -16.8940   22.7656 C.ar    1  UNL1        0.0309
      5 C         -13.5268  -17.8868   23.7142 C.ar    1  UNL1        0.0024
      6 C         -12.6399  -18.7402   24.5715 C.ar    1  UNL1        0.0014
      7 C         -11.1492  -18.6008   24.4802 C.ar    1  UNL1        0.0168
      8 C         -10.5455  -17.6080   23.5315 C.ar    1  UNL1        0.0759
      9 C          -8.3965  -16.1791   23.8326 C.3     1  UNL1        0.1045
     10 C          -7.5111  -15.1864   23.1394 C.3     1  UNL1        0.0900
     11 N          -7.4658  -14.3554   24.3874 N.3     1  UNL1       -0.2946
     12 C          -8.3512  -15.3482   25.0806 C.3     1  UNL1        0.0900
     13 H          -7.8792  -13.4285   24.2858 H       1  UNL1        0.1233
     14 C          -8.2221  -18.6188   22.9566 C.3     1  UNL1        0.1178
     15 C          -8.4433  -19.1794   21.5830 C.ar    1  UNL1       -0.0024
     16 C          -7.2705  -19.5870   20.7414 C.ar    1  UNL1       -0.0017
     17 C          -7.4917  -20.1476   19.3678 C.ar    1  UNL1        0.0111
     18 C          -8.8858  -20.3007   18.8358 C.ar    1  UNL1        0.0577
     19 CL         -9.1070  -20.8614   17.4623 Cl      1  UNL1       -0.0822
     20 C         -10.0587  -19.8932   19.6774 C.ar    1  UNL1        0.0111
     21 C          -9.8375  -19.3326   21.0510 C.ar    1  UNL1       -0.0017
@<TRIPOS>BOND
     1     2     3    1
     2     3     4   ar
     3     4     5   ar
     4     5     6   ar
     5     6     7   ar
     6     7     8   ar
     7     8     1    1
     8     1    14    1
     9    14    15    1
    10    15    16   ar
    11    16    17   ar
    12    17    18   ar
    13    18    19    1
    14    18    20   ar
    15    20    21   ar
    16     1     9    1
    17     9    10    1
    18    10    11    1
    19    11    12    1
    20     8     3   ar
    21    21    15   ar
    22    12     9    1
    23    11    13    1
@<TRIPOS>MOLECULE
*****
 21 23 0 0 0
SMALL
GASTEIGER

@<TRIPOS>ATOM
      1 N          -8.8763  -18.1653   22.8857 N.pl3   1  UNL1       -0.3007
      2 F         -10.2047  -19.9949   20.9140 F       1  UNL1       -0.2029
      3 C         -10.4354  -18.5148   20.8370 C.ar    1  UNL1        0.1533
      4 C         -11.3302  -17.9494   19.7741 C.ar    1  UNL1        0.0309
      5 C         -11.5608  -16.4693   19.6971 C.ar    1  UNL1        0.0024
      6 C         -10.8966  -15.5544   20.6830 C.ar    1  UNL1        0.0014
      7 C         -10.0018  -16.1198   21.7458 C.ar    1  UNL1        0.0168
      8 C          -9.7712  -17.6000   21.8228 C.ar    1  UNL1        0.0759
      9 C          -9.4324  -19.1091   23.9103 C.3     1  UNL1        0.1045
     10 C          -9.4084  -20.5961   24.1063 C.3     1  UNL1        0.0900
     11 N         -10.2188  -20.4440   25.3593 N.3     1  UNL1       -0.2946
     12 C         -10.2428  -18.9571   25.1633 C.3     1  UNL1        0.0900
     13 H          -9.7365  -20.7446   26.2063 H       1  UNL1        0.1233
     14 C          -7.4254  -17.7867   22.9239 C.3     1  UNL1        0.1178
     15 C          -6.4210  -18.5860   22.1479 C.ar    1  UNL1       -0.0024
     16 C          -6.8810  -19.5408   21.0864 C.ar    1  UNL1       -0.0017
     17 C          -5.8765  -20.3401   20.3103 C.ar    1  UNL1        0.0111
     18 C          -4.4122  -20.1846   20.5957 C.ar    1  UNL1        0.0577
     19 CL         -3.4078  -20.9839   19.8196 Cl      1  UNL1       -0.0822
     20 C          -3.9522  -19.2298   21.6572 C.ar    1  UNL1        0.0111
     21 C          -4.9566  -18.4305   22.4333 C.ar    1  UNL1       -0.0017
@<TRIPOS>BOND
     1     2     3    1
     2     3     4   ar
     3     4     5   ar
     4     5     6   ar
     5     6     7   ar
     6     7     8   ar
     7     8     1    1
     8     1    14    1
     9    14    15    1
    10    15    16   ar
    11    16    17   ar
    12    17    18   ar
    13    18    19    1
    14    18    20   ar
    15    20    21   ar
    16     1     9    1
    17     9    10    1
    18    10    11    1
    19    11    12    1
    20     8     3   ar
    21    21    15   ar
    22    12     9    1
    23    11    13    1
@<TRIPOS>MOLECULE
*****
 21 23 0 0 0
SMALL
GASTEIGER

@<TRIPOS>ATOM
      1 N          -9.5343  -17.5334   21.8506 N.pl3   1  UNL1       -0.3007
      2 F          -9.4309  -19.3999   24.1970 F       1  UNL1       -0.2029
      3 C         -10.7225  -18.7344   23.8244 C.ar    1  UNL1        0.1533
      4 C         -11.9624  -19.0022   24.6250 C.ar    1  UNL1        0.0309
      5 C         -13.2540  -18.3367   24.2523 C.ar    1  UNL1        0.0024
      6 C         -13.3058  -17.4035   23.0792 C.ar    1  UNL1        0.0014
      7 C         -12.0659  -17.1357   22.2786 C.ar    1  UNL1        0.0168
      8 C         -10.7743  -17.8012   22.6512 C.ar    1  UNL1        0.0759
      9 C          -9.0789  -18.5231   20.8196 C.3     1  UNL1        0.1045
     10 C          -7.7763  -19.1918   20.4938 C.3     1  UNL1        0.0900
     11 N          -8.4349  -19.9229   19.3616 N.3     1  UNL1       -0.2946
     12 C          -9.7374  -19.2542   19.6874 C.3     1  UNL1        0.0900
     13 H          -8.4482  -20.9368   19.4723 H       1  UNL1        0.1233
     14 C          -8.7499  -16.2758   22.0810 C.3     1  UNL1        0.1178
     15 C          -8.1638  -15.9945   23.4328 C.ar    1  UNL1       -0.0024
     16 C          -6.6765  -15.8929   23.5991 C.ar    1  UNL1       -0.0017
     17 C          -6.0905  -15.6115   24.9510 C.ar    1  UNL1        0.0111
     18 C          -6.9917  -15.4318   26.1365 C.ar    1  UNL1        0.0577
     19 CL         -6.4057  -15.1505   27.4882 Cl      1  UNL1       -0.0822
     20 C          -8.4790  -15.5334   25.9702 C.ar    1  UNL1        0.0111
     21 C          -9.0651  -15.8147   24.6184 C.ar    1  UNL1       -0.0017
@<TRIPOS>BOND
     1     2     3    1
     2     3     4   ar
     3     4     5   ar
     4     5     6   ar
     5     6     7   ar
     6     7     8   ar
     7     8     1    1
     8     1    14    1
     9    14    15    1
    10    15    16   ar
    11    16    17   ar
    12    17    18   ar
    13    18    19    1
    14    18    20   ar
    15    20    21   ar
    16     1     9    1
    17     9    10    1
    18    10    11    1
    19    11    12    1
    20     8     3   ar
    21    21    15   ar
    22    12     9    1
    23    11    13    1
@<TRIPOS>MOLECULE
*****
 21 23 0 0 0
SMALL
GASTEIGER

@<TRIPOS>ATOM
      1 N         -10.2485  -18.0641   22.0868 N.pl3   1  UNL1       -0.3007
      2 F         -10.5530  -19.5377   19.4915 F       1  UNL1       -0.2029
      3 C          -9.1931  -19.3642   20.1004 C.ar    1  UNL1        0.1533
      4 C          -7.9856  -19.9275   19.4116 C.ar    1  UNL1        0.0309
      5 C          -6.6257  -19.7539   20.0204 C.ar    1  UNL1        0.0024
      6 C          -6.4735  -19.0171   21.3181 C.ar    1  UNL1        0.0014
      7 C          -7.6810  -18.4539   22.0069 C.ar    1  UNL1        0.0168
      8 C          -9.0409  -18.6274   21.3980 C.ar    1  UNL1        0.0759
      9 C         -11.2554  -17.2717   21.3069 C.3     1  UNL1        0.1045
     10 C         -11.1840  -16.1432   20.3213 C.3     1  UNL1        0.0900
     11 N         -12.6793  -16.1511   20.2040 N.3     1  UNL1       -0.2946
     12 C         -12.7507  -17.2796   21.1896 C.3     1  UNL1        0.0900
     13 H         -13.0228  -16.3887   19.2734 H       1  UNL1        0.1233
     14 C         -10.4492  -18.2933   23.5556 C.3     1  UNL1        0.1178
     15 C          -9.6982  -17.4628   24.5537 C.ar    1  UNL1       -0.0024
     16 C          -9.2035  -16.0987   24.1736 C.ar    1  UNL1       -0.0017
     17 C          -8.4524  -15.2682   25.1718 C.ar    1  UNL1        0.0111
     18 C          -8.1962  -15.8018   26.5500 C.ar    1  UNL1        0.0577
     19 CL         -7.4453  -14.9713   27.5482 Cl      1  UNL1       -0.0822
     20 C          -8.6910  -17.1659   26.9301 C.ar    1  UNL1        0.0111
     21 C          -9.4419  -17.9964   25.9320 C.ar    1  UNL1       -0.0017
@<TRIPOS>BOND
     1     2     3    1
     2     3     4   ar
     3     4     5   ar
     4     5     6   ar
     5     6     7   ar
     6     7     8   ar
     7     8     1    1
     8     1    14    1
     9    14    15    1
    10    15    16   ar
    11    16    17   ar
    12    17    18   ar
    13    18    19    1
    14    18    20   ar
    15    20    21   ar
    16     1     9    1
    17     9    10    1
    18    10    11    1
    19    11    12    1
    20     8     3   ar
    21    21    15   ar
    22    12     9    1
    23    11    13    1
@<TRIPOS>MOLECULE
*****
 21 23 0 0 0
SMALL
GASTEIGER

@<TRIPOS>ATOM
      1 N          -8.0001  -18.7896   22.0011 N.pl3   1  UNL1       -0.3007
      2 F         -10.0783  -18.7667   24.1646 F       1  UNL1       -0.2029
      3 C          -9.1153  -17.6237   24.0375 C.ar    1  UNL1        0.1533
      4 C          -9.1914  -16.4692   24.9922 C.ar    1  UNL1        0.0309
      5 C          -8.2285  -15.3262   24.8651 C.ar    1  UNL1        0.0024
      6 C          -7.1894  -15.3376   23.7833 C.ar    1  UNL1        0.0014
      7 C          -7.1133  -16.4921   22.8287 C.ar    1  UNL1        0.0168
      8 C          -8.0763  -17.6351   22.9558 C.ar    1  UNL1        0.0759
      9 C          -9.0250  -18.9338   20.9154 C.3     1  UNL1        0.1045
     10 C          -9.0349  -19.5288   19.5384 C.3     1  UNL1        0.0900
     11 N         -10.4743  -19.1378   19.3799 N.3     1  UNL1       -0.2946
     12 C         -10.4644  -18.5428   20.7568 C.3     1  UNL1        0.0900
     13 H         -11.1109  -19.9274   19.2720 H       1  UNL1        0.1233
     14 C          -6.8991  -19.7999   22.1322 C.3     1  UNL1        0.1178
     15 C          -5.5281  -19.4869   21.6105 C.ar    1  UNL1       -0.0024
     16 C          -4.4045  -19.2192   22.5675 C.ar    1  UNL1       -0.0017
     17 C          -3.0334  -18.9062   22.0458 C.ar    1  UNL1        0.0111
     18 C          -2.7859  -18.8611   20.5670 C.ar    1  UNL1        0.0577
     19 CL         -1.4148  -18.5481   20.0453 Cl      1  UNL1       -0.0822
     20 C          -3.9095  -19.1288   19.6100 C.ar    1  UNL1        0.0111
     21 C          -5.2805  -19.4418   20.1317 C.ar    1  UNL1       -0.0017
@<TRIPOS>BOND
     1     2     3    1
     2     3     4   ar
     3     4     5   ar
     4     5     6   ar
     5     6     7   ar
     6     7     8   ar
     7     8     1    1
     8     1    14    1
     9    14    15    1
    10    15    16   ar
    11    16    17   ar
    12    17    18   ar
    13    18    19    1
    14    18    20   ar
    15    20    21   ar
    16     1     9    1
    17     9    10    1
    18    10    11    1
    19    11    12    1
    20     8     3   ar
    21    21    15   ar
    22    12     9    1
    23    11    13    1
