@<TRIPOS>MOLECULE
*****
 35 39 0 0 0
SMALL
GASTEIGER

@<TRIPOS>ATOM
      1 N          -7.3660  -19.4965   21.6170 N.3     1  UNL1       -0.2679
      2 C          -8.2833  -19.1471   22.7512 C.3     1  UNL1        0.0978
      3 C          -9.2410  -20.1712   23.2840 C.3     1  UNL1        0.0224
      4 C         -10.1584  -19.8218   24.4183 C.3     1  UNL1        0.0065
      5 C         -10.1180  -18.4483   25.0196 C.3     1  UNL1        0.0277
      6 C          -9.1603  -17.4241   24.4868 C.ar    1  UNL1       -0.0073
      7 C          -9.1199  -16.0505   25.0882 C.ar    1  UNL1       -0.0015
      8 C          -8.1622  -15.0264   24.5554 C.ar    1  UNL1        0.0203
      9 C          -7.2449  -15.3758   23.4212 C.ar    1  UNL1        0.0985
     10 N          -7.2852  -16.7493   22.8198 N.ar    1  UNL1       -0.2471
     11 C          -8.2429  -17.7735   23.3526 C.ar    1  UNL1        0.0695
     12 C          -6.0195  -20.0947   21.8984 C.3     1  UNL1        0.0886
     13 C          -0.2570  -16.8182   20.0796 C.ar    1  UNL1       -0.0003
     14 C          -0.6783  -17.7271   18.9632 C.ar    1  UNL1       -0.0003
     15 C          -1.9151  -18.5641   19.1037 C.ar    1  UNL1       -0.0045
     16 C          -2.7305  -18.4923   20.3606 C.ar    1  UNL1       -0.0234
     17 C          -2.3092  -17.5835   21.4770 C.ar    1  UNL1       -0.0103
     18 C          -1.0724  -16.7464   21.3365 C.ar    1  UNL1       -0.0032
     19 C          -3.1246  -17.5117   22.7340 C.3     1  UNL1        0.0953
     20 N          -4.3614  -18.3488   22.8745 N.3     1  UNL1       -0.2934
     21 C          -4.7827  -19.2576   21.7580 C.3     1  UNL1        0.0748
     22 C          -3.9673  -19.3294   20.5011 C.3     1  UNL1        0.0432
     23 H          -5.1355  -17.7051   23.0382 H       1  UNL1        0.1236
     24 C          -7.7951  -19.2476   20.2014 C.3     1  UNL1        0.0725
     25 C          -8.1547  -20.4014   19.3129 C.3     1  UNL1        0.0188
     26 C          -9.5031  -20.4515   18.6576 C.3     1  UNL1        0.0185
     27 C         -10.5543  -19.4472   19.0270 C.3     1  UNL1        0.0686
     28 N         -11.2249  -19.5217   20.3667 N.3     1  UNL1       -0.2984
     29 H         -10.6351  -20.1060   20.9591 H       1  UNL1        0.1232
     30 C         -11.5029  -18.2652   21.1372 C.3     1  UNL1        0.0590
     31 C         -12.5775  -18.2493   22.1835 C.3     1  UNL1        0.0478
     32 C         -12.8555  -16.9927   22.9542 C.3     1  UNL1        0.1435
     33 O         -12.0589  -15.7520   22.6783 O.3     1  UNL1       -0.3537
     34 C         -10.9842  -15.7679   21.6319 C.3     1  UNL1        0.1435
     35 C         -10.7063  -17.0245   20.8614 C.3     1  UNL1        0.0478
@<TRIPOS>BOND
     1    13    14   ar
     2    14    15   ar
     3    15    16   ar
     4    16    17   ar
     5    17    18   ar
     6    17    19    1
     7    19    20    1
     8    20    21    1
     9    21    12    1
    10    12     1    1
    11     1    24    1
    12    24    25    1
    13    25    26    1
    14    26    27    1
    15    27    28    1
    16    28    30    1
    17    30    31    1
    18    31    32    1
    19    32    33    1
    20    33    34    1
    21    34    35    1
    22     2     1    1
    23     2     3    1
    24     3     4    1
    25     4     5    1
    26     5     6    1
    27     6     7   ar
    28     7     8   ar
    29     8     9   ar
    30     9    10   ar
    31    10    11   ar
    32    21    22    1
    33    18    13   ar
    34    35    30    1
    35    11     2    1
    36    22    16    1
    37    11     6   ar
    38    20    23    1
    39    28    29    1
@<TRIPOS>MOLECULE
*****
 35 39 0 0 0
SMALL
GASTEIGER

@<TRIPOS>ATOM
      1 N          -8.1270  -18.6475   21.4550 N.3     1  UNL1       -0.2679
      2 C          -9.1844  -19.0190   22.4518 C.3     1  UNL1        0.0978
      3 C          -8.9187  -20.0970   23.4605 C.3     1  UNL1        0.0224
      4 C          -9.9762  -20.4685   24.4574 C.3     1  UNL1        0.0065
      5 C         -11.2994  -19.7620   24.4456 C.3     1  UNL1        0.0277
      6 C         -11.5651  -18.6840   23.4370 C.ar    1  UNL1       -0.0073
      7 C         -12.8882  -17.9775   23.4252 C.ar    1  UNL1       -0.0015
      8 C         -13.1539  -16.8995   22.4166 C.ar    1  UNL1        0.0203
      9 C         -12.0965  -16.5280   21.4198 C.ar    1  UNL1        0.0985
     10 N         -10.7734  -17.2345   21.4315 N.ar    1  UNL1       -0.2471
     11 C         -10.5077  -18.3125   22.4401 C.ar    1  UNL1        0.0695
     12 C          -7.4703  -17.3006   21.5250 C.3     1  UNL1        0.0886
     13 C          -6.9347  -14.7514   27.8862 C.ar    1  UNL1       -0.0003
     14 C          -8.3730  -15.0706   27.6046 C.ar    1  UNL1       -0.0003
     15 C          -8.7678  -15.6443   26.2761 C.ar    1  UNL1       -0.0045
     16 C          -7.7243  -15.8988   25.2291 C.ar    1  UNL1       -0.0234
     17 C          -6.2860  -15.5795   25.5106 C.ar    1  UNL1       -0.0103
     18 C          -5.8912  -15.0058   26.8392 C.ar    1  UNL1       -0.0032
     19 C          -5.2423  -15.8340   24.4636 C.3     1  UNL1        0.0953
     20 N          -5.6371  -16.4077   23.1351 N.3     1  UNL1       -0.2934
     21 C          -7.0755  -16.7269   22.8536 C.3     1  UNL1        0.0748
     22 C          -8.1190  -16.4725   23.9006 C.3     1  UNL1        0.0432
     23 H          -5.1151  -17.2768   23.0228 H       1  UNL1        0.1236
     24 C          -7.7263  -19.6227   20.3880 C.3     1  UNL1        0.0725
     25 C          -6.4555  -20.4071   20.5279 C.3     1  UNL1        0.0188
     26 C          -5.1548  -19.8156   20.0715 C.3     1  UNL1        0.0185
     27 C          -3.9223  -20.6686   20.0135 C.3     1  UNL1        0.0686
     28 N          -2.7496  -20.3527   20.8938 N.3     1  UNL1       -0.2984
     29 H          -1.9685  -20.9157   20.5570 H       1  UNL1        0.1232
     30 C          -2.2515  -18.9420   21.0022 C.3     1  UNL1        0.0590
     31 C          -1.2937  -18.4043   19.9807 C.3     1  UNL1        0.0478
     32 C          -0.7957  -16.9935   20.0891 C.3     1  UNL1        0.1435
     33 O          -1.2555  -16.1205   21.2189 O.3     1  UNL1       -0.3537
     34 C          -2.2133  -16.6583   22.2404 C.3     1  UNL1        0.1435
     35 C          -2.7113  -18.0690   22.1320 C.3     1  UNL1        0.0478
@<TRIPOS>BOND
     1    13    14   ar
     2    14    15   ar
     3    15    16   ar
     4    16    17   ar
     5    17    18   ar
     6    17    19    1
     7    19    20    1
     8    20    21    1
     9    21    12    1
    10    12     1    1
    11     1    24    1
    12    24    25    1
    13    25    26    1
    14    26    27    1
    15    27    28    1
    16    28    30    1
    17    30    31    1
    18    31    32    1
    19    32    33    1
    20    33    34    1
    21    34    35    1
    22     2     1    1
    23     2     3    1
    24     3     4    1
    25     4     5    1
    26     5     6    1
    27     6     7   ar
    28     7     8   ar
    29     8     9   ar
    30     9    10   ar
    31    10    11   ar
    32    21    22    1
    33    18    13   ar
    34    35    30    1
    35    11     2    1
    36    22    16    1
    37    11     6   ar
    38    20    23    1
    39    28    29    1
@<TRIPOS>MOLECULE
*****
 35 39 0 0 0
SMALL
GASTEIGER

@<TRIPOS>ATOM
      1 N          -8.7528  -17.8862   21.2949 N.3     1  UNL1       -0.2679
      2 C         -10.2008  -17.4949   21.2846 C.3     1  UNL1        0.0978
      3 C         -10.7570  -16.7085   20.1348 C.3     1  UNL1        0.0224
      4 C         -12.2051  -16.3171   20.1246 C.3     1  UNL1        0.0065
      5 C         -13.0968  -16.7121   21.2642 C.3     1  UNL1        0.0277
      6 C         -12.5405  -17.4985   22.4140 C.ar    1  UNL1       -0.0073
      7 C         -13.4322  -17.8936   23.5537 C.ar    1  UNL1       -0.0015
      8 C         -12.8760  -18.6800   24.7035 C.ar    1  UNL1        0.0203
      9 C         -11.4280  -19.0713   24.7137 C.ar    1  UNL1        0.0985
     10 N         -10.5363  -18.6763   23.5741 N.ar    1  UNL1       -0.2471
     11 C         -11.0926  -17.8899   22.4243 C.ar    1  UNL1        0.0695
     12 C          -7.6933  -16.8366   21.4558 C.3     1  UNL1        0.0886
     13 C          -6.9637  -14.8880   28.0072 C.ar    1  UNL1       -0.0003
     14 C          -8.4241  -15.0360   27.6987 C.ar    1  UNL1       -0.0003
     15 C          -8.8621  -15.4553   26.3267 C.ar    1  UNL1       -0.0045
     16 C          -7.8397  -15.7266   25.2632 C.ar    1  UNL1       -0.0234
     17 C          -6.3793  -15.5786   25.5718 C.ar    1  UNL1       -0.0103
     18 C          -5.9413  -15.1593   26.9438 C.ar    1  UNL1       -0.0032
     19 C          -5.3568  -15.8500   24.5083 C.3     1  UNL1        0.0953
     20 N          -5.7948  -16.2693   23.1363 N.3     1  UNL1       -0.2934
     21 C          -7.2553  -16.4173   22.8278 C.3     1  UNL1        0.0748
     22 C          -8.2777  -16.1460   23.8913 C.3     1  UNL1        0.0432
     23 H          -5.3619  -17.1745   22.9528 H       1  UNL1        0.1236
     24 C          -8.3642  -19.3272   21.1442 C.3     1  UNL1        0.0725
     25 C          -7.2525  -19.7107   20.2132 C.3     1  UNL1        0.0188
     26 C          -5.9372  -20.1736   20.7661 C.3     1  UNL1        0.0185
     27 C          -5.4320  -19.6175   22.0645 C.3     1  UNL1        0.0686
     28 N          -3.9621  -19.6267   22.3630 N.3     1  UNL1       -0.2984
     29 H          -3.6292  -20.5722   22.1742 H       1  UNL1        0.1232
     30 C          -3.0431  -18.6908   21.6355 C.3     1  UNL1        0.0590
     31 C          -2.6920  -17.3637   22.2401 C.3     1  UNL1        0.0478
     32 C          -1.7729  -16.4276   21.5125 C.3     1  UNL1        0.1435
     33 O          -1.2050  -16.8187   20.1804 O.3     1  UNL1       -0.3537
     34 C          -1.5562  -18.1459   19.5758 C.3     1  UNL1        0.1435
     35 C          -2.4752  -19.0819   20.3034 C.3     1  UNL1        0.0478
@<TRIPOS>BOND
     1    13    14   ar
     2    14    15   ar
     3    15    16   ar
     4    16    17   ar
     5    17    18   ar
     6    17    19    1
     7    19    20    1
     8    20    21    1
     9    21    12    1
    10    12     1    1
    11     1    24    1
    12    24    25    1
    13    25    26    1
    14    26    27    1
    15    27    28    1
    16    28    30    1
    17    30    31    1
    18    31    32    1
    19    32    33    1
    20    33    34    1
    21    34    35    1
    22     2     1    1
    23     2     3    1
    24     3     4    1
    25     4     5    1
    26     5     6    1
    27     6     7   ar
    28     7     8   ar
    29     8     9   ar
    30     9    10   ar
    31    10    11   ar
    32    21    22    1
    33    18    13   ar
    34    35    30    1
    35    11     2    1
    36    22    16    1
    37    11     6   ar
    38    20    23    1
    39    28    29    1
@<TRIPOS>MOLECULE
*****
 35 39 0 0 0
SMALL
GASTEIGER

@<TRIPOS>ATOM
      1 N          -7.8402  -17.1895   23.0632 N.3     1  UNL1       -0.2679
      2 C          -9.2469  -17.6715   23.2601 C.3     1  UNL1        0.0978
      3 C          -9.5716  -18.5930   24.3983 C.3     1  UNL1        0.0224
      4 C         -10.9784  -19.0750   24.5952 C.3     1  UNL1        0.0065
      5 C         -12.0604  -18.6356   23.6539 C.3     1  UNL1        0.0277
      6 C         -11.7357  -17.7141   22.5157 C.ar    1  UNL1       -0.0073
      7 C         -12.8178  -17.2747   21.5744 C.ar    1  UNL1       -0.0015
      8 C         -12.4931  -16.3533   20.4362 C.ar    1  UNL1        0.0203
      9 C         -11.0864  -15.8712   20.2393 C.ar    1  UNL1        0.0985
     10 N         -10.0044  -16.3107   21.1806 N.ar    1  UNL1       -0.2471
     11 C         -10.3290  -17.2321   22.3188 C.ar    1  UNL1        0.0695
     12 C          -6.7503  -18.1682   22.7400 C.3     1  UNL1        0.0886
     13 C          -8.6720  -22.0154   17.3775 C.ar    1  UNL1       -0.0003
     14 C          -9.6483  -20.8897   17.5492 C.ar    1  UNL1       -0.0003
     15 C          -9.4593  -19.8951   18.6560 C.ar    1  UNL1       -0.0045
     16 C          -8.2939  -20.0262   19.5912 C.ar    1  UNL1       -0.0234
     17 C          -7.3176  -21.1519   19.4195 C.ar    1  UNL1       -0.0103
     18 C          -7.5066  -22.1465   18.3127 C.ar    1  UNL1       -0.0032
     19 C          -6.1521  -21.2831   20.3548 C.3     1  UNL1        0.0953
     20 N          -5.9630  -20.2885   21.4616 N.3     1  UNL1       -0.2934
     21 C          -6.9394  -19.1628   21.6332 C.3     1  UNL1        0.0748
     22 C          -8.1048  -19.0316   20.6980 C.3     1  UNL1        0.0432
     23 H          -5.0459  -19.8643   21.3227 H       1  UNL1        0.1236
     24 C          -7.5234  -15.7288   23.1894 C.3     1  UNL1        0.0725
     25 C          -6.7594  -15.2271   24.3788 C.3     1  UNL1        0.0188
     26 C          -5.2676  -15.0880   24.3077 C.3     1  UNL1        0.0185
     27 C          -4.4383  -16.1928   23.7232 C.3     1  UNL1        0.0686
     28 N          -3.4547  -15.8947   22.6305 N.3     1  UNL1       -0.2984
     29 H          -2.7509  -15.2734   23.0294 H       1  UNL1        0.1232
     30 C          -2.7145  -17.0148   21.9616 C.3     1  UNL1        0.0590
     31 C          -1.6496  -16.7111   20.9499 C.3     1  UNL1        0.0478
     32 C          -0.9093  -17.8312   20.2809 C.3     1  UNL1        0.1435
     33 O          -1.2340  -19.2549   20.6238 O.3     1  UNL1       -0.3537
     34 C          -2.2989  -19.5586   21.6356 C.3     1  UNL1        0.1435
     35 C          -3.0392  -18.4385   22.3045 C.3     1  UNL1        0.0478
@<TRIPOS>BOND
     1    13    14   ar
     2    14    15   ar
     3    15    16   ar
     4    16    17   ar
     5    17    18   ar
     6    17    19    1
     7    19    20    1
     8    20    21    1
     9    21    12    1
    10    12     1    1
    11     1    24    1
    12    24    25    1
    13    25    26    1
    14    26    27    1
    15    27    28    1
    16    28    30    1
    17    30    31    1
    18    31    32    1
    19    32    33    1
    20    33    34    1
    21    34    35    1
    22     2     1    1
    23     2     3    1
    24     3     4    1
    25     4     5    1
    26     5     6    1
    27     6     7   ar
    28     7     8   ar
    29     8     9   ar
    30     9    10   ar
    31    10    11   ar
    32    21    22    1
    33    18    13   ar
    34    35    30    1
    35    11     2    1
    36    22    16    1
    37    11     6   ar
    38    20    23    1
    39    28    29    1
@<TRIPOS>MOLECULE
*****
 35 39 0 0 0
SMALL
GASTEIGER

@<TRIPOS>ATOM
      1 N          -6.9387  -19.1759   22.1743 N.3     1  UNL1       -0.2679
      2 C          -5.6875  -19.5689   21.4463 C.3     1  UNL1        0.0978
      3 C          -5.7126  -20.7112   20.4744 C.3     1  UNL1        0.0224
      4 C          -4.4613  -21.1041   19.7464 C.3     1  UNL1        0.0065
      5 C          -3.1850  -20.3547   19.9902 C.3     1  UNL1        0.0277
      6 C          -3.1599  -19.2124   20.9621 C.ar    1  UNL1       -0.0073
      7 C          -1.8836  -18.4630   21.2059 C.ar    1  UNL1       -0.0015
      8 C          -1.8585  -17.3207   22.1777 C.ar    1  UNL1        0.0203
      9 C          -3.1097  -16.9278   22.9058 C.ar    1  UNL1        0.0985
     10 N          -4.3860  -17.6772   22.6620 N.ar    1  UNL1       -0.2471
     11 C          -4.4111  -18.8195   21.6901 C.ar    1  UNL1        0.0695
     12 C          -7.9098  -20.2291   22.6190 C.3     1  UNL1        0.0886
     13 C         -14.2684  -18.0958   24.1249 C.ar    1  UNL1       -0.0003
     14 C         -14.0397  -17.9547   22.6492 C.ar    1  UNL1       -0.0003
     15 C         -12.7223  -18.3531   22.0529 C.ar    1  UNL1       -0.0045
     16 C         -11.6335  -18.8927   22.9323 C.ar    1  UNL1       -0.0234
     17 C         -11.8621  -19.0338   24.4080 C.ar    1  UNL1       -0.0103
     18 C         -13.1796  -18.6353   25.0043 C.ar    1  UNL1       -0.0032
     19 C         -10.7733  -19.5734   25.2875 C.3     1  UNL1        0.0953
     20 N          -9.4559  -19.9718   24.6912 N.3     1  UNL1       -0.2934
     21 C          -9.2273  -19.8307   23.2154 C.3     1  UNL1        0.0748
     22 C         -10.3161  -19.2911   22.3360 C.3     1  UNL1        0.0432
     23 H          -9.3157  -20.9563   24.9180 H       1  UNL1        0.1236
     24 C          -7.2188  -17.7298   22.4577 C.3     1  UNL1        0.0725
     25 C          -8.0531  -16.9267   21.5044 C.3     1  UNL1        0.0188
     26 C          -9.0698  -15.9574   22.0306 C.3     1  UNL1        0.0185
     27 C          -9.6385  -16.1403   23.4066 C.3     1  UNL1        0.0686
     28 N          -9.2820  -15.1768   24.4996 N.3     1  UNL1       -0.2984
     29 H         -10.0544  -15.1884   25.1657 H       1  UNL1        0.1232
     30 C          -8.0238  -15.3736   25.2921 C.3     1  UNL1        0.0590
     31 C          -8.0991  -15.8446   26.7142 C.3     1  UNL1        0.0478
     32 C          -6.8408  -16.0414   27.5067 C.3     1  UNL1        0.1435
     33 O          -5.5072  -15.7672   26.8770 O.3     1  UNL1       -0.3537
     34 C          -5.4320  -15.2962   25.4548 C.3     1  UNL1        0.1435
     35 C          -6.6902  -15.0995   24.6624 C.3     1  UNL1        0.0478
@<TRIPOS>BOND
     1    13    14   ar
     2    14    15   ar
     3    15    16   ar
     4    16    17   ar
     5    17    18   ar
     6    17    19    1
     7    19    20    1
     8    20    21    1
     9    21    12    1
    10    12     1    1
    11     1    24    1
    12    24    25    1
    13    25    26    1
    14    26    27    1
    15    27    28    1
    16    28    30    1
    17    30    31    1
    18    31    32    1
    19    32    33    1
    20    33    34    1
    21    34    35    1
    22     2     1    1
    23     2     3    1
    24     3     4    1
    25     4     5    1
    26     5     6    1
    27     6     7   ar
    28     7     8   ar
    29     8     9   ar
    30     9    10   ar
    31    10    11   ar
    32    21    22    1
    33    18    13   ar
    34    35    30    1
    35    11     2    1
    36    22    16    1
    37    11     6   ar
    38    20    23    1
    39    28    29    1
@<TRIPOS>MOLECULE
*****
 35 39 0 0 0
SMALL
GASTEIGER

@<TRIPOS>ATOM
      1 N          -8.2672  -16.5212   22.8000 N.3     1  UNL1       -0.2679
      2 C          -9.6502  -16.4969   22.2198 C.3     1  UNL1        0.0978
      3 C          -9.9116  -15.7689   20.9346 C.3     1  UNL1        0.0224
      4 C         -11.2947  -15.7446   20.3544 C.3     1  UNL1        0.0065
      5 C         -12.4163  -16.4481   21.0594 C.3     1  UNL1        0.0277
      6 C         -12.1548  -17.1761   22.3446 C.ar    1  UNL1       -0.0073
      7 C         -13.2763  -17.8796   23.0496 C.ar    1  UNL1       -0.0015
      8 C         -13.0149  -18.6076   24.3348 C.ar    1  UNL1        0.0203
      9 C         -11.6319  -18.6320   24.9150 C.ar    1  UNL1        0.0985
     10 N         -10.5104  -17.9284   24.2100 N.ar    1  UNL1       -0.2471
     11 C         -10.7718  -17.2005   22.9248 C.ar    1  UNL1        0.0695
     12 C          -7.5805  -17.8318   23.0472 C.3     1  UNL1        0.0886
     13 C          -8.2480  -21.9758   17.6037 C.ar    1  UNL1       -0.0003
     14 C          -9.4335  -21.0594   17.6715 C.ar    1  UNL1       -0.0003
     15 C          -9.5372  -20.0473   18.7738 C.ar    1  UNL1       -0.0045
     16 C          -8.4552  -19.9516   19.8082 C.ar    1  UNL1       -0.0234
     17 C          -7.2696  -20.8680   19.7405 C.ar    1  UNL1       -0.0103
     18 C          -7.1660  -21.8801   18.6382 C.ar    1  UNL1       -0.0032
     19 C          -6.1876  -20.7723   20.7750 C.3     1  UNL1        0.0953
     20 N          -6.2912  -19.7603   21.8772 N.3     1  UNL1       -0.2934
     21 C          -7.4769  -18.8439   21.9450 C.3     1  UNL1        0.0748
     22 C          -8.5588  -18.9396   20.9105 C.3     1  UNL1        0.0432
     23 H          -5.4641  -19.1671   21.8111 H       1  UNL1        0.1236
     24 C          -7.5707  -15.2351   23.1330 C.3     1  UNL1        0.0725
     25 C          -7.0187  -15.0159   24.5103 C.3     1  UNL1        0.0188
     26 C          -5.5855  -15.3462   24.8053 C.3     1  UNL1        0.0185
     27 C          -4.6580  -15.7244   23.6887 C.3     1  UNL1        0.0686
     28 N          -4.0955  -17.1133   23.6189 N.3     1  UNL1       -0.2984
     29 H          -4.8890  -17.7482   23.5309 H       1  UNL1        0.1232
     30 C          -3.1276  -17.4767   22.5322 C.3     1  UNL1        0.0590
     31 C          -2.2841  -16.4138   21.8929 C.3     1  UNL1        0.0478
     32 C          -1.3160  -16.7772   20.8062 C.3     1  UNL1        0.1435
     33 O          -1.1916  -18.2035   20.3588 O.3     1  UNL1       -0.3537
     34 C          -2.0351  -19.2664   20.9982 C.3     1  UNL1        0.1435
     35 C          -3.0031  -18.9030   22.0849 C.3     1  UNL1        0.0478
@<TRIPOS>BOND
     1    13    14   ar
     2    14    15   ar
     3    15    16   ar
     4    16    17   ar
     5    17    18   ar
     6    17    19    1
     7    19    20    1
     8    20    21    1
     9    21    12    1
    10    12     1    1
    11     1    24    1
    12    24    25    1
    13    25    26    1
    14    26    27    1
    15    27    28    1
    16    28    30    1
    17    30    31    1
    18    31    32    1
    19    32    33    1
    20    33    34    1
    21    34    35    1
    22     2     1    1
    23     2     3    1
    24     3     4    1
    25     4     5    1
    26     5     6    1
    27     6     7   ar
    28     7     8   ar
    29     8     9   ar
    30     9    10   ar
    31    10    11   ar
    32    21    22    1
    33    18    13   ar
    34    35    30    1
    35    11     2    1
    36    22    16    1
    37    11     6   ar
    38    20    23    1
    39    28    29    1
@<TRIPOS>MOLECULE
*****
 35 39 0 0 0
SMALL
GASTEIGER

@<TRIPOS>ATOM
      1 N          -7.9423  -19.4466   22.4517 N.3     1  UNL1       -0.2679
      2 C          -8.7574  -19.3141   21.1995 C.3     1  UNL1        0.0978
      3 C          -8.4685  -20.1946   20.0199 C.3     1  UNL1        0.0224
      4 C          -9.2837  -20.0621   18.7677 C.3     1  UNL1        0.0065
      5 C         -10.3876  -19.0492   18.6950 C.3     1  UNL1        0.0277
      6 C         -10.6764  -18.1687   19.8746 C.ar    1  UNL1       -0.0073
      7 C         -11.7803  -17.1558   19.8019 C.ar    1  UNL1       -0.0015
      8 C         -12.0692  -16.2753   20.9815 C.ar    1  UNL1        0.0203
      9 C         -11.2541  -16.4078   22.2337 C.ar    1  UNL1        0.0985
     10 N         -10.1502  -17.4207   22.3063 N.ar    1  UNL1       -0.2471
     11 C          -9.8613  -18.3012   21.1268 C.ar    1  UNL1        0.0695
     12 C          -6.8238  -18.4848   22.7239 C.3     1  UNL1        0.0886
     13 C          -0.5380  -18.0227   19.9808 C.ar    1  UNL1       -0.0003
     14 C          -0.8044  -16.7993   20.8068 C.ar    1  UNL1       -0.0003
     15 C          -2.1148  -16.6471   21.5206 C.ar    1  UNL1       -0.0045
     16 C          -3.1589  -17.7182   21.4084 C.ar    1  UNL1       -0.0234
     17 C          -2.8925  -18.9415   20.5824 C.ar    1  UNL1       -0.0103
     18 C          -1.5820  -19.0938   19.8686 C.ar    1  UNL1       -0.0032
     19 C          -3.9365  -20.0127   20.4702 C.3     1  UNL1        0.0953
     20 N          -5.2470  -19.8605   21.1840 N.3     1  UNL1       -0.2934
     21 C          -5.5134  -18.6370   22.0100 C.3     1  UNL1        0.0748
     22 C          -4.4693  -17.5659   22.1223 C.3     1  UNL1        0.0432
     23 H          -5.3374  -20.6624   21.8078 H       1  UNL1        0.1236
     24 C          -8.2457  -20.5408   23.4318 C.3     1  UNL1        0.0725
     25 C          -9.6387  -20.7076   23.9623 C.3     1  UNL1        0.0188
     26 C         -10.0510  -20.0041   25.2213 C.3     1  UNL1        0.0185
     27 C         -10.0193  -18.5058   25.2881 C.3     1  UNL1        0.0686
     28 N          -9.3722  -17.8207   26.4551 N.3     1  UNL1       -0.2984
     29 H          -8.9043  -18.5453   26.9995 H       1  UNL1        0.1232
     30 C          -8.3638  -16.7349   26.2224 C.3     1  UNL1        0.0590
     31 C          -7.5047  -16.2542   27.3541 C.3     1  UNL1        0.0478
     32 C          -6.4963  -15.1683   27.1215 C.3     1  UNL1        0.1435
     33 O          -6.3470  -14.5632   25.7571 O.3     1  UNL1       -0.3537
     34 C          -7.2062  -15.0439   24.6253 C.3     1  UNL1        0.1435
     35 C          -8.2146  -16.1297   24.8580 C.3     1  UNL1        0.0478
@<TRIPOS>BOND
     1    13    14   ar
     2    14    15   ar
     3    15    16   ar
     4    16    17   ar
     5    17    18   ar
     6    17    19    1
     7    19    20    1
     8    20    21    1
     9    21    12    1
    10    12     1    1
    11     1    24    1
    12    24    25    1
    13    25    26    1
    14    26    27    1
    15    27    28    1
    16    28    30    1
    17    30    31    1
    18    31    32    1
    19    32    33    1
    20    33    34    1
    21    34    35    1
    22     2     1    1
    23     2     3    1
    24     3     4    1
    25     4     5    1
    26     5     6    1
    27     6     7   ar
    28     7     8   ar
    29     8     9   ar
    30     9    10   ar
    31    10    11   ar
    32    21    22    1
    33    18    13   ar
    34    35    30    1
    35    11     2    1
    36    22    16    1
    37    11     6   ar
    38    20    23    1
    39    28    29    1
@<TRIPOS>MOLECULE
*****
 35 39 0 0 0
SMALL
GASTEIGER

@<TRIPOS>ATOM
      1 N          -5.6711  -18.9010   22.1563 N.3     1  UNL1       -0.2679
      2 C          -4.6430  -19.2257   21.1134 C.3     1  UNL1        0.0978
      3 C          -4.8208  -20.4274   20.2335 C.3     1  UNL1        0.0224
      4 C          -3.7927  -20.7521   19.1905 C.3     1  UNL1        0.0065
      5 C          -2.5868  -19.8750   19.0276 C.3     1  UNL1        0.0277
      6 C          -2.4090  -18.6733   19.9075 C.ar    1  UNL1       -0.0073
      7 C          -1.2031  -17.7962   19.7445 C.ar    1  UNL1       -0.0015
      8 C          -1.0253  -16.5945   20.6245 C.ar    1  UNL1        0.0203
      9 C          -2.0534  -16.2699   21.6673 C.ar    1  UNL1        0.0985
     10 N          -3.2592  -17.1469   21.8303 N.ar    1  UNL1       -0.2471
     11 C          -3.4371  -18.3486   20.9504 C.ar    1  UNL1        0.0695
     12 C          -6.6929  -19.9273   22.5473 C.3     1  UNL1        0.0886
     13 C         -13.0304  -17.4481   21.5783 C.ar    1  UNL1       -0.0003
     14 C         -12.0761  -16.7221   20.6772 C.ar    1  UNL1       -0.0003
     15 C         -10.6177  -17.0727   20.6908 C.ar    1  UNL1       -0.0045
     16 C         -10.1136  -18.1494   21.6055 C.ar    1  UNL1       -0.0234
     17 C         -11.0680  -18.8754   22.5066 C.ar    1  UNL1       -0.0103
     18 C         -12.5264  -18.5248   22.4930 C.ar    1  UNL1       -0.0032
     19 C         -10.5640  -19.9522   23.4213 C.3     1  UNL1        0.0953
     20 N          -9.1056  -20.3028   23.4349 N.3     1  UNL1       -0.2934
     21 C          -8.1512  -19.5767   22.5337 C.3     1  UNL1        0.0748
     22 C          -8.6553  -18.5000   21.6190 C.3     1  UNL1        0.0432
     23 H          -9.0385  -21.2927   23.1984 H       1  UNL1        0.1236
     24 C          -5.6774  -17.5501   22.8082 C.3     1  UNL1        0.0725
     25 C          -4.9916  -17.3506   24.1272 C.3     1  UNL1        0.0188
     26 C          -4.8033  -15.9661   24.6728 C.3     1  UNL1        0.0185
     27 C          -5.5884  -14.8221   24.1027 C.3     1  UNL1        0.0686
     28 N          -6.9159  -14.4540   24.6963 N.3     1  UNL1       -0.2984
     29 H          -7.5069  -14.1426   23.9255 H       1  UNL1        0.1232
     30 C          -7.7044  -15.4750   25.4614 C.3     1  UNL1        0.0590
     31 C          -8.6050  -16.4275   24.7323 C.3     1  UNL1        0.0478
     32 C          -9.3937  -17.4487   25.4974 C.3     1  UNL1        0.1435
     33 O          -9.2817  -17.5173   26.9916 O.3     1  UNL1       -0.3537
     34 C          -8.3810  -16.5648   27.7207 C.3     1  UNL1        0.1435
     35 C          -7.5924  -15.5437   26.9556 C.3     1  UNL1        0.0478
@<TRIPOS>BOND
     1    13    14   ar
     2    14    15   ar
     3    15    16   ar
     4    16    17   ar
     5    17    18   ar
     6    17    19    1
     7    19    20    1
     8    20    21    1
     9    21    12    1
    10    12     1    1
    11     1    24    1
    12    24    25    1
    13    25    26    1
    14    26    27    1
    15    27    28    1
    16    28    30    1
    17    30    31    1
    18    31    32    1
    19    32    33    1
    20    33    34    1
    21    34    35    1
    22     2     1    1
    23     2     3    1
    24     3     4    1
    25     4     5    1
    26     5     6    1
    27     6     7   ar
    28     7     8   ar
    29     8     9   ar
    30     9    10   ar
    31    10    11   ar
    32    21    22    1
    33    18    13   ar
    34    35    30    1
    35    11     2    1
    36    22    16    1
    37    11     6   ar
    38    20    23    1
    39    28    29    1
@<TRIPOS>MOLECULE
*****
 35 39 0 0 0
SMALL
GASTEIGER

@<TRIPOS>ATOM
      1 N         -15.3065   -2.7092   19.2250 N.3     1  UNL1       -0.2679
      2 C         -15.9273   -1.3573   19.4173 C.3     1  UNL1        0.0978
      3 C         -15.1286   -0.1187   19.1380 C.3     1  UNL1        0.0224
      4 C         -15.7494    1.2333   19.3303 C.3     1  UNL1        0.0065
      5 C         -17.1688    1.3465   19.8019 C.3     1  UNL1        0.0277
      6 C         -17.9675    0.1079   20.0813 C.ar    1  UNL1       -0.0073
      7 C         -19.3868    0.2212   20.5529 C.ar    1  UNL1       -0.0015
      8 C         -20.1855   -1.0174   20.8322 C.ar    1  UNL1        0.0203
      9 C         -19.5648   -2.3693   20.6399 C.ar    1  UNL1        0.0985
     10 N         -18.1454   -2.4825   20.1683 N.ar    1  UNL1       -0.2471
     11 C         -17.3467   -1.2439   19.8890 C.ar    1  UNL1        0.0695
     12 C         -15.6464   -3.5250   18.0129 C.3     1  UNL1        0.0886
     13 C         -17.1412  -10.1179   19.2576 C.ar    1  UNL1       -0.0003
     14 C         -18.1279   -9.2465   19.9766 C.ar    1  UNL1       -0.0003
     15 C         -18.0263   -7.7537   19.8714 C.ar    1  UNL1       -0.0045
     16 C         -16.9380   -7.1322   19.0473 C.ar    1  UNL1       -0.0234
     17 C         -15.9512   -8.0036   18.3283 C.ar    1  UNL1       -0.0103
     18 C         -16.0528   -9.4964   18.4335 C.ar    1  UNL1       -0.0032
     19 C         -14.8628   -7.3821   17.5042 C.3     1  UNL1        0.0953
     20 N         -14.7612   -5.8893   17.3990 N.3     1  UNL1       -0.2934
     21 C         -15.7480   -5.0179   18.1181 C.3     1  UNL1        0.0748
     22 C         -16.8364   -5.6393   18.9422 C.3     1  UNL1        0.0432
     23 H         -14.8318   -5.6584   16.4080 H       1  UNL1        0.1236
     24 C         -14.3459   -3.2453   20.2447 C.3     1  UNL1        0.0725
     25 C         -12.8776   -2.9707   20.1091 C.3     1  UNL1        0.0188
     26 C         -12.3656   -2.1924   18.9335 C.3     1  UNL1        0.0185
     27 C         -11.0204   -2.5113   18.3513 C.3     1  UNL1        0.0686
     28 N         -10.1487   -3.5457   18.9996 N.3     1  UNL1       -0.2984
     29 H         -10.3611   -3.5265   19.9970 H       1  UNL1        0.1232
     30 C         -10.2362   -4.9789   18.5658 C.3     1  UNL1        0.0590
     31 C         -11.0908   -5.3565   17.3924 C.3     1  UNL1        0.0478
     32 C         -11.1783   -6.7897   16.9585 C.3     1  UNL1        0.1435
     33 O         -10.4111   -7.8454   17.6981 O.3     1  UNL1       -0.3537
     34 C          -9.5563   -7.4677   18.8715 C.3     1  UNL1        0.1435
     35 C          -9.4689   -6.0345   19.3053 C.3     1  UNL1        0.0478
@<TRIPOS>BOND
     1    13    14   ar
     2    14    15   ar
     3    15    16   ar
     4    16    17   ar
     5    17    18   ar
     6    17    19    1
     7    19    20    1
     8    20    21    1
     9    21    12    1
    10    12     1    1
    11     1    24    1
    12    24    25    1
    13    25    26    1
    14    26    27    1
    15    27    28    1
    16    28    30    1
    17    30    31    1
    18    31    32    1
    19    32    33    1
    20    33    34    1
    21    34    35    1
    22     2     1    1
    23     2     3    1
    24     3     4    1
    25     4     5    1
    26     5     6    1
    27     6     7   ar
    28     7     8   ar
    29     8     9   ar
    30     9    10   ar
    31    10    11   ar
    32    21    22    1
    33    18    13   ar
    34    35    30    1
    35    11     2    1
    36    22    16    1
    37    11     6   ar
    38    20    23    1
    39    28    29    1
