@<TRIPOS>MOLECULE
*****
 31 34 0 0 0
SMALL
GASTEIGER

@<TRIPOS>ATOM
      1 C           7.0248   -1.9623   18.3639 C.ar    1  UNL1        0.1518
      2 C           8.3571   -1.9981   19.0521 C.ar    1  UNL1        0.0396
      3 C           8.5162   -2.7510   20.3397 C.ar    1  UNL1        0.0236
      4 C           7.3429   -3.4681   20.9391 C.ar    1  UNL1        0.1291
      5 C           6.0106   -3.4323   20.2509 C.ar    1  UNL1        0.0378
      6 C           5.8516   -2.6794   18.9634 C.ar    1  UNL1        0.0804
      7 S           7.5021   -4.2209   22.2267 S.O2    1  UNL1        0.0860
      8 O           6.0273   -4.4935   22.2497 O.2     1  UNL1       -0.1476
      9 O           8.9770   -3.9483   22.2037 O.2     1  UNL1       -0.1476
     10 N           7.6614   -4.9738   23.5143 N.ar    1  UNL1       -0.2081
     11 C           8.2233   -6.3565   23.6635 C.ar    1  UNL1        0.0956
     12 C           8.1958   -6.7133   25.1201 C.ar    1  UNL1       -0.0014
     13 C           8.6649   -8.0055   25.7204 C.3     1  UNL1        0.0327
     14 C           7.6170   -5.5511   25.8713 C.ar    1  UNL1        0.0159
     15 C           7.3480   -5.3329   27.3307 C.ar    1  UNL1        0.0126
     16 C           6.7487   -4.0396   27.7977 C.ar    1  UNL1        0.0578
     17 CL          6.4796   -3.8213   29.2572 Cl      1  UNL1       -0.0822
     18 C           6.4183   -2.9645   26.8052 C.ar    1  UNL1        0.0129
     19 C           6.6873   -3.1827   25.3458 C.ar    1  UNL1        0.0198
     20 C           7.2866   -4.4760   24.8788 C.ar    1  UNL1        0.0823
     21 C           6.7317    0.2845   17.0928 C.3     1  UNL1        0.2525
     22 O           6.8656   -1.2095   17.0764 O.3     1  UNL1       -0.4702
     23 N           4.5192   -2.6437   18.2752 N.pl3   1  UNL1       -0.3316
     24 H           4.3157   -3.2918   17.5627 H       1  UNL1        0.1469
     25 C           3.4971   -1.6203   18.6725 C.3     1  UNL1        0.0719
     26 C           3.2748   -0.4099   17.8148 C.3     1  UNL1        0.0368
     27 C           2.2526    0.6135   18.2122 C.3     1  UNL1        0.0738
     28 N           1.4528    0.4264   19.4673 N.3     1  UNL1       -0.2714
     29 C           0.4306    1.4498   19.8647 C.3     1  UNL1        0.0896
     30 C           1.6751   -0.7838   20.3250 C.3     1  UNL1        0.0738
     31 C           2.6973   -1.8072   19.9277 C.3     1  UNL1        0.0368
@<TRIPOS>BOND
     1    21    22    1
     2    22     1    1
     3     1     2   ar
     4     2     3   ar
     5     3     4   ar
     6     4     7    1
     7     7     8    2
     8     7     9    2
     9     7    10    1
    10    10    11   ar
    11    11    12   ar
    12    12    13    1
    13    12    14   ar
    14    14    15   ar
    15    15    16   ar
    16    16    17    1
    17    16    18   ar
    18    18    19   ar
    19    19    20   ar
    20     4     5   ar
    21     5     6   ar
    22     6    23    1
    23    23    25    1
    24    25    26    1
    25    26    27    1
    26    27    28    1
    27    28    29    1
    28    28    30    1
    29    30    31    1
    30     6     1   ar
    31    31    25    1
    32    20    10   ar
    33    20    14   ar
    34    23    24    1
@<TRIPOS>MOLECULE
*****
 31 34 0 0 0
SMALL
GASTEIGER

@<TRIPOS>ATOM
      1 C           6.7088   -1.7863   18.5596 C.ar    1  UNL1        0.1518
      2 C           8.0216   -1.8476   19.2825 C.ar    1  UNL1        0.0396
      3 C           8.0809   -2.3721   20.6866 C.ar    1  UNL1        0.0236
      4 C           6.8273   -2.8352   21.3678 C.ar    1  UNL1        0.1291
      5 C           5.5144   -2.7738   20.6449 C.ar    1  UNL1        0.0378
      6 C           5.4551   -2.2494   19.2409 C.ar    1  UNL1        0.0804
      7 S           6.8866   -3.3596   22.7719 S.O2    1  UNL1        0.0860
      8 O           8.0943   -2.5108   23.0380 O.2     1  UNL1       -0.1476
      9 O           5.6789   -4.2085   22.5058 O.2     1  UNL1       -0.1476
     10 N           6.9459   -3.8841   24.1760 N.ar    1  UNL1       -0.2081
     11 C           6.4363   -3.1841   25.4009 C.ar    1  UNL1        0.0956
     12 C           6.7007   -4.0681   26.5835 C.ar    1  UNL1       -0.0014
     13 C           6.3531   -3.7599   28.0098 C.3     1  UNL1        0.0327
     14 C           7.3736   -5.3144   26.0896 C.ar    1  UNL1        0.0159
     15 C           7.8679   -6.5381   26.8025 C.ar    1  UNL1        0.0126
     16 C           8.5138   -7.6480   26.0274 C.ar    1  UNL1        0.0578
     17 CL          9.0081   -8.8718   26.7402 Cl      1  UNL1       -0.0822
     18 C           8.6653   -7.5343   24.5394 C.ar    1  UNL1        0.0129
     19 C           8.1710   -6.3106   23.8265 C.ar    1  UNL1        0.0198
     20 C           7.5252   -5.2007   24.6016 C.ar    1  UNL1        0.0823
     21 C           6.6269    0.2174   16.9078 C.3     1  UNL1        0.2525
     22 O           6.6494   -1.2618   17.1556 O.3     1  UNL1       -0.4702
     23 N           4.1423   -2.1880   18.5180 N.pl3   1  UNL1       -0.3316
     24 H           3.9356   -2.8466   17.8160 H       1  UNL1        0.1469
     25 C           3.1444   -1.1231   18.8646 C.3     1  UNL1        0.0719
     26 C           2.2044   -1.3224   20.0166 C.3     1  UNL1        0.0368
     27 C           1.2065   -0.2574   20.3631 C.3     1  UNL1        0.0738
     28 N           1.1485    1.0067   19.5578 N.3     1  UNL1       -0.2714
     29 C           0.1505    2.0717   19.9043 C.3     1  UNL1        0.0896
     30 C           2.0884    1.2060   18.4059 C.3     1  UNL1        0.0738
     31 C           3.0863    0.1411   18.0593 C.3     1  UNL1        0.0368
@<TRIPOS>BOND
     1    21    22    1
     2    22     1    1
     3     1     2   ar
     4     2     3   ar
     5     3     4   ar
     6     4     7    1
     7     7     8    2
     8     7     9    2
     9     7    10    1
    10    10    11   ar
    11    11    12   ar
    12    12    13    1
    13    12    14   ar
    14    14    15   ar
    15    15    16   ar
    16    16    17    1
    17    16    18   ar
    18    18    19   ar
    19    19    20   ar
    20     4     5   ar
    21     5     6   ar
    22     6    23    1
    23    23    25    1
    24    25    26    1
    25    26    27    1
    26    27    28    1
    27    28    29    1
    28    28    30    1
    29    30    31    1
    30     6     1   ar
    31    31    25    1
    32    20    10   ar
    33    20    14   ar
    34    23    24    1
@<TRIPOS>MOLECULE
*****
 31 34 0 0 0
SMALL
GASTEIGER

@<TRIPOS>ATOM
      1 C           7.6984   -7.4776   25.9630 C.ar    1  UNL1        0.1518
      2 C           8.5337   -7.7161   24.7402 C.ar    1  UNL1        0.0396
      3 C           8.5804   -6.6856   23.6512 C.ar    1  UNL1        0.0236
      4 C           7.7917   -5.4167   23.7850 C.ar    1  UNL1        0.1291
      5 C           6.9564   -5.1783   25.0078 C.ar    1  UNL1        0.0378
      6 C           6.9098   -6.2087   26.0968 C.ar    1  UNL1        0.0804
      7 S           7.8385   -4.3863   22.6959 S.O2    1  UNL1        0.0860
      8 O           7.5612   -3.3095   23.7027 O.2     1  UNL1       -0.1476
      9 O           8.1157   -5.4631   21.6891 O.2     1  UNL1       -0.1476
     10 N           7.8852   -3.3559   21.6068 N.ar    1  UNL1       -0.2081
     11 C           9.0508   -2.4699   21.2807 C.ar    1  UNL1        0.0956
     12 C           8.6605   -1.5971   20.1249 C.ar    1  UNL1       -0.0014
     13 C           9.5251   -0.5598   19.4720 C.3     1  UNL1        0.0327
     14 C           7.2537   -1.9437   19.7366 C.ar    1  UNL1        0.0159
     15 C           6.3471   -1.4099   18.6675 C.ar    1  UNL1        0.0126
     16 C           4.9613   -1.9632   18.5142 C.ar    1  UNL1        0.0578
     17 CL          4.0546   -1.4295   17.4450 Cl      1  UNL1       -0.0822
     18 C           4.4822   -3.0502   19.4300 C.ar    1  UNL1        0.0129
     19 C           5.3887   -3.5840   20.4992 C.ar    1  UNL1        0.0198
     20 C           6.7745   -3.0307   20.6525 C.ar    1  UNL1        0.0823
     21 C           8.9254   -9.0070   27.6676 C.3     1  UNL1        0.2525
     22 O           7.6517   -8.5080   27.0521 O.3     1  UNL1       -0.4702
     23 N           6.0745   -5.9702   27.3197 N.pl3   1  UNL1       -0.3316
     24 H           5.1466   -6.2976   27.3535 H       1  UNL1        0.1469
     25 C           6.6528   -5.2330   28.4909 C.3     1  UNL1        0.0719
     26 C           6.5385   -3.7392   28.5677 C.3     1  UNL1        0.0368
     27 C           7.1169   -3.0020   29.7391 C.3     1  UNL1        0.0738
     28 N           7.8096   -3.7585   30.8335 N.3     1  UNL1       -0.2714
     29 C           8.3881   -3.0212   32.0049 C.3     1  UNL1        0.0896
     30 C           7.9240   -5.2521   30.7567 C.3     1  UNL1        0.0738
     31 C           7.3456   -5.9894   29.5855 C.3     1  UNL1        0.0368
@<TRIPOS>BOND
     1    21    22    1
     2    22     1    1
     3     1     2   ar
     4     2     3   ar
     5     3     4   ar
     6     4     7    1
     7     7     8    2
     8     7     9    2
     9     7    10    1
    10    10    11   ar
    11    11    12   ar
    12    12    13    1
    13    12    14   ar
    14    14    15   ar
    15    15    16   ar
    16    16    17    1
    17    16    18   ar
    18    18    19   ar
    19    19    20   ar
    20     4     5   ar
    21     5     6   ar
    22     6    23    1
    23    23    25    1
    24    25    26    1
    25    26    27    1
    26    27    28    1
    27    28    29    1
    28    28    30    1
    29    30    31    1
    30     6     1   ar
    31    31    25    1
    32    20    10   ar
    33    20    14   ar
    34    23    24    1
@<TRIPOS>MOLECULE
*****
 31 34 0 0 0
SMALL
GASTEIGER

@<TRIPOS>ATOM
      1 C           3.9967   -0.9456   18.2844 C.ar    1  UNL1        0.1518
      2 C           3.7477    0.5029   17.9849 C.ar    1  UNL1        0.0396
      3 C           2.7618    1.2799   18.8060 C.ar    1  UNL1        0.0236
      4 C           2.0249    0.6083   19.9267 C.ar    1  UNL1        0.1291
      5 C           2.2739   -0.8402   20.2262 C.ar    1  UNL1        0.0378
      6 C           3.2597   -1.6172   19.4051 C.ar    1  UNL1        0.0804
      7 S           1.0390    1.3854   20.7478 S.O2    1  UNL1        0.0860
      8 O           0.0480    0.2671   20.6164 O.2     1  UNL1       -0.1476
      9 O           2.0300    2.5037   20.8792 O.2     1  UNL1       -0.1476
     10 N           0.0531    2.1625   21.5689 N.ar    1  UNL1       -0.2081
     11 C          -0.9335    3.1645   21.0468 C.ar    1  UNL1        0.0956
     12 C          -1.7155    3.6953   22.2115 C.ar    1  UNL1       -0.0014
     13 C          -2.8089    4.7201   22.1458 C.3     1  UNL1        0.0327
     14 C          -1.2122    3.0214   23.4535 C.ar    1  UNL1        0.0159
     15 C          -1.6081    3.1480   24.8948 C.ar    1  UNL1        0.0126
     16 C          -0.9108    2.3272   25.9389 C.ar    1  UNL1        0.0578
     17 CL         -1.3067    2.4538   27.3802 Cl      1  UNL1       -0.0822
     18 C           0.1823    1.3799   25.5417 C.ar    1  UNL1        0.0129
     19 C           0.5781    1.2533   24.1005 C.ar    1  UNL1        0.0198
     20 C          -0.1191    2.0741   23.0564 C.ar    1  UNL1        0.0823
     21 C           6.4504   -1.4397   17.5878 C.3     1  UNL1        0.2525
     22 O           4.9825   -1.7227   17.4633 O.3     1  UNL1       -0.4702
     23 N           3.5087   -3.0657   19.7047 N.pl3   1  UNL1       -0.3316
     24 H           2.9408   -3.7577   19.2950 H       1  UNL1        0.1469
     25 C           4.6229   -3.4598   20.6284 C.3     1  UNL1        0.0719
     26 C           5.9412   -3.9036   20.0668 C.3     1  UNL1        0.0368
     27 C           7.0554   -4.2977   20.9906 C.3     1  UNL1        0.0738
     28 N           6.8513   -4.2480   22.4757 N.3     1  UNL1       -0.2714
     29 C           7.9656   -4.6420   23.3995 C.3     1  UNL1        0.0896
     30 C           5.5332   -3.8041   23.0373 C.3     1  UNL1        0.0738
     31 C           4.4189   -3.4100   22.1136 C.3     1  UNL1        0.0368
@<TRIPOS>BOND
     1    21    22    1
     2    22     1    1
     3     1     2   ar
     4     2     3   ar
     5     3     4   ar
     6     4     7    1
     7     7     8    2
     8     7     9    2
     9     7    10    1
    10    10    11   ar
    11    11    12   ar
    12    12    13    1
    13    12    14   ar
    14    14    15   ar
    15    15    16   ar
    16    16    17    1
    17    16    18   ar
    18    18    19   ar
    19    19    20   ar
    20     4     5   ar
    21     5     6   ar
    22     6    23    1
    23    23    25    1
    24    25    26    1
    25    26    27    1
    26    27    28    1
    27    28    29    1
    28    28    30    1
    29    30    31    1
    30     6     1   ar
    31    31    25    1
    32    20    10   ar
    33    20    14   ar
    34    23    24    1
@<TRIPOS>MOLECULE
*****
 31 34 0 0 0
SMALL
GASTEIGER

@<TRIPOS>ATOM
      1 C           3.2413    2.6537   18.5407 C.ar    1  UNL1        0.1518
      2 C           2.7957    4.0119   18.9953 C.ar    1  UNL1        0.0396
      3 C           1.3989    4.2116   19.5042 C.ar    1  UNL1        0.0236
      4 C           0.4477    3.0531   19.5585 C.ar    1  UNL1        0.1291
      5 C           0.8933    1.6949   19.1039 C.ar    1  UNL1        0.0378
      6 C           2.2900    1.4952   18.5950 C.ar    1  UNL1        0.0804
      7 S          -0.9492    3.2529   20.0675 S.O2    1  UNL1        0.0860
      8 O          -0.9968    1.8176   20.5005 O.2     1  UNL1       -0.1476
      9 O          -0.9016    4.6882   19.6345 O.2     1  UNL1       -0.1476
     10 N          -2.3460    3.4528   20.5764 N.ar    1  UNL1       -0.2081
     11 C          -3.5833    3.5632   19.7357 C.ar    1  UNL1        0.0956
     12 C          -4.7527    3.7560   20.6552 C.ar    1  UNL1       -0.0014
     13 C          -6.1852    3.9126   20.2388 C.3     1  UNL1        0.0327
     14 C          -4.2381    3.7647   22.0641 C.ar    1  UNL1        0.0159
     15 C          -4.9318    3.9190   23.3851 C.ar    1  UNL1        0.0126
     16 C          -4.1380    3.8859   24.6574 C.ar    1  UNL1        0.0578
     17 CL         -4.8316    4.0403   25.9784 Cl      1  UNL1       -0.0822
     18 C          -2.6505    3.6985   24.6087 C.ar    1  UNL1        0.0129
     19 C          -1.9569    3.5442   23.2878 C.ar    1  UNL1        0.0198
     20 C          -2.7506    3.5773   22.0155 C.ar    1  UNL1        0.0823
     21 C           5.7136    1.9749   18.9612 C.3     1  UNL1        0.2525
     22 O           4.6380    2.4539   18.0317 O.3     1  UNL1       -0.4702
     23 N           2.7356    0.1370   18.1404 N.pl3   1  UNL1       -0.3316
     24 H           2.6915   -0.1018   17.1864 H       1  UNL1        0.1469
     25 C           3.2484   -0.8574   19.1395 C.3     1  UNL1        0.0719
     26 C           3.9298   -2.1088   18.6704 C.3     1  UNL1        0.0368
     27 C           4.4426   -3.1032   19.6695 C.3     1  UNL1        0.0738
     28 N           4.2740   -2.8463   21.1376 N.3     1  UNL1       -0.2714
     29 C           4.7869   -3.8407   22.1368 C.3     1  UNL1        0.0896
     30 C           3.5927   -1.5950   21.6068 C.3     1  UNL1        0.0738
     31 C           3.0799   -0.6006   20.6077 C.3     1  UNL1        0.0368
@<TRIPOS>BOND
     1    21    22    1
     2    22     1    1
     3     1     2   ar
     4     2     3   ar
     5     3     4   ar
     6     4     7    1
     7     7     8    2
     8     7     9    2
     9     7    10    1
    10    10    11   ar
    11    11    12   ar
    12    12    13    1
    13    12    14   ar
    14    14    15   ar
    15    15    16   ar
    16    16    17    1
    17    16    18   ar
    18    18    19   ar
    19    19    20   ar
    20     4     5   ar
    21     5     6   ar
    22     6    23    1
    23    23    25    1
    24    25    26    1
    25    26    27    1
    26    27    28    1
    27    28    29    1
    28    28    30    1
    29    30    31    1
    30     6     1   ar
    31    31    25    1
    32    20    10   ar
    33    20    14   ar
    34    23    24    1
@<TRIPOS>MOLECULE
*****
 31 34 0 0 0
SMALL
GASTEIGER

@<TRIPOS>ATOM
      1 C           8.6260   -5.6216   24.7237 C.ar    1  UNL1        0.1518
      2 C           9.4264   -5.3606   23.4823 C.ar    1  UNL1        0.0396
      3 C           8.8684   -4.4841   22.4005 C.ar    1  UNL1        0.0236
      4 C           7.5098   -3.8686   22.5601 C.ar    1  UNL1        0.1291
      5 C           6.7094   -4.1296   23.8015 C.ar    1  UNL1        0.0378
      6 C           7.2674   -5.0060   24.8833 C.ar    1  UNL1        0.0804
      7 S           6.9518   -2.9921   21.4782 S.O2    1  UNL1        0.0860
      8 O           7.4368   -1.7772   22.2122 O.2     1  UNL1       -0.1476
      9 O           6.4668   -4.2070   20.7442 O.2     1  UNL1       -0.1476
     10 N           6.3938   -2.1156   20.3964 N.ar    1  UNL1       -0.2081
     11 C           7.1561   -1.5621   19.2292 C.ar    1  UNL1        0.0956
     12 C           6.2089   -0.7432   18.4032 C.ar    1  UNL1       -0.0014
     13 C           6.5496   -0.0063   17.1419 C.3     1  UNL1        0.0327
     14 C           4.8611   -0.7907   19.0599 C.ar    1  UNL1        0.0159
     15 C           3.5446   -0.1712   18.6954 C.ar    1  UNL1        0.0126
     16 C           2.3424   -0.3999   19.5627 C.ar    1  UNL1        0.0578
     17 CL          1.0258    0.2197   19.1981 Cl      1  UNL1       -0.0822
     18 C           2.4566   -1.2481   20.7945 C.ar    1  UNL1        0.0129
     19 C           3.7731   -1.8676   21.1591 C.ar    1  UNL1        0.0198
     20 C           4.9754   -1.6389   20.2918 C.ar    1  UNL1        0.0823
     21 C           8.8855   -7.9682   25.8083 C.3     1  UNL1        0.2525
     22 O           9.1839   -6.4981   25.8055 O.3     1  UNL1       -0.4702
     23 N           6.4670   -5.2670   26.1247 N.pl3   1  UNL1       -0.3316
     24 H           5.7120   -5.8985   26.1000 H       1  UNL1        0.1469
     25 C           6.8167   -4.5659   27.4038 C.3     1  UNL1        0.0719
     26 C           6.5069   -5.2114   28.7219 C.3     1  UNL1        0.0368
     27 C           6.8566   -4.5102   30.0011 C.3     1  UNL1        0.0738
     28 N           7.5162   -3.1636   29.9620 N.3     1  UNL1       -0.2714
     29 C           7.8660   -2.4623   31.2411 C.3     1  UNL1        0.0896
     30 C           7.8260   -2.5181   28.6439 C.3     1  UNL1        0.0738
     31 C           7.4763   -3.2192   27.3648 C.3     1  UNL1        0.0368
@<TRIPOS>BOND
     1    21    22    1
     2    22     1    1
     3     1     2   ar
     4     2     3   ar
     5     3     4   ar
     6     4     7    1
     7     7     8    2
     8     7     9    2
     9     7    10    1
    10    10    11   ar
    11    11    12   ar
    12    12    13    1
    13    12    14   ar
    14    14    15   ar
    15    15    16   ar
    16    16    17    1
    17    16    18   ar
    18    18    19   ar
    19    19    20   ar
    20     4     5   ar
    21     5     6   ar
    22     6    23    1
    23    23    25    1
    24    25    26    1
    25    26    27    1
    26    27    28    1
    27    28    29    1
    28    28    30    1
    29    30    31    1
    30     6     1   ar
    31    31    25    1
    32    20    10   ar
    33    20    14   ar
    34    23    24    1
@<TRIPOS>MOLECULE
*****
 31 34 0 0 0
SMALL
GASTEIGER

@<TRIPOS>ATOM
      1 C           6.8850   -3.3732   31.4274 C.ar    1  UNL1        0.1518
      2 C           5.8534   -3.1863   32.5001 C.ar    1  UNL1        0.0396
      3 C           4.7762   -2.1558   32.3334 C.ar    1  UNL1        0.0236
      4 C           4.7306   -1.3123   31.0939 C.ar    1  UNL1        0.1291
      5 C           5.7622   -1.4992   30.0211 C.ar    1  UNL1        0.0378
      6 C           6.8393   -2.5296   30.1878 C.ar    1  UNL1        0.0804
      7 S           3.6533   -0.2818   30.9272 S.O2    1  UNL1        0.0860
      8 O           2.6258   -1.2864   31.3570 O.2     1  UNL1       -0.1476
      9 O           4.6809    0.7228   30.4974 O.2     1  UNL1       -0.1476
     10 N           2.5761    0.7487   30.7605 N.ar    1  UNL1       -0.2081
     11 C           2.0599    1.6654   31.8297 C.ar    1  UNL1        0.0956
     12 C           0.9908    2.5266   31.2253 C.ar    1  UNL1       -0.0014
     13 C           0.2043    3.5863   31.9384 C.3     1  UNL1        0.0327
     14 C           0.8463    2.1422   29.7826 C.ar    1  UNL1        0.0159
     15 C          -0.0509    2.6507   28.6934 C.ar    1  UNL1        0.0126
     16 C           0.0317    2.0604   27.3170 C.ar    1  UNL1        0.0578
     17 CL         -0.8655    2.5689   26.2277 Cl      1  UNL1       -0.0822
     18 C           1.0115    0.9615   27.0297 C.ar    1  UNL1        0.0129
     19 C           1.9087    0.4530   28.1189 C.ar    1  UNL1        0.0198
     20 C           1.8261    1.0433   29.4954 C.ar    1  UNL1        0.0823
     21 C           7.6568   -5.8530   31.3569 C.3     1  UNL1        0.2525
     22 O           7.9622   -4.4036   31.5940 O.3     1  UNL1       -0.4702
     23 N           7.8709   -2.7165   29.1151 N.pl3   1  UNL1       -0.3316
     24 H           8.5585   -2.0275   28.9679 H       1  UNL1        0.1469
     25 C           7.8549   -3.9533   28.2665 C.3     1  UNL1        0.0719
     26 C           9.1424   -4.5293   27.7558 C.3     1  UNL1        0.0368
     27 C           9.1263   -5.7661   26.9072 C.3     1  UNL1        0.0738
     28 N           7.8229   -6.4269   26.5694 N.3     1  UNL1       -0.2714
     29 C           7.8068   -7.6638   25.7208 C.3     1  UNL1        0.0896
     30 C           6.5354   -5.8510   27.0801 C.3     1  UNL1        0.0738
     31 C           6.5514   -4.6142   27.9286 C.3     1  UNL1        0.0368
@<TRIPOS>BOND
     1    21    22    1
     2    22     1    1
     3     1     2   ar
     4     2     3   ar
     5     3     4   ar
     6     4     7    1
     7     7     8    2
     8     7     9    2
     9     7    10    1
    10    10    11   ar
    11    11    12   ar
    12    12    13    1
    13    12    14   ar
    14    14    15   ar
    15    15    16   ar
    16    16    17    1
    17    16    18   ar
    18    18    19   ar
    19    19    20   ar
    20     4     5   ar
    21     5     6   ar
    22     6    23    1
    23    23    25    1
    24    25    26    1
    25    26    27    1
    26    27    28    1
    27    28    29    1
    28    28    30    1
    29    30    31    1
    30     6     1   ar
    31    31    25    1
    32    20    10   ar
    33    20    14   ar
    34    23    24    1
@<TRIPOS>MOLECULE
*****
 31 34 0 0 0
SMALL
GASTEIGER

@<TRIPOS>ATOM
      1 C           3.0537    2.9112   18.7967 C.ar    1  UNL1        0.1518
      2 C           2.9600    4.1494   19.6382 C.ar    1  UNL1        0.0396
      3 C           1.8747    4.2776   20.6657 C.ar    1  UNL1        0.0236
      4 C           0.8831    3.1676   20.8517 C.ar    1  UNL1        0.1291
      5 C           0.9768    1.9294   20.0102 C.ar    1  UNL1        0.0378
      6 C           2.0620    1.8012   18.9827 C.ar    1  UNL1        0.0804
      7 S          -0.2021    3.2959   21.8793 S.O2    1  UNL1        0.0860
      8 O           0.1553    4.7391   22.0767 O.2     1  UNL1       -0.1476
      9 O          -0.5596    1.8525   21.6818 O.2     1  UNL1       -0.1476
     10 N          -1.2874    3.4240   22.9068 N.ar    1  UNL1       -0.2081
     11 C          -1.0994    3.4046   24.3948 C.ar    1  UNL1        0.0956
     12 C          -2.4470    3.5627   25.0343 C.ar    1  UNL1       -0.0014
     13 C          -2.7250    3.5975   26.5079 C.3     1  UNL1        0.0327
     14 C          -3.4678    3.6799   23.9415 C.ar    1  UNL1        0.0159
     15 C          -4.9574    3.8535   23.9739 C.ar    1  UNL1        0.0126
     16 C          -5.7302    3.9415   22.6913 C.ar    1  UNL1        0.0578
     17 CL         -7.2198    4.1151   22.7237 Cl      1  UNL1       -0.0822
     18 C          -5.0135    3.8558   21.3764 C.ar    1  UNL1        0.0129
     19 C          -3.5240    3.6821   21.3441 C.ar    1  UNL1        0.0198
     20 C          -2.7511    3.5942   22.6266 C.ar    1  UNL1        0.0823
     21 C           5.5670    2.6302   18.2017 C.3     1  UNL1        0.2525
     22 O           4.1388    2.7830   17.7691 O.3     1  UNL1       -0.4702
     23 N           2.1556    0.5631   18.1412 N.pl3   1  UNL1       -0.3316
     24 H           1.6292    0.4901   17.3125 H       1  UNL1        0.1469
     25 C           3.0514   -0.5640   18.5624 C.3     1  UNL1        0.0719
     26 C           4.2344   -0.9371   17.7189 C.3     1  UNL1        0.0368
     27 C           5.1302   -2.0642   18.1401 C.3     1  UNL1        0.0738
     28 N           4.8430   -2.8180   19.4046 N.3     1  UNL1       -0.2714
     29 C           5.7388   -3.9451   19.8258 C.3     1  UNL1        0.0896
     30 C           3.6601   -2.4449   20.2481 C.3     1  UNL1        0.0738
     31 C           2.7643   -1.3179   19.8269 C.3     1  UNL1        0.0368
@<TRIPOS>BOND
     1    21    22    1
     2    22     1    1
     3     1     2   ar
     4     2     3   ar
     5     3     4   ar
     6     4     7    1
     7     7     8    2
     8     7     9    2
     9     7    10    1
    10    10    11   ar
    11    11    12   ar
    12    12    13    1
    13    12    14   ar
    14    14    15   ar
    15    15    16   ar
    16    16    17    1
    17    16    18   ar
    18    18    19   ar
    19    19    20   ar
    20     4     5   ar
    21     5     6   ar
    22     6    23    1
    23    23    25    1
    24    25    26    1
    25    26    27    1
    26    27    28    1
    27    28    29    1
    28    28    30    1
    29    30    31    1
    30     6     1   ar
    31    31    25    1
    32    20    10   ar
    33    20    14   ar
    34    23    24    1
@<TRIPOS>MOLECULE
*****
 31 34 0 0 0
SMALL
GASTEIGER

@<TRIPOS>ATOM
      1 C           2.4348    2.2189   34.1015 C.ar    1  UNL1        0.1518
      2 C           3.6296    1.6248   34.7866 C.ar    1  UNL1        0.0396
      3 C           4.4026    0.5226   34.1249 C.ar    1  UNL1        0.0236
      4 C           3.9807    0.0145   32.7782 C.ar    1  UNL1        0.1291
      5 C           2.7859    0.6086   32.0930 C.ar    1  UNL1        0.0378
      6 C           2.0130    1.7107   32.7546 C.ar    1  UNL1        0.0804
      7 S           4.7537   -1.0877   32.1166 S.O2    1  UNL1        0.0860
      8 O           3.5502   -1.9794   32.1958 O.2     1  UNL1       -0.1476
      9 O           5.9572   -0.1959   32.0373 O.2     1  UNL1       -0.1476
     10 N           5.5268   -2.1898   31.4550 N.ar    1  UNL1       -0.2081
     11 C           6.1765   -3.3504   32.1485 C.ar    1  UNL1        0.0956
     12 C           6.8371   -4.2026   31.1058 C.ar    1  UNL1       -0.0014
     13 C           7.6044   -5.4668   31.3569 C.3     1  UNL1        0.0327
     14 C           6.5957   -3.5688   29.7679 C.ar    1  UNL1        0.0159
     15 C           7.0087   -3.9637   28.3810 C.ar    1  UNL1        0.0126
     16 C           6.6118   -3.1146   27.2099 C.ar    1  UNL1        0.0578
     17 CL          7.0248   -3.5095   25.8230 Cl      1  UNL1       -0.0822
     18 C           5.8020   -1.8706   27.4257 C.ar    1  UNL1        0.0129
     19 C           5.3890   -1.4757   28.8126 C.ar    1  UNL1        0.0198
     20 C           5.7859   -2.3248   29.9837 C.ar    1  UNL1        0.0823
     21 C           2.0360    3.7761   36.1425 C.3     1  UNL1        0.2525
     22 O           1.6618    3.3210   34.7630 O.3     1  UNL1       -0.4702
     23 N           0.8181    2.3048   32.0695 N.pl3   1  UNL1       -0.3316
     24 H           0.1708    2.8391   32.5840 H       1  UNL1        0.1469
     25 C           0.6096    2.0849   30.6005 C.3     1  UNL1        0.0719
     26 C           1.2838    2.9816   29.6047 C.3     1  UNL1        0.0368
     27 C           1.0753    2.7616   28.1355 C.3     1  UNL1        0.0738
     28 N           0.1926    1.6450   27.6623 N.3     1  UNL1       -0.2714
     29 C          -0.0160    1.4250   26.1932 C.3     1  UNL1        0.0896
     30 C          -0.4816    0.7484   28.6581 C.3     1  UNL1        0.0738
     31 C          -0.2731    0.9683   30.1271 C.3     1  UNL1        0.0368
@<TRIPOS>BOND
     1    21    22    1
     2    22     1    1
     3     1     2   ar
     4     2     3   ar
     5     3     4   ar
     6     4     7    1
     7     7     8    2
     8     7     9    2
     9     7    10    1
    10    10    11   ar
    11    11    12   ar
    12    12    13    1
    13    12    14   ar
    14    14    15   ar
    15    15    16   ar
    16    16    17    1
    17    16    18   ar
    18    18    19   ar
    19    19    20   ar
    20     4     5   ar
    21     5     6   ar
    22     6    23    1
    23    23    25    1
    24    25    26    1
    25    26    27    1
    26    27    28    1
    27    28    29    1
    28    28    30    1
    29    30    31    1
    30     6     1   ar
    31    31    25    1
    32    20    10   ar
    33    20    14   ar
    34    23    24    1
