@<TRIPOS>MOLECULE
*****
 40 44 0 0 0
SMALL
GASTEIGER

@<TRIPOS>ATOM
      1 C           0.9993    1.4596   22.7987 C.ar    1  UNL1        0.0611
      2 C           0.3747    2.3340   23.8452 C.ar    1  UNL1        0.1037
      3 N           0.9616    1.9584   25.1736 N.ar    1  UNL1       -0.2269
      4 C           1.9490    0.8520   24.9480 C.ar    1  UNL1        0.1407
      5 N           2.8298    0.0853   25.8894 N.ar    1  UNL1       -0.3374
      6 C           3.7339   -0.9896   25.3631 C.ar    1  UNL1        0.0735
      7 C           3.7572   -1.2979   23.8953 C.ar    1  UNL1        0.0202
      8 C           2.8763   -0.5313   22.9539 C.ar    1  UNL1        0.0047
      9 C           1.9722    0.5436   23.4802 C.ar    1  UNL1        0.0386
     10 H           2.8145    0.2877   26.8528 H       1  UNL1        0.1674
     11 C           4.6613   -2.3729   23.3690 C.ar    1  UNL1        0.0411
     12 C           4.3419   -3.3273   22.2567 C.ar    1  UNL1        0.1217
     13 N           5.5268   -4.2264   22.0628 N.ar    1  UNL1       -0.1673
     14 N           6.5785   -3.8278   23.0553 N.ar    1  UNL1       -0.2449
     15 C           6.0436   -2.6823   23.8626 C.ar    1  UNL1        0.0970
     16 C           7.9281   -4.4632   23.2129 C.3     1  UNL1        0.1538
     17 C           8.1019   -5.6372   24.1302 C.ar    1  UNL1        0.0021
     18 C           9.0047   -6.7688   23.7372 C.ar    1  UNL1       -0.0023
     19 C           9.1784   -7.9428   24.6545 C.ar    1  UNL1       -0.0003
     20 C           8.4494   -7.9853   25.9647 C.ar    1  UNL1       -0.0000
     21 C           7.5466   -6.8537   26.3577 C.ar    1  UNL1       -0.0003
     22 C           7.3728   -5.6797   25.4404 C.ar    1  UNL1       -0.0023
     23 C           0.7030    1.4949   21.3287 C.2     1  UNL1        0.2015
     24 O          -0.7182    1.4783   20.8494 O.2     1  UNL1       -0.2864
     25 C           3.2502    0.4065   18.4865 C.ar    1  UNL1        0.0920
     26 C           4.0780    1.6506   18.3562 C.ar    1  UNL1        0.0204
     27 C           3.7808    2.8427   19.2167 C.ar    1  UNL1        0.0312
     28 C           2.6558    2.7909   20.2075 C.ar    1  UNL1        0.1454
     29 F           2.3587    3.9831   21.0679 F       1  UNL1       -0.2040
     30 C           1.8280    1.5468   20.3378 C.ar    1  UNL1        0.0951
     31 C           2.1252    0.3546   19.4773 C.ar    1  UNL1        0.1598
     32 F           1.2974   -0.8894   19.6077 F       1  UNL1       -0.2026
     33 N           3.5474   -0.7857   17.6261 N.pl3   1  UNL1       -0.2166
     34 H           2.9607   -1.0026   16.8658 H       1  UNL1        0.1734
     35 S           4.7385   -1.6474   17.9239 S.O2    1  UNL1        0.0540
     36 O           5.5840   -0.7867   17.0326 O.2     1  UNL1       -0.1545
     37 O           3.8930   -2.5080   18.8152 O.2     1  UNL1       -0.1545
     38 C           5.9295   -2.5091   18.2219 C.3     1  UNL1        0.1724
     39 C           6.5750   -1.0125   20.2452 C.3     1  UNL1        0.0019
     40 C           6.7103   -2.2987   19.4853 C.3     1  UNL1        0.0273
@<TRIPOS>BOND
     1    39    40    1
     2    40    38    1
     3    38    35    1
     4    35    36    2
     5    35    37    2
     6    35    33    1
     7    33    25    1
     8    25    26   ar
     9    26    27   ar
    10    27    28   ar
    11    28    29    1
    12    28    30   ar
    13    30    23    1
    14    23    24    2
    15    23     1    1
    16     1     2   ar
    17     2     3   ar
    18     3     4   ar
    19     4     5   ar
    20     5     6   ar
    21     6     7   ar
    22     7    11    1
    23    11    12   ar
    24    12    13   ar
    25    13    14   ar
    26    14    16    1
    27    16    17    1
    28    17    18   ar
    29    18    19   ar
    30    19    20   ar
    31    20    21   ar
    32    21    22   ar
    33    14    15   ar
    34     7     8   ar
    35     8     9   ar
    36    30    31   ar
    37    31    32    1
    38    31    25   ar
    39     9     1   ar
    40     9     4    1
    41    15    11   ar
    42    22    17   ar
    43    33    34    1
    44     5    10    1
@<TRIPOS>MOLECULE
*****
 40 44 0 0 0
SMALL
GASTEIGER

@<TRIPOS>ATOM
      1 C           6.7312   -3.4220   29.9956 C.ar    1  UNL1        0.0611
      2 C           6.7519   -4.2530   31.2442 C.ar    1  UNL1        0.1037
      3 N           6.9783   -5.6815   30.8465 N.ar    1  UNL1       -0.2269
      4 C           7.0977   -5.7334   29.3522 C.ar    1  UNL1        0.1407
      5 N           7.3256   -6.8717   28.4024 N.ar    1  UNL1       -0.3374
      6 C           7.4009   -6.6137   26.9268 C.ar    1  UNL1        0.0735
      7 C           7.2482   -5.2172   26.4008 C.ar    1  UNL1        0.0202
      8 C           7.0202   -4.0788   27.3506 C.ar    1  UNL1        0.0047
      9 C           6.9449   -4.3369   28.8262 C.ar    1  UNL1        0.0386
     10 H           7.4259   -7.7883   28.7476 H       1  UNL1        0.1674
     11 C           7.3235   -4.9592   24.9250 C.ar    1  UNL1        0.0411
     12 C           7.9116   -5.8806   23.8978 C.ar    1  UNL1        0.1217
     13 N           7.7755   -5.2254   22.5553 N.ar    1  UNL1       -0.1673
     14 N           7.1032   -3.8990   22.7529 N.ar    1  UNL1       -0.2449
     15 C           6.8239   -3.7346   24.2175 C.ar    1  UNL1        0.0970
     16 C           6.7690   -2.9107   21.6752 C.3     1  UNL1        0.1538
     17 C           5.5900   -3.1485   20.7789 C.ar    1  UNL1        0.0021
     18 C           4.4368   -2.1892   20.7862 C.ar    1  UNL1       -0.0023
     19 C           3.2578   -2.4270   19.8900 C.ar    1  UNL1       -0.0003
     20 C           3.2319   -3.6241   18.9864 C.ar    1  UNL1       -0.0000
     21 C           4.3850   -4.5834   18.9791 C.ar    1  UNL1       -0.0003
     22 C           5.5640   -4.3456   19.8754 C.ar    1  UNL1       -0.0023
     23 C           6.5319   -1.9368   29.9281 C.2     1  UNL1        0.2015
     24 O           7.6874   -1.0392   29.5982 O.2     1  UNL1       -0.2864
     25 C           2.8416   -0.6054   29.3282 C.ar    1  UNL1        0.0920
     26 C           2.4669   -0.1742   30.7151 C.ar    1  UNL1        0.0204
     27 C           3.4472   -0.3305   31.8397 C.ar    1  UNL1        0.0312
     28 C           4.8021   -0.9180   31.5774 C.ar    1  UNL1        0.1454
     29 F           5.7824   -1.0743   32.7020 F       1  UNL1       -0.2040
     30 C           5.1768   -1.3493   30.1904 C.ar    1  UNL1        0.0951
     31 C           4.1966   -1.1930   29.0659 C.ar    1  UNL1        0.1598
     32 F           4.5714   -1.6242   27.6789 F       1  UNL1       -0.2026
     33 N           1.8614   -0.4491   28.2036 N.pl3   1  UNL1       -0.2166
     34 H           1.8335   -1.1149   27.4788 H       1  UNL1        0.1734
     35 S           0.9237    0.7215   28.1833 S.O2    1  UNL1        0.0540
     36 O           2.0642    1.6288   27.8283 O.2     1  UNL1       -0.1545
     37 O          -0.2167   -0.1859   28.5383 O.2     1  UNL1       -0.1545
     38 C          -0.0140    1.8920   28.1630 C.3     1  UNL1        0.1724
     39 C          -0.5222    1.8010   25.6167 C.3     1  UNL1        0.0019
     40 C          -0.9731    2.0650   27.0227 C.3     1  UNL1        0.0273
@<TRIPOS>BOND
     1    39    40    1
     2    40    38    1
     3    38    35    1
     4    35    36    2
     5    35    37    2
     6    35    33    1
     7    33    25    1
     8    25    26   ar
     9    26    27   ar
    10    27    28   ar
    11    28    29    1
    12    28    30   ar
    13    30    23    1
    14    23    24    2
    15    23     1    1
    16     1     2   ar
    17     2     3   ar
    18     3     4   ar
    19     4     5   ar
    20     5     6   ar
    21     6     7   ar
    22     7    11    1
    23    11    12   ar
    24    12    13   ar
    25    13    14   ar
    26    14    16    1
    27    16    17    1
    28    17    18   ar
    29    18    19   ar
    30    19    20   ar
    31    20    21   ar
    32    21    22   ar
    33    14    15   ar
    34     7     8   ar
    35     8     9   ar
    36    30    31   ar
    37    31    32    1
    38    31    25   ar
    39     9     1   ar
    40     9     4    1
    41    15    11   ar
    42    22    17   ar
    43    33    34    1
    44     5    10    1
@<TRIPOS>MOLECULE
*****
 40 44 0 0 0
SMALL
GASTEIGER

@<TRIPOS>ATOM
      1 C           4.8802   -3.2425   22.4902 C.ar    1  UNL1        0.0611
      2 C           5.9045   -3.8769   23.3836 C.ar    1  UNL1        0.1037
      3 N           5.9086   -3.1323   24.6857 N.ar    1  UNL1       -0.2269
      4 C           4.8868   -2.0377   24.5970 C.ar    1  UNL1        0.1407
      5 N           4.4531   -0.9877   25.5765 N.ar    1  UNL1       -0.3374
      6 C           3.3837   -0.0059   25.1990 C.ar    1  UNL1        0.0735
      7 C           2.7482   -0.0741   23.8420 C.ar    1  UNL1        0.0202
      8 C           3.1819   -1.1240   22.8625 C.ar    1  UNL1        0.0047
      9 C           4.2512   -2.1058   23.2400 C.ar    1  UNL1        0.0386
     10 H           4.8702   -0.9430   26.4671 H       1  UNL1        0.1674
     11 C           1.6788    0.9078   23.4645 C.ar    1  UNL1        0.0411
     12 C           0.8984    0.9124   22.1835 C.ar    1  UNL1        0.1217
     13 N          -0.0606    2.0649   22.2290 N.ar    1  UNL1       -0.1673
     14 N           0.1270    2.7726   23.5382 N.ar    1  UNL1       -0.2449
     15 C           1.2020    2.0575   24.3018 C.ar    1  UNL1        0.0970
     16 C          -0.6278    3.9829   24.0024 C.3     1  UNL1        0.1538
     17 C          -2.0661    3.8591   24.4098 C.ar    1  UNL1        0.0021
     18 C          -3.1219    3.6207   23.3714 C.ar    1  UNL1       -0.0023
     19 C          -4.5602    3.4969   23.7788 C.ar    1  UNL1       -0.0003
     20 C          -4.9426    3.6116   25.2248 C.ar    1  UNL1       -0.0000
     21 C          -3.8868    3.8500   26.2632 C.ar    1  UNL1       -0.0003
     22 C          -2.4485    3.9738   25.8557 C.ar    1  UNL1       -0.0023
     23 C           4.5438   -3.6698   21.0922 C.2     1  UNL1        0.2015
     24 O           3.8798   -4.9931   20.8516 O.2     1  UNL1       -0.2864
     25 C           4.1243   -1.0421   18.1478 C.ar    1  UNL1        0.0920
     26 C           5.5270   -0.9817   17.6198 C.ar    1  UNL1        0.0204
     27 C           6.6020   -1.8173   18.2493 C.ar    1  UNL1        0.0312
     28 C           6.2743   -2.7133   19.4067 C.ar    1  UNL1        0.1454
     29 F           7.3493   -3.5489   20.0362 F       1  UNL1       -0.2040
     30 C           4.8716   -2.7737   19.9347 C.ar    1  UNL1        0.0951
     31 C           3.7966   -1.9382   19.3052 C.ar    1  UNL1        0.1598
     32 F           2.3939   -1.9987   19.8333 F       1  UNL1       -0.2026
     33 N           3.0493   -0.2065   17.5183 N.pl3   1  UNL1       -0.2166
     34 H           2.7156   -0.4294   16.6193 H       1  UNL1        0.1734
     35 S           2.4828    0.9686   18.2586 S.O2    1  UNL1        0.0540
     36 O           1.1334    0.3136   18.2657 O.2     1  UNL1       -0.1545
     37 O           3.8322    1.6236   18.2515 O.2     1  UNL1       -0.1545
     38 C           1.9163    2.1438   18.9989 C.3     1  UNL1        0.1724
     39 C           0.1452    4.0417   19.1057 C.3     1  UNL1        0.0019
     40 C           0.5662    2.6831   18.6294 C.3     1  UNL1        0.0273
@<TRIPOS>BOND
     1    39    40    1
     2    40    38    1
     3    38    35    1
     4    35    36    2
     5    35    37    2
     6    35    33    1
     7    33    25    1
     8    25    26   ar
     9    26    27   ar
    10    27    28   ar
    11    28    29    1
    12    28    30   ar
    13    30    23    1
    14    23    24    2
    15    23     1    1
    16     1     2   ar
    17     2     3   ar
    18     3     4   ar
    19     4     5   ar
    20     5     6   ar
    21     6     7   ar
    22     7    11    1
    23    11    12   ar
    24    12    13   ar
    25    13    14   ar
    26    14    16    1
    27    16    17    1
    28    17    18   ar
    29    18    19   ar
    30    19    20   ar
    31    20    21   ar
    32    21    22   ar
    33    14    15   ar
    34     7     8   ar
    35     8     9   ar
    36    30    31   ar
    37    31    32    1
    38    31    25   ar
    39     9     1   ar
    40     9     4    1
    41    15    11   ar
    42    22    17   ar
    43    33    34    1
    44     5    10    1
@<TRIPOS>MOLECULE
*****
 40 44 0 0 0
SMALL
GASTEIGER

@<TRIPOS>ATOM
      1 C           5.5517   -2.6562   19.2550 C.ar    1  UNL1        0.0611
      2 C           6.6677   -2.6600   18.2527 C.ar    1  UNL1        0.1037
      3 N           6.5815   -1.3905   17.4583 N.ar    1  UNL1       -0.2269
      4 C           5.4123   -0.6022   17.9697 C.ar    1  UNL1        0.1407
      5 N           4.8450    0.7269   17.5676 N.ar    1  UNL1       -0.3374
      6 C           3.6412    1.2737   18.2760 C.ar    1  UNL1        0.0735
      7 C           3.0048    0.4915   19.3864 C.ar    1  UNL1        0.0202
      8 C           3.5721   -0.8376   19.7884 C.ar    1  UNL1        0.0047
      9 C           4.7759   -1.3844   19.0801 C.ar    1  UNL1        0.0386
     10 H           5.2628    1.2403   16.8389 H       1  UNL1        0.1674
     11 C           1.8009    1.0384   20.0948 C.ar    1  UNL1        0.0411
     12 C           0.3757    0.6429   19.8451 C.ar    1  UNL1        0.1217
     13 N          -0.4951    1.4368   20.7732 N.ar    1  UNL1       -0.1673
     14 N           0.3920    2.3230   21.5965 N.ar    1  UNL1       -0.2449
     15 C           1.8110    2.0767   21.1772 C.ar    1  UNL1        0.0970
     16 C          -0.0606    3.2863   22.6535 C.3     1  UNL1        0.1538
     17 C          -0.3051    2.8041   24.0527 C.ar    1  UNL1        0.0021
     18 C          -1.4199    3.3934   24.8650 C.ar    1  UNL1       -0.0023
     19 C          -1.6644    2.9112   26.2641 C.ar    1  UNL1       -0.0003
     20 C          -0.7941    1.8396   26.8509 C.ar    1  UNL1       -0.0000
     21 C           0.3206    1.2502   26.0386 C.ar    1  UNL1       -0.0003
     22 C           0.5652    1.7324   24.6395 C.ar    1  UNL1       -0.0023
     23 C           5.2624   -3.7349   20.2564 C.2     1  UNL1        0.2015
     24 O           4.4119   -4.9084   19.8700 O.2     1  UNL1       -0.2864
     25 C           5.5842   -2.8955   24.1219 C.ar    1  UNL1        0.0920
     26 C           6.9458   -3.4499   24.4199 C.ar    1  UNL1        0.0204
     27 C           7.7462   -4.0993   23.3301 C.ar    1  UNL1        0.0312
     28 C           7.1851   -4.1943   21.9423 C.ar    1  UNL1        0.1454
     29 F           7.9855   -4.8436   20.8525 F       1  UNL1       -0.2040
     30 C           5.8236   -3.6399   21.6443 C.ar    1  UNL1        0.0951
     31 C           5.0231   -2.9906   22.7341 C.ar    1  UNL1        0.1598
     32 F           3.6615   -2.4362   22.4360 F       1  UNL1       -0.2026
     33 N           4.7838   -2.2462   25.2117 N.pl3   1  UNL1       -0.2166
     34 H           4.3674   -2.7984   25.9124 H       1  UNL1        0.1734
     35 S           4.6178   -0.7556   25.2339 S.O2    1  UNL1        0.0540
     36 O           6.0755   -0.5980   25.5506 O.2     1  UNL1       -0.1545
     37 O           3.1601   -0.9132   24.9173 O.2     1  UNL1       -0.1545
     38 C           4.4517    0.7350   25.2561 C.3     1  UNL1        0.1724
     39 C           5.0138    0.9328   22.7272 C.3     1  UNL1        0.0019
     40 C           4.3936    1.5024   23.9686 C.3     1  UNL1        0.0273
@<TRIPOS>BOND
     1    39    40    1
     2    40    38    1
     3    38    35    1
     4    35    36    2
     5    35    37    2
     6    35    33    1
     7    33    25    1
     8    25    26   ar
     9    26    27   ar
    10    27    28   ar
    11    28    29    1
    12    28    30   ar
    13    30    23    1
    14    23    24    2
    15    23     1    1
    16     1     2   ar
    17     2     3   ar
    18     3     4   ar
    19     4     5   ar
    20     5     6   ar
    21     6     7   ar
    22     7    11    1
    23    11    12   ar
    24    12    13   ar
    25    13    14   ar
    26    14    16    1
    27    16    17    1
    28    17    18   ar
    29    18    19   ar
    30    19    20   ar
    31    20    21   ar
    32    21    22   ar
    33    14    15   ar
    34     7     8   ar
    35     8     9   ar
    36    30    31   ar
    37    31    32    1
    38    31    25   ar
    39     9     1   ar
    40     9     4    1
    41    15    11   ar
    42    22    17   ar
    43    33    34    1
    44     5    10    1
@<TRIPOS>MOLECULE
*****
 40 44 0 0 0
SMALL
GASTEIGER

@<TRIPOS>ATOM
      1 C          -3.1976    4.3402   25.2685 C.ar    1  UNL1        0.0611
      2 C          -4.0515    4.3845   26.5009 C.ar    1  UNL1        0.1037
      3 N          -5.4835    4.2420   26.0779 N.ar    1  UNL1       -0.2269
      4 C          -5.5147    4.1098   24.5840 C.ar    1  UNL1        0.1407
      5 N          -6.6470    3.9419   23.6147 N.ar    1  UNL1       -0.3374
      6 C          -6.3665    3.8347   22.1451 C.ar    1  UNL1        0.0735
      7 C          -4.9537    3.8954   21.6448 C.ar    1  UNL1        0.0202
      8 C          -3.8214    4.0633   22.6142 C.ar    1  UNL1        0.0047
      9 C          -4.1019    4.1704   24.0838 C.ar    1  UNL1        0.0386
     10 H          -7.5743    3.9021   23.9430 H       1  UNL1        0.1674
     11 C          -4.6732    3.7882   20.1751 C.ar    1  UNL1        0.0411
     12 C          -5.6692    3.4338   19.1110 C.ar    1  UNL1        0.1217
     13 N          -4.9591    3.4432   17.7898 N.ar    1  UNL1       -0.1673
     14 N          -3.5241    3.8033   18.0374 N.ar    1  UNL1       -0.2449
     15 C          -3.3475    4.0165   19.5116 C.ar    1  UNL1        0.0970
     16 C          -2.4538    3.9283   16.9939 C.3     1  UNL1        0.1538
     17 C          -1.0352    4.1939   17.4027 C.ar    1  UNL1        0.0021
     18 C          -0.4653    5.5758   17.2788 C.ar    1  UNL1       -0.0023
     19 C           0.9533    5.8415   17.6875 C.ar    1  UNL1       -0.0003
     20 C           1.8019    4.7251   18.2202 C.ar    1  UNL1       -0.0000
     21 C           1.2319    3.3432   18.3441 C.ar    1  UNL1       -0.0003
     22 C          -0.1866    3.0776   17.9354 C.ar    1  UNL1       -0.0023
     23 C          -1.7020    4.4470   25.2278 C.2     1  UNL1        0.2015
     24 O          -1.0323    5.7402   25.5868 O.2     1  UNL1       -0.2864
     25 C           0.5320    1.9958   23.0480 C.ar    1  UNL1        0.0920
     26 C           0.7761    0.8873   24.0286 C.ar    1  UNL1        0.0204
     27 C           0.1943    0.9654   25.4089 C.ar    1  UNL1        0.0312
     28 C          -0.6317    2.1519   25.8087 C.ar    1  UNL1        0.1454
     29 F          -1.2136    2.2299   27.1890 F       1  UNL1       -0.2040
     30 C          -0.8759    3.2604   24.8281 C.ar    1  UNL1        0.0951
     31 C          -0.2940    3.1823   23.4477 C.ar    1  UNL1        0.1598
     32 F          -0.5382    4.2909   22.4672 F       1  UNL1       -0.2026
     33 N           1.1139    1.9178   21.6676 N.pl3   1  UNL1       -0.2166
     34 H           1.3851    2.7409   21.2005 H       1  UNL1        0.1734
     35 S           1.2826    0.5857   20.9991 S.O2    1  UNL1        0.0540
     36 O           2.7584    0.6409   21.2614 O.2     1  UNL1       -0.1545
     37 O          -0.1933    0.5304   20.7368 O.2     1  UNL1       -0.1545
     38 C           1.4512   -0.7464   20.3305 C.3     1  UNL1        0.1724
     39 C           3.2969   -2.4655   19.7071 C.3     1  UNL1        0.0019
     40 C           2.7356   -1.0766   19.6296 C.3     1  UNL1        0.0273
@<TRIPOS>BOND
     1    39    40    1
     2    40    38    1
     3    38    35    1
     4    35    36    2
     5    35    37    2
     6    35    33    1
     7    33    25    1
     8    25    26   ar
     9    26    27   ar
    10    27    28   ar
    11    28    29    1
    12    28    30   ar
    13    30    23    1
    14    23    24    2
    15    23     1    1
    16     1     2   ar
    17     2     3   ar
    18     3     4   ar
    19     4     5   ar
    20     5     6   ar
    21     6     7   ar
    22     7    11    1
    23    11    12   ar
    24    12    13   ar
    25    13    14   ar
    26    14    16    1
    27    16    17    1
    28    17    18   ar
    29    18    19   ar
    30    19    20   ar
    31    20    21   ar
    32    21    22   ar
    33    14    15   ar
    34     7     8   ar
    35     8     9   ar
    36    30    31   ar
    37    31    32    1
    38    31    25   ar
    39     9     1   ar
    40     9     4    1
    41    15    11   ar
    42    22    17   ar
    43    33    34    1
    44     5    10    1
@<TRIPOS>MOLECULE
*****
 40 44 0 0 0
SMALL
GASTEIGER

@<TRIPOS>ATOM
      1 C           0.8413    2.2741   24.3765 C.ar    1  UNL1        0.0611
      2 C          -0.1793    3.0069   23.5572 C.ar    1  UNL1        0.1037
      3 N          -0.2098    2.3865   22.1918 N.ar    1  UNL1       -0.2269
      4 C           0.7920    1.2703   22.1673 C.ar    1  UNL1        0.1407
      5 N           1.1965    0.3083   21.0900 N.ar    1  UNL1       -0.3374
      6 C           2.2507   -0.7233   21.3629 C.ar    1  UNL1        0.0735
      7 C           2.9003   -0.7928   22.7131 C.ar    1  UNL1        0.0202
      8 C           2.4958    0.1693   23.7905 C.ar    1  UNL1        0.0047
      9 C           1.4416    1.2009   23.5176 C.ar    1  UNL1        0.0386
     10 H           0.7701    0.3539   20.2038 H       1  UNL1        0.1674
     11 C           3.9546   -1.8244   22.9860 C.ar    1  UNL1        0.0411
     12 C           4.2628   -3.0176   22.1309 C.ar    1  UNL1        0.1217
     13 N           5.3843   -3.7746   22.7782 N.ar    1  UNL1       -0.1673
     14 N           5.7694   -3.0491   24.0335 N.ar    1  UNL1       -0.2449
     15 C           4.8857   -1.8439   24.1618 C.ar    1  UNL1        0.0970
     16 C           6.8485   -3.4573   24.9920 C.3     1  UNL1        0.1538
     17 C           7.1881   -4.9080   25.1656 C.ar    1  UNL1        0.0021
     18 C           7.9580   -5.6308   24.1003 C.ar    1  UNL1       -0.0023
     19 C           8.2975   -7.0815   24.2740 C.ar    1  UNL1       -0.0003
     20 C           7.8672   -7.8094   25.5129 C.ar    1  UNL1       -0.0000
     21 C           7.0973   -7.0866   26.5782 C.ar    1  UNL1       -0.0003
     22 C           6.7577   -5.6359   26.4046 C.ar    1  UNL1       -0.0023
     23 C           1.1989    2.5637   25.8042 C.2     1  UNL1        0.2015
     24 O           2.0885    3.7255   26.1337 O.2     1  UNL1       -0.2864
     25 C           1.0764   -0.0109   28.8219 C.ar    1  UNL1        0.0920
     26 C          -0.3973   -0.0531   29.0988 C.ar    1  UNL1        0.0204
     27 C          -1.3388    0.7769   28.2775 C.ar    1  UNL1        0.0312
     28 C          -0.8068    1.6491   27.1793 C.ar    1  UNL1        0.1454
     29 F          -1.7484    2.4791   26.3580 F       1  UNL1       -0.2040
     30 C           0.6668    1.6914   26.9024 C.ar    1  UNL1        0.0951
     31 C           1.6084    0.8614   27.7238 C.ar    1  UNL1        0.1598
     32 F           3.0820    0.9038   27.4468 F       1  UNL1       -0.2026
     33 N           2.0179   -0.8408   29.6433 N.pl3   1  UNL1       -0.2166
     34 H           2.0090   -1.8219   29.5612 H       1  UNL1        0.1734
     35 S           2.9731   -0.1761   30.5897 S.O2    1  UNL1        0.0540
     36 O           4.1262   -0.8183   29.8770 O.2     1  UNL1       -0.1545
     37 O           1.8200    0.4661   31.3024 O.2     1  UNL1       -0.1545
     38 C           3.9282    0.4887   31.5362 C.3     1  UNL1        0.1724
     39 C           4.5242    1.2664   33.9425 C.3     1  UNL1        0.0019
     40 C           3.5224    0.7391   32.9584 C.3     1  UNL1        0.0273
@<TRIPOS>BOND
     1    39    40    1
     2    40    38    1
     3    38    35    1
     4    35    36    2
     5    35    37    2
     6    35    33    1
     7    33    25    1
     8    25    26   ar
     9    26    27   ar
    10    27    28   ar
    11    28    29    1
    12    28    30   ar
    13    30    23    1
    14    23    24    2
    15    23     1    1
    16     1     2   ar
    17     2     3   ar
    18     3     4   ar
    19     4     5   ar
    20     5     6   ar
    21     6     7   ar
    22     7    11    1
    23    11    12   ar
    24    12    13   ar
    25    13    14   ar
    26    14    16    1
    27    16    17    1
    28    17    18   ar
    29    18    19   ar
    30    19    20   ar
    31    20    21   ar
    32    21    22   ar
    33    14    15   ar
    34     7     8   ar
    35     8     9   ar
    36    30    31   ar
    37    31    32    1
    38    31    25   ar
    39     9     1   ar
    40     9     4    1
    41    15    11   ar
    42    22    17   ar
    43    33    34    1
    44     5    10    1
@<TRIPOS>MOLECULE
*****
 40 44 0 0 0
SMALL
GASTEIGER

@<TRIPOS>ATOM
      1 C         -11.9137  -16.8790   21.0444 C.ar    1  UNL1        0.0611
      2 C         -12.6876  -16.2995   19.8976 C.ar    1  UNL1        0.1037
      3 N         -11.8820  -15.1760   19.3155 N.ar    1  UNL1       -0.2269
      4 C         -10.6102  -15.0613   20.1026 C.ar    1  UNL1        0.1407
      5 N          -9.4368  -14.1343   19.9843 N.ar    1  UNL1       -0.3374
      6 C          -8.2831  -14.2600   20.9346 C.ar    1  UNL1        0.0735
      7 C          -8.3028  -15.3125   22.0031 C.ar    1  UNL1        0.0202
      8 C          -9.4761  -16.2394   22.1214 C.ar    1  UNL1        0.0047
      9 C         -10.6298  -16.1138   21.1711 C.ar    1  UNL1        0.0386
     10 H          -9.4240  -13.4435   19.2830 H       1  UNL1        0.1674
     11 C          -7.1489  -15.4381   22.9535 C.ar    1  UNL1        0.0411
     12 C          -6.9950  -14.7079   24.2547 C.ar    1  UNL1        0.1217
     13 N          -5.6975  -15.1344   24.8748 N.ar    1  UNL1       -0.1673
     14 N          -5.0495  -16.1282   23.9568 N.ar    1  UNL1       -0.2449
     15 C          -5.9466  -16.3159   22.7694 C.ar    1  UNL1        0.0970
     16 C          -3.7353  -16.8139   24.1861 C.3     1  UNL1        0.1538
     17 C          -2.8904  -17.2260   23.0172 C.ar    1  UNL1        0.0021
     18 C          -2.3815  -16.1914   22.0578 C.ar    1  UNL1       -0.0023
     19 C          -1.5366  -16.6035   20.8889 C.ar    1  UNL1       -0.0003
     20 C          -1.2007  -18.0503   20.6794 C.ar    1  UNL1       -0.0000
     21 C          -1.7096  -19.0850   21.6388 C.ar    1  UNL1       -0.0003
     22 C          -2.5545  -18.6729   22.8077 C.ar    1  UNL1       -0.0023
     23 C         -12.3476  -18.0230   21.9122 C.2     1  UNL1        0.2015
     24 O         -13.8046  -18.3540   22.0440 O.2     1  UNL1       -0.2864
     25 C          -9.1025  -20.1830   22.6571 C.ar    1  UNL1        0.0920
     26 C          -9.2777  -20.4622   24.1204 C.ar    1  UNL1        0.0204
     27 C         -10.4761  -19.9285   24.8477 C.ar    1  UNL1        0.0312
     28 C         -11.4993  -19.1154   24.1117 C.ar    1  UNL1        0.1454
     29 F         -12.6977  -18.5816   24.8389 F       1  UNL1       -0.2040
     30 C         -11.3242  -18.8361   22.6483 C.ar    1  UNL1        0.0951
     31 C         -10.1258  -19.3699   21.9211 C.ar    1  UNL1        0.1598
     32 F          -9.9508  -19.0906   20.4577 F       1  UNL1       -0.2026
     33 N          -7.9041  -20.7168   21.9298 N.pl3   1  UNL1       -0.2166
     34 H          -7.6726  -21.6713   21.9967 H       1  UNL1        0.1734
     35 S          -7.0585  -19.7962   21.1007 S.O2    1  UNL1        0.0540
     36 O          -7.6494  -20.3789   19.8512 O.2     1  UNL1       -0.1545
     37 O          -6.4676  -19.2135   22.3502 O.2     1  UNL1       -0.1545
     38 C          -6.2129  -18.8756   20.2716 C.3     1  UNL1        0.1724
     39 C          -4.3791  -20.7002   20.0298 C.3     1  UNL1        0.0019
     40 C          -4.8127  -19.2696   19.9053 C.3     1  UNL1        0.0273
@<TRIPOS>BOND
     1    39    40    1
     2    40    38    1
     3    38    35    1
     4    35    36    2
     5    35    37    2
     6    35    33    1
     7    33    25    1
     8    25    26   ar
     9    26    27   ar
    10    27    28   ar
    11    28    29    1
    12    28    30   ar
    13    30    23    1
    14    23    24    2
    15    23     1    1
    16     1     2   ar
    17     2     3   ar
    18     3     4   ar
    19     4     5   ar
    20     5     6   ar
    21     6     7   ar
    22     7    11    1
    23    11    12   ar
    24    12    13   ar
    25    13    14   ar
    26    14    16    1
    27    16    17    1
    28    17    18   ar
    29    18    19   ar
    30    19    20   ar
    31    20    21   ar
    32    21    22   ar
    33    14    15   ar
    34     7     8   ar
    35     8     9   ar
    36    30    31   ar
    37    31    32    1
    38    31    25   ar
    39     9     1   ar
    40     9     4    1
    41    15    11   ar
    42    22    17   ar
    43    33    34    1
    44     5    10    1
@<TRIPOS>MOLECULE
*****
 40 44 0 0 0
SMALL
GASTEIGER

@<TRIPOS>ATOM
      1 C           7.0350   -3.5979   30.5962 C.ar    1  UNL1        0.0611
      2 C           6.9436   -4.7363   31.5687 C.ar    1  UNL1        0.1037
      3 N           6.9365   -6.0155   30.7855 N.ar    1  UNL1       -0.2269
      4 C           7.0236   -5.6678   29.3289 C.ar    1  UNL1        0.1407
      5 N           7.0553   -6.5187   28.0941 N.ar    1  UNL1       -0.3374
      6 C           7.1479   -5.8754   26.7422 C.ar    1  UNL1        0.0735
      7 C           7.2087   -4.3812   26.6252 C.ar    1  UNL1        0.0202
      8 C           7.1770   -3.5303   27.8601 C.ar    1  UNL1        0.0047
      9 C           7.0844   -4.1736   29.2119 C.ar    1  UNL1        0.0386
     10 H           7.0154   -7.4994   28.1708 H       1  UNL1        0.1674
     11 C           7.3013   -3.7379   25.2733 C.ar    1  UNL1        0.0411
     12 C           7.7480   -2.3334   24.9939 C.ar    1  UNL1        0.1217
     13 N           7.6862   -2.1136   23.5114 N.ar    1  UNL1       -0.1673
     14 N           7.2014   -3.3822   22.8745 N.ar    1  UNL1       -0.2449
     15 C           6.9635   -4.3860   23.9635 C.ar    1  UNL1        0.0970
     16 C           6.9913   -3.6074   21.4065 C.3     1  UNL1        0.1538
     17 C           5.7541   -3.0864   20.7373 C.ar    1  UNL1        0.0021
     18 C           5.5029   -1.6091   20.6709 C.ar    1  UNL1       -0.0023
     19 C           4.2657   -1.0881   20.0017 C.ar    1  UNL1       -0.0003
     20 C           3.2797   -2.0444   19.3989 C.ar    1  UNL1       -0.0000
     21 C           3.5309   -3.5217   19.4652 C.ar    1  UNL1       -0.0003
     22 C           4.7681   -4.0427   20.1344 C.ar    1  UNL1       -0.0023
     23 C           7.0707   -2.1398   30.9464 C.2     1  UNL1        0.2015
     24 O           8.3773   -1.4778   31.2695 O.2     1  UNL1       -0.2864
     25 C           4.1333    0.2750   29.8103 C.ar    1  UNL1        0.0920
     26 C           3.2577    0.2486   31.0279 C.ar    1  UNL1        0.0204
     27 C           3.6530   -0.5739   32.2183 C.ar    1  UNL1        0.0312
     28 C           4.9239   -1.3701   32.1912 C.ar    1  UNL1        0.1454
     29 F           5.3193   -2.1926   33.3816 F       1  UNL1       -0.2040
     30 C           5.7996   -1.3436   30.9736 C.ar    1  UNL1        0.0951
     31 C           5.4043   -0.5211   29.7832 C.ar    1  UNL1        0.1598
     32 F           6.2800   -0.4947   28.5656 F       1  UNL1       -0.2026
     33 N           3.7380    1.0976   28.6199 N.pl3   1  UNL1       -0.2166
     34 H           3.6492    2.0745   28.7041 H       1  UNL1        0.1734
     35 S           3.4779    0.4318   27.3012 S.O2    1  UNL1        0.0540
     36 O           4.6044    1.2086   26.6868 O.2     1  UNL1       -0.1545
     37 O           2.3514   -0.3451   27.9156 O.2     1  UNL1       -0.1545
     38 C           3.2178   -0.2341   25.9825 C.3     1  UNL1        0.1724
     39 C           4.1370   -1.7243   24.0629 C.3     1  UNL1        0.0019
     40 C           4.1109   -1.3443   25.5138 C.3     1  UNL1        0.0273
@<TRIPOS>BOND
     1    39    40    1
     2    40    38    1
     3    38    35    1
     4    35    36    2
     5    35    37    2
     6    35    33    1
     7    33    25    1
     8    25    26   ar
     9    26    27   ar
    10    27    28   ar
    11    28    29    1
    12    28    30   ar
    13    30    23    1
    14    23    24    2
    15    23     1    1
    16     1     2   ar
    17     2     3   ar
    18     3     4   ar
    19     4     5   ar
    20     5     6   ar
    21     6     7   ar
    22     7    11    1
    23    11    12   ar
    24    12    13   ar
    25    13    14   ar
    26    14    16    1
    27    16    17    1
    28    17    18   ar
    29    18    19   ar
    30    19    20   ar
    31    20    21   ar
    32    21    22   ar
    33    14    15   ar
    34     7     8   ar
    35     8     9   ar
    36    30    31   ar
    37    31    32    1
    38    31    25   ar
    39     9     1   ar
    40     9     4    1
    41    15    11   ar
    42    22    17   ar
    43    33    34    1
    44     5    10    1
@<TRIPOS>MOLECULE
*****
 40 44 0 0 0
SMALL
GASTEIGER

@<TRIPOS>ATOM
      1 C           6.0614   -2.7578   19.5857 C.ar    1  UNL1        0.0611
      2 C           6.9048   -2.1754   18.4905 C.ar    1  UNL1        0.1037
      3 N           8.3446   -2.4077   18.8410 N.ar    1  UNL1       -0.2269
      4 C           8.3911   -3.1337   20.1529 C.ar    1  UNL1        0.1407
      5 N           9.5360   -3.6256   20.9878 N.ar    1  UNL1       -0.3374
      6 C           9.2697   -4.3339   22.2829 C.ar    1  UNL1        0.0735
      7 C           7.8586   -4.5503   22.7431 C.ar    1  UNL1        0.0202
      8 C           6.7137   -4.0583   21.9082 C.ar    1  UNL1        0.0047
      9 C           6.9799   -3.3500   20.6131 C.ar    1  UNL1        0.0386
     10 H          10.4622   -3.4836   20.6857 H       1  UNL1        0.1674
     11 C           7.5924   -5.2586   24.0383 C.ar    1  UNL1        0.0411
     12 C           7.9713   -6.6730   24.3637 C.ar    1  UNL1        0.1217
     13 N           7.5136   -6.9655   25.7619 N.ar    1  UNL1       -0.1673
     14 N           6.8518   -5.7318   26.3006 N.ar    1  UNL1       -0.2449
     15 C           6.9005   -4.6770   25.2353 C.ar    1  UNL1        0.0970
     16 C           6.2475   -5.5798   27.6651 C.3     1  UNL1        0.1538
     17 C           7.1254   -5.6034   28.8811 C.ar    1  UNL1        0.0021
     18 C           6.9273   -4.5899   29.9689 C.ar    1  UNL1       -0.0023
     19 C           7.8052   -4.6135   31.1849 C.ar    1  UNL1       -0.0003
     20 C           8.8812   -5.6507   31.3131 C.ar    1  UNL1       -0.0000
     21 C           9.0794   -6.6642   30.2252 C.ar    1  UNL1       -0.0003
     22 C           8.2015   -6.6406   29.0092 C.ar    1  UNL1       -0.0023
     23 C           4.5625   -2.7494   19.6433 C.2     1  UNL1        0.2015
     24 O           3.7888   -3.9625   19.2194 O.2     1  UNL1       -0.2864
     25 C           2.8050    0.8089   19.6516 C.ar    1  UNL1        0.0920
     26 C           2.3869    0.9151   21.0883 C.ar    1  UNL1        0.0204
     27 C           2.6940   -0.2001   22.0432 C.ar    1  UNL1        0.0312
     28 C           3.4192   -1.4216   21.5617 C.ar    1  UNL1        0.1454
     29 F           3.7263   -2.5368   22.5166 F       1  UNL1       -0.2040
     30 C           3.8373   -1.5279   20.1250 C.ar    1  UNL1        0.0951
     31 C           3.5302   -0.4126   19.1701 C.ar    1  UNL1        0.1598
     32 F           3.9483   -0.5190   17.7334 F       1  UNL1       -0.2026
     33 N           2.4979    1.9241   18.6967 N.pl3   1  UNL1       -0.2166
     34 H           3.2034    2.2752   18.1067 H       1  UNL1        0.1734
     35 S           1.1158    2.5043   18.6407 S.O2    1  UNL1        0.0540
     36 O           1.6427    3.8094   19.1594 O.2     1  UNL1       -0.1545
     37 O           0.5889    1.1992   18.1220 O.2     1  UNL1       -0.1545
     38 C          -0.2663    3.0844   18.5847 C.3     1  UNL1        0.1724
     39 C          -2.1696    4.2382   17.2443 C.3     1  UNL1        0.0019
     40 C          -0.7891    3.6541   17.2993 C.3     1  UNL1        0.0273
@<TRIPOS>BOND
     1    39    40    1
     2    40    38    1
     3    38    35    1
     4    35    36    2
     5    35    37    2
     6    35    33    1
     7    33    25    1
     8    25    26   ar
     9    26    27   ar
    10    27    28   ar
    11    28    29    1
    12    28    30   ar
    13    30    23    1
    14    23    24    2
    15    23     1    1
    16     1     2   ar
    17     2     3   ar
    18     3     4   ar
    19     4     5   ar
    20     5     6   ar
    21     6     7   ar
    22     7    11    1
    23    11    12   ar
    24    12    13   ar
    25    13    14   ar
    26    14    16    1
    27    16    17    1
    28    17    18   ar
    29    18    19   ar
    30    19    20   ar
    31    20    21   ar
    32    21    22   ar
    33    14    15   ar
    34     7     8   ar
    35     8     9   ar
    36    30    31   ar
    37    31    32    1
    38    31    25   ar
    39     9     1   ar
    40     9     4    1
    41    15    11   ar
    42    22    17   ar
    43    33    34    1
    44     5    10    1
