@<TRIPOS>MOLECULE
*****
 23 26 0 0 0
SMALL
GASTEIGER

@<TRIPOS>ATOM
      1 C          -8.8965  -18.1512   21.1569 C.2     1  UNL1        0.3394
      2 O          -8.5003  -19.4690   20.5598 O.2     1  UNL1       -0.2452
      3 C          -9.4889  -19.2607   24.1096 C.3     1  UNL1        0.0271
      4 C         -10.8733  -18.7493   23.8411 C.2     1  UNL1       -0.0335
      5 C         -11.9421  -18.8955   24.8834 C.2     1  UNL1        0.0036
      6 C         -13.3263  -18.3842   24.6150 C.2     1  UNL1        0.0583
      7 CL        -14.3952  -18.5304   25.6573 Cl      1  UNL1       -0.0822
      8 C         -13.6420  -17.7265   23.3042 C.2     1  UNL1        0.0267
      9 C         -12.5732  -17.5802   22.2620 C.2     1  UNL1        0.0676
     10 N         -12.5874  -16.9808   20.8871 N.2     1  UNL1       -0.2476
     11 C         -11.2118  -17.1217   20.3058 C.2     1  UNL1        0.1013
     12 C         -10.3475  -17.8083   21.3214 C.2     1  UNL1        0.0814
     13 C         -11.1888  -18.0917   22.5305 C.3     1  UNL1        0.0886
     14 O          -7.8417  -17.1764   21.5894 O.3     1  UNL1       -0.4456
     15 C          -8.2275  -15.9419   22.3490 C.3     1  UNL1        0.2087
     16 C          -7.7854  -15.7679   23.7718 C.3     1  UNL1        0.0445
     17 C          -6.3328  -15.5646   24.0862 C.3     1  UNL1        0.0210
     18 C          -5.8906  -15.3906   25.5089 C.3     1  UNL1        0.0722
     19 N          -6.9009  -15.4198   26.6173 N.3     1  UNL1       -0.2727
     20 C          -8.3534  -15.6231   26.3029 C.3     1  UNL1        0.0722
     21 C          -8.7957  -15.7972   24.8802 C.3     1  UNL1        0.0210
     22 C          -7.1911  -15.5197   25.8532 C.3     1  UNL1        0.0722
     23 C          -7.5909  -15.6771   24.5667 C.3     1  UNL1        0.0210
@<TRIPOS>BOND
     1     3     4    1
     2     4     5    2
     3     5     6    1
     4     6     7    1
     5     6     8    2
     6     8     9    1
     7     9    10    2
     8    10    11    1
     9    11    12    2
    10    12     1    1
    11     1     2    2
    12     1    14    1
    13    14    15    1
    14    15    16    1
    15    16    17    1
    16    17    18    1
    17    18    19    1
    18    19    20    1
    19    20    21    1
    20    19    22    1
    21    22    23    1
    22    12    13    1
    23    13     4    1
    24    13     9    1
    25    21    16    1
    26    23    16    1
@<TRIPOS>MOLECULE
*****
 23 26 0 0 0
SMALL
GASTEIGER

@<TRIPOS>ATOM
      1 C          -9.0202  -18.8076   20.4868 C.2     1  UNL1        0.3394
      2 O          -8.9076  -20.0302   19.6252 O.2     1  UNL1       -0.2452
      3 C          -9.5114  -19.9389   23.4499 C.3     1  UNL1        0.0271
      4 C         -10.8082  -19.1935   23.3373 C.2     1  UNL1       -0.0335
      5 C         -11.7835  -19.2087   24.4768 C.2     1  UNL1        0.0036
      6 C         -13.0802  -18.4634   24.3643 C.2     1  UNL1        0.0583
      7 CL        -14.0555  -18.4787   25.5039 Cl      1  UNL1       -0.0822
      8 C         -13.4019  -17.7027   23.1120 C.2     1  UNL1        0.0267
      9 C         -12.4266  -17.6875   21.9725 C.2     1  UNL1        0.0676
     10 N         -12.4685  -17.0311   20.6244 N.2     1  UNL1       -0.2476
     11 C         -11.1975  -17.3708   19.9038 C.2     1  UNL1        0.1013
     12 C         -10.3702  -18.2372   20.8065 C.2     1  UNL1        0.0814
     13 C         -11.1298  -18.4329   22.0851 C.3     1  UNL1        0.0886
     14 O          -7.7829  -18.1554   21.0288 O.3     1  UNL1       -0.4456
     15 C          -6.9154  -18.8898   22.0076 C.3     1  UNL1        0.2087
     16 C          -5.5314  -19.3127   21.6130 C.3     1  UNL1        0.0445
     17 C          -5.3304  -20.2082   20.4265 C.3     1  UNL1        0.0210
     18 C          -3.9464  -20.6310   20.0319 C.3     1  UNL1        0.0722
     19 N          -2.7633  -20.1584   20.8238 N.3     1  UNL1       -0.2727
     20 C          -2.9643  -19.2630   22.0103 C.3     1  UNL1        0.0722
     21 C          -4.3483  -18.8401   22.4049 C.3     1  UNL1        0.0210
     22 C          -3.5026  -19.9002   21.0784 C.3     1  UNL1        0.0722
     23 C          -4.7541  -19.5178   21.4352 C.3     1  UNL1        0.0210
@<TRIPOS>BOND
     1     3     4    1
     2     4     5    2
     3     5     6    1
     4     6     7    1
     5     6     8    2
     6     8     9    1
     7     9    10    2
     8    10    11    1
     9    11    12    2
    10    12     1    1
    11     1     2    2
    12     1    14    1
    13    14    15    1
    14    15    16    1
    15    16    17    1
    16    17    18    1
    17    18    19    1
    18    19    20    1
    19    20    21    1
    20    19    22    1
    21    22    23    1
    22    12    13    1
    23    13     4    1
    24    13     9    1
    25    21    16    1
    26    23    16    1
@<TRIPOS>MOLECULE
*****
 23 26 0 0 0
SMALL
GASTEIGER

@<TRIPOS>ATOM
      1 C          -8.2389  -17.8216   21.6546 C.2     1  UNL1        0.3394
      2 O          -8.1947  -18.5538   20.3462 O.2     1  UNL1       -0.2452
      3 C         -11.1785  -16.7471   20.9443 C.3     1  UNL1        0.0271
      4 C         -11.5613  -17.4631   22.2056 C.2     1  UNL1       -0.0335
      5 C         -12.9875  -17.4534   22.6702 C.2     1  UNL1        0.0036
      6 C         -13.3703  -18.1693   23.9314 C.2     1  UNL1        0.0583
      7 CL        -14.7965  -18.1596   24.3960 Cl      1  UNL1       -0.0822
      8 C         -12.3268  -18.8950   24.7282 C.2     1  UNL1        0.0267
      9 C         -10.9007  -18.9047   24.2636 C.2     1  UNL1        0.0676
     10 N          -9.6629  -19.5298   24.8357 N.2     1  UNL1       -0.2476
     11 C          -8.5152  -19.2001   23.9280 C.2     1  UNL1        0.1013
     12 C          -9.0436  -18.3713   22.7949 C.2     1  UNL1        0.0814
     13 C         -10.5179  -18.1887   23.0023 C.3     1  UNL1        0.0886
     14 O          -7.4783  -16.5396   21.8226 O.3     1  UNL1       -0.4456
     15 C          -7.9783  -15.4897   22.7700 C.3     1  UNL1        0.2087
     16 C          -7.5676  -15.5240   24.2123 C.3     1  UNL1        0.0445
     17 C          -6.1219  -15.3760   24.5841 C.3     1  UNL1        0.0210
     18 C          -5.7111  -15.4103   26.0263 C.3     1  UNL1        0.0722
     19 N          -6.7460  -15.5925   27.0968 N.3     1  UNL1       -0.2727
     20 C          -8.1916  -15.7405   26.7250 C.3     1  UNL1        0.0722
     21 C          -8.6024  -15.7062   25.2828 C.3     1  UNL1        0.0210
     22 C          -7.0192  -15.5802   26.3202 C.3     1  UNL1        0.0722
     23 C          -7.3906  -15.5492   25.0160 C.3     1  UNL1        0.0210
@<TRIPOS>BOND
     1     3     4    1
     2     4     5    2
     3     5     6    1
     4     6     7    1
     5     6     8    2
     6     8     9    1
     7     9    10    2
     8    10    11    1
     9    11    12    2
    10    12     1    1
    11     1     2    2
    12     1    14    1
    13    14    15    1
    14    15    16    1
    15    16    17    1
    16    17    18    1
    17    18    19    1
    18    19    20    1
    19    20    21    1
    20    19    22    1
    21    22    23    1
    22    12    13    1
    23    13     4    1
    24    13     9    1
    25    21    16    1
    26    23    16    1
@<TRIPOS>MOLECULE
*****
 23 26 0 0 0
SMALL
GASTEIGER

@<TRIPOS>ATOM
      1 C          -8.1814  -18.9924   20.4575 C.2     1  UNL1        0.3394
      2 O          -8.9131  -19.2506   19.1737 O.2     1  UNL1       -0.2452
      3 C         -10.9871  -17.4763   20.0964 C.3     1  UNL1        0.0271
      4 C         -11.2495  -17.9881   21.4817 C.2     1  UNL1       -0.0335
      5 C         -12.5492  -17.6764   22.1627 C.2     1  UNL1        0.0036
      6 C         -12.8116  -18.1882   23.5480 C.2     1  UNL1        0.0583
      7 CL        -14.1113  -17.8765   24.2290 Cl      1  UNL1       -0.0822
      8 C         -11.7744  -19.0116   24.2524 C.2     1  UNL1        0.0267
      9 C         -10.4747  -19.3233   23.5714 C.2     1  UNL1        0.0676
     10 N          -9.2727  -20.1047   24.0124 N.2     1  UNL1       -0.2476
     11 C          -8.2673  -20.0758   22.8996 C.2     1  UNL1        0.1013
     12 C          -8.8480  -19.2766   21.7708 C.2     1  UNL1        0.0814
     13 C         -10.2123  -18.8115   22.1861 C.3     1  UNL1        0.0886
     14 O          -6.7832  -18.4499   20.4279 O.3     1  UNL1       -0.4456
     15 C          -5.7306  -19.1344   19.6073 C.3     1  UNL1        0.2087
     16 C          -4.2922  -19.0701   20.0280 C.3     1  UNL1        0.0445
     17 C          -3.8587  -19.7041   21.3166 C.3     1  UNL1        0.0210
     18 C          -2.4203  -19.6399   21.7373 C.3     1  UNL1        0.0722
     19 N          -1.4155  -18.9418   20.8695 N.3     1  UNL1       -0.2727
     20 C          -1.8490  -18.3079   19.5810 C.3     1  UNL1        0.0722
     21 C          -3.2874  -18.3721   19.1603 C.3     1  UNL1        0.0210
     22 C          -2.1925  -18.9511   20.5971 C.3     1  UNL1        0.0722
     23 C          -3.4931  -19.0091   20.2167 C.3     1  UNL1        0.0210
@<TRIPOS>BOND
     1     3     4    1
     2     4     5    2
     3     5     6    1
     4     6     7    1
     5     6     8    2
     6     8     9    1
     7     9    10    2
     8    10    11    1
     9    11    12    2
    10    12     1    1
    11     1     2    2
    12     1    14    1
    13    14    15    1
    14    15    16    1
    15    16    17    1
    16    17    18    1
    17    18    19    1
    18    19    20    1
    19    20    21    1
    20    19    22    1
    21    22    23    1
    22    12    13    1
    23    13     4    1
    24    13     9    1
    25    21    16    1
    26    23    16    1
@<TRIPOS>MOLECULE
*****
 23 26 0 0 0
SMALL
GASTEIGER

@<TRIPOS>ATOM
      1 C         -10.8063  -16.2889   21.1310 C.2     1  UNL1        0.3394
      2 O         -10.9718  -15.6813   19.7696 O.2     1  UNL1       -0.2452
      3 C         -10.3067  -18.9453   19.4006 C.3     1  UNL1        0.0271
      4 C          -9.0006  -18.9764   20.1374 C.2     1  UNL1       -0.0335
      5 C          -8.0163  -20.0770   19.8730 C.2     1  UNL1        0.0036
      6 C          -6.7102  -20.1082   20.6098 C.2     1  UNL1        0.0583
      7 CL         -5.7259  -21.2088   20.3454 Cl      1  UNL1       -0.0822
      8 C          -6.3882  -19.0387   21.6112 C.2     1  UNL1        0.0267
      9 C          -7.3725  -17.9381   21.8756 C.2     1  UNL1        0.0676
     10 N          -7.3325  -16.7561   22.7983 N.2     1  UNL1       -0.2476
     11 C          -8.6139  -15.9945   22.6316 C.2     1  UNL1        0.1013
     12 C          -9.4459  -16.7057   21.6060 C.2     1  UNL1        0.0814
     13 C          -8.6786  -17.9069   21.1387 C.3     1  UNL1        0.0886
     14 O         -12.0012  -16.4797   22.0175 O.3     1  UNL1       -0.4456
     15 C         -12.3952  -17.8581   22.4587 C.3     1  UNL1        0.2087
     16 C         -11.4657  -18.6658   23.3153 C.3     1  UNL1        0.0445
     17 C         -10.9745  -18.1104   24.6193 C.3     1  UNL1        0.0210
     18 C         -10.0450  -18.9180   25.4759 C.3     1  UNL1        0.0722
     19 N          -9.6066  -20.2810   25.0284 N.3     1  UNL1       -0.2727
     20 C         -10.0978  -20.8364   23.7245 C.3     1  UNL1        0.0722
     21 C         -11.0274  -20.0287   22.8679 C.3     1  UNL1        0.0210
     22 C         -10.1170  -19.8758   24.5251 C.3     1  UNL1        0.0722
     23 C         -10.9575  -19.1455   23.7506 C.3     1  UNL1        0.0210
@<TRIPOS>BOND
     1     3     4    1
     2     4     5    2
     3     5     6    1
     4     6     7    1
     5     6     8    2
     6     8     9    1
     7     9    10    2
     8    10    11    1
     9    11    12    2
    10    12     1    1
    11     1     2    2
    12     1    14    1
    13    14    15    1
    14    15    16    1
    15    16    17    1
    16    17    18    1
    17    18    19    1
    18    19    20    1
    19    20    21    1
    20    19    22    1
    21    22    23    1
    22    12    13    1
    23    13     4    1
    24    13     9    1
    25    21    16    1
    26    23    16    1
@<TRIPOS>MOLECULE
*****
 23 26 0 0 0
SMALL
GASTEIGER

@<TRIPOS>ATOM
      1 C         -10.9579  -17.4312   20.3228 C.2     1  UNL1        0.3394
      2 O         -10.7203  -15.9786   20.0337 O.2     1  UNL1       -0.2452
      3 C          -8.7921  -16.4721   22.4885 C.3     1  UNL1        0.0271
      4 C          -7.9954  -17.6246   21.9528 C.2     1  UNL1       -0.0335
      5 C          -6.6370  -17.9229   22.5147 C.2     1  UNL1        0.0036
      6 C          -5.8403  -19.0753   21.9791 C.2     1  UNL1        0.0583
      7 CL         -4.4819  -19.3736   22.5410 Cl      1  UNL1       -0.0822
      8 C          -6.4020  -19.9297   20.8814 C.2     1  UNL1        0.0267
      9 C          -7.7604  -19.6314   20.3195 C.2     1  UNL1        0.0676
     10 N          -8.5685  -20.2929   19.2428 N.2     1  UNL1       -0.2476
     11 C          -9.8646  -19.5492   19.1130 C.2     1  UNL1        0.1013
     12 C          -9.8576  -18.4281   20.1095 C.2     1  UNL1        0.0814
     13 C          -8.5571  -18.4789   20.8552 C.3     1  UNL1        0.0886
     14 O         -12.2958  -17.8868   20.8253 O.3     1  UNL1       -0.4456
     15 C         -12.5465  -17.9929   22.3003 C.3     1  UNL1        0.2087
     16 C         -11.5537  -18.6913   23.1815 C.3     1  UNL1        0.0445
     17 C         -11.0340  -18.0099   24.4127 C.3     1  UNL1        0.0210
     18 C         -10.0412  -18.7083   25.2940 C.3     1  UNL1        0.0722
     19 N          -9.5681  -20.0881   24.9441 N.3     1  UNL1       -0.2727
     20 C         -10.0878  -20.7695   23.7130 C.3     1  UNL1        0.0722
     21 C         -11.0806  -20.0711   22.8317 C.3     1  UNL1        0.0210
     22 C         -10.1130  -19.7455   24.4305 C.3     1  UNL1        0.0722
     23 C         -11.0107  -19.1140   23.6337 C.3     1  UNL1        0.0210
@<TRIPOS>BOND
     1     3     4    1
     2     4     5    2
     3     5     6    1
     4     6     7    1
     5     6     8    2
     6     8     9    1
     7     9    10    2
     8    10    11    1
     9    11    12    2
    10    12     1    1
    11     1     2    2
    12     1    14    1
    13    14    15    1
    14    15    16    1
    15    16    17    1
    16    17    18    1
    17    18    19    1
    18    19    20    1
    19    20    21    1
    20    19    22    1
    21    22    23    1
    22    12    13    1
    23    13     4    1
    24    13     9    1
    25    21    16    1
    26    23    16    1
@<TRIPOS>MOLECULE
*****
 23 26 0 0 0
SMALL
GASTEIGER

@<TRIPOS>ATOM
      1 C          -9.5332  -18.2981   21.1422 C.2     1  UNL1        0.3394
      2 O         -10.6929  -17.7922   20.3364 O.2     1  UNL1       -0.2452
      3 C          -8.1421  -15.6695   22.3488 C.3     1  UNL1        0.0271
      4 C          -8.5034  -16.2886   23.6664 C.2     1  UNL1       -0.0335
      5 C          -8.1528  -15.5879   24.9455 C.2     1  UNL1        0.0036
      6 C          -8.5141  -16.2069   26.2631 C.2     1  UNL1        0.0583
      7 CL         -8.1634  -15.5062   27.5423 Cl      1  UNL1       -0.0822
      8 C          -9.2261  -17.5266   26.3018 C.2     1  UNL1        0.0267
      9 C          -9.5768  -18.2273   25.0227 C.2     1  UNL1        0.0676
     10 N         -10.2719  -19.5279   24.7488 N.2     1  UNL1       -0.2476
     11 C         -10.3402  -19.7128   23.2618 C.2     1  UNL1        0.1013
     12 C          -9.6873  -18.5263   22.6167 C.2     1  UNL1        0.0814
     13 C          -9.2154  -17.6083   23.7050 C.3     1  UNL1        0.0886
     14 O          -8.2196  -18.5759   20.4734 O.3     1  UNL1       -0.4456
     15 C          -7.4038  -19.7644   20.8875 C.3     1  UNL1        0.2087
     16 C          -5.9452  -19.6017   21.1978 C.3     1  UNL1        0.0445
     17 C          -4.9141  -20.2163   20.2982 C.3     1  UNL1        0.0210
     18 C          -3.4555  -20.0536   20.6085 C.3     1  UNL1        0.0722
     19 N          -3.0281  -19.2765   21.8182 N.3     1  UNL1       -0.2727
     20 C          -4.0593  -18.6620   22.7177 C.3     1  UNL1        0.0722
     21 C          -5.5178  -18.8246   22.4075 C.3     1  UNL1        0.0210
     22 C          -3.8390  -19.3385   21.6892 C.3     1  UNL1        0.0722
     23 C          -5.1578  -19.4856   21.4087 C.3     1  UNL1        0.0210
@<TRIPOS>BOND
     1     3     4    1
     2     4     5    2
     3     5     6    1
     4     6     7    1
     5     6     8    2
     6     8     9    1
     7     9    10    2
     8    10    11    1
     9    11    12    2
    10    12     1    1
    11     1     2    2
    12     1    14    1
    13    14    15    1
    14    15    16    1
    15    16    17    1
    16    17    18    1
    17    18    19    1
    18    19    20    1
    19    20    21    1
    20    19    22    1
    21    22    23    1
    22    12    13    1
    23    13     4    1
    24    13     9    1
    25    21    16    1
    26    23    16    1
@<TRIPOS>MOLECULE
*****
 23 26 0 0 0
SMALL
GASTEIGER

@<TRIPOS>ATOM
      1 C          -6.9787  -19.3720   20.7955 C.2     1  UNL1        0.3394
      2 O          -6.5758  -20.4025   21.8082 O.2     1  UNL1       -0.2452
      3 C          -7.8606  -17.2325   23.0193 C.3     1  UNL1        0.0271
      4 C          -9.2005  -17.3464   22.3547 C.2     1  UNL1       -0.0335
      5 C         -10.3606  -16.5430   22.8632 C.2     1  UNL1        0.0036
      6 C         -11.7005  -16.6568   22.1987 C.2     1  UNL1        0.0583
      7 CL        -12.8607  -15.8533   22.7073 Cl      1  UNL1       -0.0822
      8 C         -11.8803  -17.5741   21.0254 C.2     1  UNL1        0.0267
      9 C         -10.7202  -18.3775   20.5169 C.2     1  UNL1        0.0676
     10 N         -10.5960  -19.3574   19.3881 N.2     1  UNL1       -0.2476
     11 C          -9.1793  -19.8492   19.3551 C.2     1  UNL1        0.1013
     12 C          -8.4279  -19.1733   20.4635 C.2     1  UNL1        0.0814
     13 C          -9.3803  -18.2636   21.1815 C.3     1  UNL1        0.0886
     14 O          -5.9324  -18.5403   20.1147 O.3     1  UNL1       -0.4456
     15 C          -4.7610  -19.2032   19.4527 C.3     1  UNL1        0.2087
     16 C          -3.3656  -18.8779   19.8966 C.3     1  UNL1        0.0445
     17 C          -2.4107  -18.2189   18.9458 C.3     1  UNL1        0.0210
     18 C          -1.0152  -17.8936   19.3896 C.3     1  UNL1        0.0722
     19 N          -0.5747  -18.2273   20.7841 N.3     1  UNL1       -0.2727
     20 C          -1.5296  -18.8863   21.7348 C.3     1  UNL1        0.0722
     21 C          -2.9251  -19.2116   21.2910 C.3     1  UNL1        0.0210
     22 C          -1.3493  -18.4248   20.5865 C.3     1  UNL1        0.0722
     23 C          -2.6111  -18.7189   20.1852 C.3     1  UNL1        0.0210
@<TRIPOS>BOND
     1     3     4    1
     2     4     5    2
     3     5     6    1
     4     6     7    1
     5     6     8    2
     6     8     9    1
     7     9    10    2
     8    10    11    1
     9    11    12    2
    10    12     1    1
    11     1     2    2
    12     1    14    1
    13    14    15    1
    14    15    16    1
    15    16    17    1
    16    17    18    1
    17    18    19    1
    18    19    20    1
    19    20    21    1
    20    19    22    1
    21    22    23    1
    22    12    13    1
    23    13     4    1
    24    13     9    1
    25    21    16    1
    26    23    16    1
@<TRIPOS>MOLECULE
*****
 23 26 0 0 0
SMALL
GASTEIGER

@<TRIPOS>ATOM
      1 C          -6.7587  -18.9959   21.3297 C.2     1  UNL1        0.3394
      2 O          -6.4897  -20.4141   21.7374 O.2     1  UNL1       -0.2452
      3 C          -9.7391  -19.8930   20.5466 C.3     1  UNL1        0.0271
      4 C         -10.1351  -18.8574   21.5570 C.2     1  UNL1       -0.0335
      5 C         -11.5858  -18.6038   21.8419 C.2     1  UNL1        0.0036
      6 C         -11.9818  -17.5683   22.8522 C.2     1  UNL1        0.0583
      7 CL        -13.4325  -17.3147   23.1372 Cl      1  UNL1       -0.0822
      8 C         -10.9271  -16.7862   23.5776 C.2     1  UNL1        0.0267
      9 C          -9.4764  -17.0398   23.2927 C.2     1  UNL1        0.0676
     10 N          -8.2232  -16.4297   23.8467 N.2     1  UNL1       -0.2476
     11 C          -7.0526  -17.0881   23.1788 C.2     1  UNL1        0.1013
     12 C          -7.5824  -18.1053   22.2120 C.2     1  UNL1        0.0814
     13 C          -9.0804  -18.0754   22.2823 C.3     1  UNL1        0.0886
     14 O          -6.2041  -18.4682   20.0398 O.3     1  UNL1       -0.4456
     15 C          -5.0523  -19.1649   19.3780 C.3     1  UNL1        0.2087
     16 C          -3.6507  -18.9074   19.8462 C.3     1  UNL1        0.0445
     17 C          -2.7460  -18.0147   19.0495 C.3     1  UNL1        0.0210
     18 C          -1.3444  -17.7571   19.5176 C.3     1  UNL1        0.0722
     19 N          -0.8475  -18.3923   20.7825 N.3     1  UNL1       -0.2727
     20 C          -1.7522  -19.2849   21.5791 C.3     1  UNL1        0.0722
     21 C          -3.1538  -19.5425   21.1110 C.3     1  UNL1        0.0210
     22 C          -1.6234  -18.5631   20.5660 C.3     1  UNL1        0.0722
     23 C          -2.8907  -18.7959   20.1427 C.3     1  UNL1        0.0210
@<TRIPOS>BOND
     1     3     4    1
     2     4     5    2
     3     5     6    1
     4     6     7    1
     5     6     8    2
     6     8     9    1
     7     9    10    2
     8    10    11    1
     9    11    12    2
    10    12     1    1
    11     1     2    2
    12     1    14    1
    13    14    15    1
    14    15    16    1
    15    16    17    1
    16    17    18    1
    17    18    19    1
    18    19    20    1
    19    20    21    1
    20    19    22    1
    21    22    23    1
    22    12    13    1
    23    13     4    1
    24    13     9    1
    25    21    16    1
    26    23    16    1
