@<TRIPOS>MOLECULE
*****
 41 44 0 0 0
SMALL
GASTEIGER

@<TRIPOS>ATOM
      1 C           0.5962    2.0157   26.9298 C.ar    1  UNL1        0.0053
      2 C          -0.6380    2.4145   26.1764 C.ar    1  UNL1        0.0033
      3 C          -0.7141    2.1990   24.6940 C.ar    1  UNL1        0.0382
      4 C           0.4439    1.5847   23.9649 C.ar    1  UNL1        0.1529
      5 C           1.6781    1.1858   24.7182 C.ar    1  UNL1        0.0881
      6 C           1.7543    1.4013   26.2007 C.ar    1  UNL1        0.0181
      7 N           2.8361    0.5715   23.9892 N.am    1  UNL1       -0.2524
      8 C           2.7600    0.3560   22.5067 C.2     1  UNL1        0.2697
      9 O           3.9180   -0.2583   21.7776 O.2     1  UNL1       -0.2704
     10 C           1.5257    0.7549   21.7533 C.3     1  UNL1        0.2199
     11 C           0.5795    0.9658   20.6086 C.3     1  UNL1        0.0579
     12 O           0.3677    1.3692   22.4823 O.3     1  UNL1       -0.4686
     13 C           0.2679    1.1337   29.3515 C.ar    1  UNL1        0.0645
     14 N           0.3441    1.3492   30.8339 N.ar    1  UNL1       -0.2183
     15 C           0.8249    2.6621   31.3773 C.ar    1  UNL1        0.2145
     16 N           0.9011    2.8775   32.8598 N.pl3   1  UNL1       -0.3274
     17 N           1.2295    3.7595   30.4382 N.ar    1  UNL1       -0.1995
     18 C           1.1533    3.5440   28.9556 C.ar    1  UNL1        0.1293
     19 N           1.5579    4.6414   28.0165 N.pl3   1  UNL1       -0.3425
     20 C           0.6725    2.2311   28.4123 C.ar    1  UNL1        0.0449
     21 H           0.6356    2.1572   33.4762 H       1  UNL1        0.1452
     22 H           1.2167    3.7391   33.2164 H       1  UNL1        0.1452
     23 H           1.8735    5.5030   28.3731 H       1  UNL1        0.1437
     24 H           1.5079    4.5000   27.0435 H       1  UNL1        0.1437
     25 C          -1.6511   -0.5750   28.9668 C.3     1  UNL1        0.0067
     26 C          -0.2130   -0.1791   28.8081 C.3     1  UNL1        0.0460
     27 C           2.3551    0.2138   20.6267 C.ar    1  UNL1        0.0264
     28 C           3.1309    1.1509   19.7492 C.ar    1  UNL1        0.0293
     29 C           3.9604    0.6098   18.6226 C.ar    1  UNL1        0.1422
     30 F           4.7362    1.5470   17.7451 F       1  UNL1       -0.2041
     31 C           4.0140   -0.8683   18.3734 C.ar    1  UNL1        0.0592
     32 C           3.2382   -1.8054   19.2509 C.ar    1  UNL1        0.1422
     33 F           3.2919   -3.2836   19.0017 F       1  UNL1       -0.2041
     34 C           2.4088   -1.2644   20.3775 C.ar    1  UNL1        0.0293
     35 C           4.0703    0.1727   24.7425 C.3     1  UNL1        0.1080
     36 C           4.2236   -1.2341   25.2400 C.3     1  UNL1        0.1069
     37 C           4.9611   -2.2457   24.4136 C.2     1  UNL1        0.2243
     38 O           6.2927   -2.7617   24.8722 O.2     1  UNL1       -0.2750
     39 N           4.3668   -2.7412   23.1286 N.am    1  UNL1       -0.3026
     40 C           5.1042   -3.7528   22.3022 C.3     1  UNL1        0.1107
     41 H           3.4928   -2.4025   22.8276 H       1  UNL1        0.1495
@<TRIPOS>BOND
     1    25    26    1
     2    26    13    1
     3    13    14   ar
     4    14    15   ar
     5    15    16    1
     6    15    17   ar
     7    17    18   ar
     8    18    19    1
     9    18    20   ar
    10    20     1    1
    11     1     2   ar
    12     2     3   ar
    13     3     4   ar
    14     4     5   ar
    15     5     6   ar
    16     5     7    1
    17     7    35    1
    18    35    36    1
    19    36    37    1
    20    37    38    2
    21    37    39   am
    22    39    40    1
    23     7     8   am
    24     8     9    2
    25     8    10    1
    26    10    11    1
    27    10    27    1
    28    27    28   ar
    29    28    29   ar
    30    29    30    1
    31    29    31   ar
    32    31    32   ar
    33    32    33    1
    34    32    34   ar
    35    10    12    1
    36    20    13   ar
    37     6     1   ar
    38    34    27   ar
    39    12     4    1
    40    16    21    1
    41    16    22    1
    42    19    23    1
    43    19    24    1
    44    39    41    1
@<TRIPOS>MOLECULE
*****
 41 44 0 0 0
SMALL
GASTEIGER

@<TRIPOS>ATOM
      1 C           0.6376    1.9984   27.0330 C.ar    1  UNL1        0.0053
      2 C          -0.5930    2.3840   26.2670 C.ar    1  UNL1        0.0033
      3 C          -0.6628    2.1415   24.7884 C.ar    1  UNL1        0.0382
      4 C           0.4982    1.5134   24.0758 C.ar    1  UNL1        0.1529
      5 C           1.7288    1.1279   24.8418 C.ar    1  UNL1        0.0881
      6 C           1.7986    1.3704   26.3204 C.ar    1  UNL1        0.0181
      7 N           2.8898    0.4999   24.1292 N.am    1  UNL1       -0.2524
      8 C           2.8200    0.2574   22.6506 C.2     1  UNL1        0.2697
      9 O           3.9810   -0.3706   21.9379 O.2     1  UNL1       -0.2704
     10 C           1.5893    0.6429   21.8845 C.3     1  UNL1        0.2199
     11 C           0.6483    0.8334   20.7320 C.3     1  UNL1        0.0579
     12 O           0.4284    1.2710   22.5971 O.3     1  UNL1       -0.4686
     13 C           0.3545    1.1417   29.4694 C.ar    1  UNL1        0.0645
     14 N           0.4243    1.3841   30.9480 N.ar    1  UNL1       -0.2183
     15 C           0.8470    2.7258   31.4690 C.ar    1  UNL1        0.2145
     16 N           0.9167    2.9682   32.9476 N.pl3   1  UNL1       -0.3274
     17 N           1.1999    3.8250   30.5112 N.ar    1  UNL1       -0.1995
     18 C           1.1301    3.5825   29.0326 C.ar    1  UNL1        0.1293
     19 N           1.4830    4.6817   28.0748 N.pl3   1  UNL1       -0.3425
     20 C           0.7074    2.2409   28.5117 C.ar    1  UNL1        0.0449
     21 H           0.6851    2.2467   33.5761 H       1  UNL1        0.1452
     22 H           1.1941    3.8487   33.2895 H       1  UNL1        0.1452
     23 H           1.7604    5.5623   28.4167 H       1  UNL1        0.1437
     24 H           1.4372    4.5226   27.1044 H       1  UNL1        0.1437
     25 C          -1.5257   -0.5374   28.8406 C.3     1  UNL1        0.0067
     26 C          -0.0682   -0.2000   28.9484 C.3     1  UNL1        0.0460
     27 C           2.4234    0.0811   20.7717 C.ar    1  UNL1        0.0264
     28 C           2.4026   -1.3919   20.4889 C.ar    1  UNL1        0.0293
     29 C           3.2368   -1.9538   19.3760 C.ar    1  UNL1        0.1422
     30 F           3.2160   -3.4268   19.0933 F       1  UNL1       -0.2041
     31 C           4.0917   -1.0428   18.5459 C.ar    1  UNL1        0.0592
     32 C           4.1125    0.4301   18.8287 C.ar    1  UNL1        0.1422
     33 F           4.9675    1.3412   17.9986 F       1  UNL1       -0.2041
     34 C           3.2784    0.9921   19.9415 C.ar    1  UNL1        0.0293
     35 C           4.1204    0.1143   24.8951 C.3     1  UNL1        0.1080
     36 C           4.2658   -1.2801   25.4284 C.3     1  UNL1        0.1069
     37 C           4.3766   -1.5101   26.9065 C.2     1  UNL1        0.2243
     38 O           3.1408   -1.5353   27.7563 O.2     1  UNL1       -0.2750
     39 N           5.7232   -1.7149   27.5348 N.am    1  UNL1       -0.3026
     40 C           5.8340   -1.9449   29.0129 C.3     1  UNL1        0.1107
     41 H           6.5343   -1.6984   26.9771 H       1  UNL1        0.1495
@<TRIPOS>BOND
     1    25    26    1
     2    26    13    1
     3    13    14   ar
     4    14    15   ar
     5    15    16    1
     6    15    17   ar
     7    17    18   ar
     8    18    19    1
     9    18    20   ar
    10    20     1    1
    11     1     2   ar
    12     2     3   ar
    13     3     4   ar
    14     4     5   ar
    15     5     6   ar
    16     5     7    1
    17     7    35    1
    18    35    36    1
    19    36    37    1
    20    37    38    2
    21    37    39   am
    22    39    40    1
    23     7     8   am
    24     8     9    2
    25     8    10    1
    26    10    11    1
    27    10    27    1
    28    27    28   ar
    29    28    29   ar
    30    29    30    1
    31    29    31   ar
    32    31    32   ar
    33    32    33    1
    34    32    34   ar
    35    10    12    1
    36    20    13   ar
    37     6     1   ar
    38    34    27   ar
    39    12     4    1
    40    16    21    1
    41    16    22    1
    42    19    23    1
    43    19    24    1
    44    39    41    1
@<TRIPOS>MOLECULE
*****
 41 44 0 0 0
SMALL
GASTEIGER

@<TRIPOS>ATOM
      1 C           0.2320    2.4236   26.8562 C.ar    1  UNL1        0.0053
      2 C           1.1991    1.7650   25.9177 C.ar    1  UNL1        0.0033
      3 C           0.9806    1.8473   24.4361 C.ar    1  UNL1        0.0382
      4 C          -0.2051    2.5883   23.8929 C.ar    1  UNL1        0.1529
      5 C          -1.1722    3.2470   24.8313 C.ar    1  UNL1        0.0881
      6 C          -0.9537    3.1646   26.3130 C.ar    1  UNL1        0.0181
      7 N          -2.3579    3.9880   24.2881 N.am    1  UNL1       -0.2524
      8 C          -2.5764    4.0703   22.8064 C.2     1  UNL1        0.2697
      9 O          -3.7621    4.8113   22.2632 O.2     1  UNL1       -0.2704
     10 C          -1.6093    3.4116   21.8679 C.3     1  UNL1        0.2199
     11 C          -0.9777    2.9552   20.5861 C.3     1  UNL1        0.0579
     12 O          -0.4236    2.6706   22.4111 O.3     1  UNL1       -0.4686
     13 C          -0.0321    1.1440   29.1019 C.ar    1  UNL1        0.0645
     14 N           0.1864    1.0616   30.5835 N.ar    1  UNL1       -0.2183
     15 C           0.8875    2.1766   31.3014 C.ar    1  UNL1        0.2145
     16 N           1.1060    2.0943   32.7831 N.pl3   1  UNL1       -0.3274
     17 N           1.3701    3.3740   30.5375 N.ar    1  UNL1       -0.1995
     18 C           1.1516    3.4563   29.0558 C.ar    1  UNL1        0.1293
     19 N           1.6342    4.6536   28.2919 N.pl3   1  UNL1       -0.3425
     20 C           0.4505    2.3413   28.3380 C.ar    1  UNL1        0.0449
     21 H           0.7892    1.3084   33.2845 H       1  UNL1        0.1452
     22 H           1.5661    2.8261   33.2543 H       1  UNL1        0.1452
     23 H           2.0943    5.3854   28.7630 H       1  UNL1        0.1437
     24 H           1.4908    4.7076   27.3194 H       1  UNL1        0.1437
     25 C          -1.7855   -0.7732   29.0905 C.3     1  UNL1        0.0067
     26 C          -0.7332    0.0290   28.3840 C.3     1  UNL1        0.0460
     27 C          -2.5756    3.9941   20.8795 C.ar    1  UNL1        0.0264
     28 C          -2.3529    5.3748   20.3373 C.ar    1  UNL1        0.0293
     29 C          -3.3193    5.9573   19.3489 C.ar    1  UNL1        0.1422
     30 F          -3.0965    7.3381   18.8066 F       1  UNL1       -0.2041
     31 C          -4.5083    5.1592   18.9028 C.ar    1  UNL1        0.0592
     32 C          -4.7310    3.7785   19.4451 C.ar    1  UNL1        0.1422
     33 F          -5.9201    2.9803   18.9990 F       1  UNL1       -0.2041
     34 C          -3.7647    3.1959   20.4334 C.ar    1  UNL1        0.0293
     35 C          -3.3250    4.6466   25.2266 C.3     1  UNL1        0.1080
     36 C          -4.6104    3.9602   25.5824 C.3     1  UNL1        0.1069
     37 C          -5.9018    4.4261   24.9778 C.2     1  UNL1        0.2243
     38 O          -6.7366    5.4496   25.6887 O.2     1  UNL1       -0.2750
     39 N          -6.3583    3.8683   23.6623 N.am    1  UNL1       -0.3026
     40 C          -7.6495    4.3341   23.0577 C.3     1  UNL1        0.1107
     41 H          -5.8103    3.1965   23.1957 H       1  UNL1        0.1495
@<TRIPOS>BOND
     1    25    26    1
     2    26    13    1
     3    13    14   ar
     4    14    15   ar
     5    15    16    1
     6    15    17   ar
     7    17    18   ar
     8    18    19    1
     9    18    20   ar
    10    20     1    1
    11     1     2   ar
    12     2     3   ar
    13     3     4   ar
    14     4     5   ar
    15     5     6   ar
    16     5     7    1
    17     7    35    1
    18    35    36    1
    19    36    37    1
    20    37    38    2
    21    37    39   am
    22    39    40    1
    23     7     8   am
    24     8     9    2
    25     8    10    1
    26    10    11    1
    27    10    27    1
    28    27    28   ar
    29    28    29   ar
    30    29    30    1
    31    29    31   ar
    32    31    32   ar
    33    32    33    1
    34    32    34   ar
    35    10    12    1
    36    20    13   ar
    37     6     1   ar
    38    34    27   ar
    39    12     4    1
    40    16    21    1
    41    16    22    1
    42    19    23    1
    43    19    24    1
    44    39    41    1
@<TRIPOS>MOLECULE
*****
 41 44 0 0 0
SMALL
GASTEIGER

@<TRIPOS>ATOM
      1 C           0.2514    2.3235   26.7997 C.ar    1  UNL1        0.0053
      2 C           1.2062    1.6529   25.8571 C.ar    1  UNL1        0.0033
      3 C           0.9817    1.7371   24.3764 C.ar    1  UNL1        0.0382
      4 C          -0.1975    2.4919   23.8383 C.ar    1  UNL1        0.1529
      5 C          -1.1524    3.1625   24.7809 C.ar    1  UNL1        0.0881
      6 C          -0.9279    3.0783   26.2616 C.ar    1  UNL1        0.0181
      7 N          -2.3316    3.9174   24.2428 N.am    1  UNL1       -0.2524
      8 C          -2.5561    4.0016   22.7621 C.2     1  UNL1        0.2697
      9 O          -3.7353    4.7564   22.2240 O.2     1  UNL1       -0.2704
     10 C          -1.6012    3.3309   21.8194 C.3     1  UNL1        0.2199
     11 C          -0.9811    2.8664   20.5350 C.3     1  UNL1        0.0579
     12 O          -0.4220    2.5761   22.3575 O.3     1  UNL1       -0.4686
     13 C           1.0539    3.4098   29.0191 C.ar    1  UNL1        0.0645
     14 N           1.2783    3.3257   30.4998 N.ar    1  UNL1       -0.2183
     15 C           0.9246    2.0710   31.2419 C.ar    1  UNL1        0.2145
     16 N           1.1490    1.9868   32.7226 N.pl3   1  UNL1       -0.3274
     17 N           0.3465    0.9004   30.5033 N.ar    1  UNL1       -0.1995
     18 C           0.1221    0.9846   29.0225 C.ar    1  UNL1        0.1293
     19 N          -0.4560   -0.1859   28.2838 N.pl3   1  UNL1       -0.3425
     20 C           0.4758    2.2393   28.2805 C.ar    1  UNL1        0.0449
     21 H           1.5285    2.7551   33.2074 H       1  UNL1        0.1452
     22 H           0.9169    1.1633   33.2097 H       1  UNL1        0.1452
     23 H          -0.6882   -1.0094   28.7709 H       1  UNL1        0.1437
     24 H          -0.6033   -0.1307   27.3120 H       1  UNL1        0.1437
     25 C           0.5444    5.8839   28.4113 C.3     1  UNL1        0.0067
     26 C           1.4076    4.6646   28.2770 C.3     1  UNL1        0.0460
     27 C          -2.5651    3.9244   20.8353 C.ar    1  UNL1        0.0264
     28 C          -3.7699    3.1434   20.4012 C.ar    1  UNL1        0.0293
     29 C          -4.7338    3.7370   19.4170 C.ar    1  UNL1        0.1422
     30 F          -5.9387    2.9558   18.9829 F       1  UNL1       -0.2041
     31 C          -4.4930    5.1114   18.8670 C.ar    1  UNL1        0.0592
     32 C          -3.2883    5.8925   19.3011 C.ar    1  UNL1        0.1422
     33 F          -3.0474    7.2671   18.7510 F       1  UNL1       -0.2041
     34 C          -2.3243    5.2990   20.2852 C.ar    1  UNL1        0.0293
     35 C          -3.2865    4.5880   25.1854 C.3     1  UNL1        0.1080
     36 C          -4.5747    3.9137   25.5537 C.3     1  UNL1        0.1069
     37 C          -5.8673    4.3907   24.9603 C.2     1  UNL1        0.2243
     38 O          -6.6924    5.4133   25.6838 O.2     1  UNL1       -0.2750
     39 N          -6.3346    3.8450   23.6436 N.am    1  UNL1       -0.3026
     40 C          -7.6270    4.3220   23.0502 C.3     1  UNL1        0.1107
     41 H          -5.7930    3.1739   23.1687 H       1  UNL1        0.1495
@<TRIPOS>BOND
     1    25    26    1
     2    26    13    1
     3    13    14   ar
     4    14    15   ar
     5    15    16    1
     6    15    17   ar
     7    17    18   ar
     8    18    19    1
     9    18    20   ar
    10    20     1    1
    11     1     2   ar
    12     2     3   ar
    13     3     4   ar
    14     4     5   ar
    15     5     6   ar
    16     5     7    1
    17     7    35    1
    18    35    36    1
    19    36    37    1
    20    37    38    2
    21    37    39   am
    22    39    40    1
    23     7     8   am
    24     8     9    2
    25     8    10    1
    26    10    11    1
    27    10    27    1
    28    27    28   ar
    29    28    29   ar
    30    29    30    1
    31    29    31   ar
    32    31    32   ar
    33    32    33    1
    34    32    34   ar
    35    10    12    1
    36    20    13   ar
    37     6     1   ar
    38    34    27   ar
    39    12     4    1
    40    16    21    1
    41    16    22    1
    42    19    23    1
    43    19    24    1
    44    39    41    1
@<TRIPOS>MOLECULE
*****
 41 44 0 0 0
SMALL
GASTEIGER

@<TRIPOS>ATOM
      1 C           2.8561    0.4765   27.3541 C.ar    1  UNL1        0.0053
      2 C           3.6485   -0.6833   27.8804 C.ar    1  UNL1        0.0033
      3 C           4.2713   -1.6601   26.9276 C.ar    1  UNL1        0.0382
      4 C           4.1017   -1.4773   25.4485 C.ar    1  UNL1        0.1529
      5 C           3.3093   -0.3175   24.9222 C.ar    1  UNL1        0.0881
      6 C           2.6865    0.6593   25.8749 C.ar    1  UNL1        0.0181
      7 N           3.1397   -0.1347   23.4430 N.am    1  UNL1       -0.2524
      8 C           3.7625   -1.1115   22.4903 C.2     1  UNL1        0.2697
      9 O           3.5929   -0.9287   21.0112 O.2     1  UNL1       -0.2704
     10 C           4.5549   -2.2714   23.0166 C.3     1  UNL1        0.2199
     11 C           5.3890   -3.5180   23.0310 C.3     1  UNL1        0.0579
     12 O           4.7245   -2.4542   24.4957 O.3     1  UNL1       -0.4686
     13 C           0.9310    1.1238   28.9743 C.ar    1  UNL1        0.0645
     14 N           0.3082    2.1006   29.9271 N.ar    1  UNL1       -0.2183
     15 C           0.9876    3.4072   30.2124 C.ar    1  UNL1        0.2145
     16 N           0.3647    4.3841   31.1651 N.pl3   1  UNL1       -0.3274
     17 N           2.2898    3.7369   29.5449 N.ar    1  UNL1       -0.1995
     18 C           2.9126    2.7599   28.5921 C.ar    1  UNL1        0.1293
     19 N           4.2148    3.0896   27.9246 N.pl3   1  UNL1       -0.3425
     20 C           2.2333    1.4534   28.3068 C.ar    1  UNL1        0.0449
     21 H          -0.4900    4.1677   31.6032 H       1  UNL1        0.1452
     22 H           0.8106    5.2416   31.3523 H       1  UNL1        0.1452
     23 H           4.6607    3.9471   28.1118 H       1  UNL1        0.1437
     24 H           4.6236    2.4484   27.2992 H       1  UNL1        0.1437
     25 C          -1.2342   -0.3071   28.8531 C.3     1  UNL1        0.0067
     26 C           0.2517   -0.1828   28.6891 C.3     1  UNL1        0.0460
     27 C           4.6750   -2.5214   21.5425 C.ar    1  UNL1        0.0264
     28 C           5.7795   -1.8754   20.7598 C.ar    1  UNL1        0.0293
     29 C           5.8996   -2.1255   19.2856 C.ar    1  UNL1        0.1422
     30 F           7.0042   -1.4795   18.5029 F       1  UNL1       -0.2041
     31 C           4.9152   -3.0215   18.5943 C.ar    1  UNL1        0.0592
     32 C           3.8107   -3.6675   19.3770 C.ar    1  UNL1        0.1422
     33 F           2.8263   -4.5636   18.6856 F       1  UNL1       -0.2041
     34 C           3.6906   -3.4175   20.8512 C.ar    1  UNL1        0.0293
     35 C           2.3473    1.0251   22.9167 C.3     1  UNL1        0.1080
     36 C           0.9248    0.8268   22.4840 C.3     1  UNL1        0.1069
     37 C           0.5356    1.0645   21.0549 C.2     1  UNL1        0.2243
     38 O          -0.7736    1.7225   20.7337 O.2     1  UNL1       -0.2750
     39 N           1.4555    0.6443   19.9472 N.am    1  UNL1       -0.3026
     40 C           1.0663    0.8820   18.5182 C.3     1  UNL1        0.1107
     41 H           2.3147    0.2124   20.1580 H       1  UNL1        0.1495
@<TRIPOS>BOND
     1    25    26    1
     2    26    13    1
     3    13    14   ar
     4    14    15   ar
     5    15    16    1
     6    15    17   ar
     7    17    18   ar
     8    18    19    1
     9    18    20   ar
    10    20     1    1
    11     1     2   ar
    12     2     3   ar
    13     3     4   ar
    14     4     5   ar
    15     5     6   ar
    16     5     7    1
    17     7    35    1
    18    35    36    1
    19    36    37    1
    20    37    38    2
    21    37    39   am
    22    39    40    1
    23     7     8   am
    24     8     9    2
    25     8    10    1
    26    10    11    1
    27    10    27    1
    28    27    28   ar
    29    28    29   ar
    30    29    30    1
    31    29    31   ar
    32    31    32   ar
    33    32    33    1
    34    32    34   ar
    35    10    12    1
    36    20    13   ar
    37     6     1   ar
    38    34    27   ar
    39    12     4    1
    40    16    21    1
    41    16    22    1
    42    19    23    1
    43    19    24    1
    44    39    41    1
@<TRIPOS>MOLECULE
*****
 41 44 0 0 0
SMALL
GASTEIGER

@<TRIPOS>ATOM
      1 C           4.4455    1.1389   35.8493 C.ar    1  UNL1        0.0053
      2 C           4.7480   -0.2794   35.4661 C.ar    1  UNL1        0.0033
      3 C           4.3274   -0.7994   34.1235 C.ar    1  UNL1        0.0382
      4 C           3.6043    0.0988   33.1642 C.ar    1  UNL1        0.1529
      5 C           3.3019    1.5171   33.5474 C.ar    1  UNL1        0.0881
      6 C           3.7225    2.0372   34.8900 C.ar    1  UNL1        0.0181
      7 N           2.5788    2.4153   32.5880 N.am    1  UNL1       -0.2524
      8 C           2.1582    1.8952   31.2454 C.2     1  UNL1        0.2697
      9 O           1.4351    2.7935   30.2861 O.2     1  UNL1       -0.2704
     10 C           2.4606    0.4769   30.8622 C.3     1  UNL1        0.2199
     11 C           2.5190   -0.7813   30.0475 C.3     1  UNL1        0.0579
     12 O           3.1837   -0.4214   31.8215 O.3     1  UNL1       -0.4686
     13 C           3.8792    1.7068   38.3206 C.ar    1  UNL1        0.0645
     14 N           4.2998    2.2269   39.6631 N.ar    1  UNL1       -0.2183
     15 C           5.7073    2.6994   39.8772 C.ar    1  UNL1        0.2145
     16 N           6.1278    3.2195   41.2198 N.pl3   1  UNL1       -0.3274
     17 N           6.6942    2.6517   38.7486 N.ar    1  UNL1       -0.1995
     18 C           6.2736    2.1315   37.4059 C.ar    1  UNL1        0.1293
     19 N           7.2605    2.0838   36.2774 N.pl3   1  UNL1       -0.3425
     20 C           4.8661    1.6591   37.1920 C.ar    1  UNL1        0.0449
     21 H           5.4801    3.2508   41.9605 H       1  UNL1        0.1452
     22 H           7.0516    3.5295   41.3602 H       1  UNL1        0.1452
     23 H           8.1843    2.3939   36.4178 H       1  UNL1        0.1437
     24 H           6.9845    1.7424   35.3962 H       1  UNL1        0.1437
     25 C           1.7470    0.5144   39.2050 C.3     1  UNL1        0.0067
     26 C           2.4717    1.2343   38.1065 C.3     1  UNL1        0.0460
     27 C           1.7579    0.9382   29.6199 C.ar    1  UNL1        0.0264
     28 C           2.5461    1.5222   28.4853 C.ar    1  UNL1        0.0293
     29 C           1.8433    1.9835   27.2429 C.ar    1  UNL1        0.1422
     30 F           2.6317    2.5676   26.1083 F       1  UNL1       -0.2041
     31 C           0.3523    1.8608   27.1353 C.ar    1  UNL1        0.0592
     32 C          -0.4360    1.2767   28.2699 C.ar    1  UNL1        0.1422
     33 F          -1.9271    1.1539   28.1623 F       1  UNL1       -0.2041
     34 C           0.2667    0.8154   29.5122 C.ar    1  UNL1        0.0293
     35 C           2.2763    3.8336   32.9712 C.3     1  UNL1        0.1080
     36 C           0.9253    4.1916   33.5158 C.3     1  UNL1        0.1069
     37 C          -0.0225    5.0114   32.6914 C.2     1  UNL1        0.2243
     38 O          -1.3467    5.4258   33.2612 O.2     1  UNL1       -0.2750
     39 N           0.3539    5.4167   31.2971 N.am    1  UNL1       -0.3026
     40 C          -0.5938    6.2364   30.4726 C.3     1  UNL1        0.1107
     41 H           1.2231    5.1447   30.9231 H       1  UNL1        0.1495
@<TRIPOS>BOND
     1    25    26    1
     2    26    13    1
     3    13    14   ar
     4    14    15   ar
     5    15    16    1
     6    15    17   ar
     7    17    18   ar
     8    18    19    1
     9    18    20   ar
    10    20     1    1
    11     1     2   ar
    12     2     3   ar
    13     3     4   ar
    14     4     5   ar
    15     5     6   ar
    16     5     7    1
    17     7    35    1
    18    35    36    1
    19    36    37    1
    20    37    38    2
    21    37    39   am
    22    39    40    1
    23     7     8   am
    24     8     9    2
    25     8    10    1
    26    10    11    1
    27    10    27    1
    28    27    28   ar
    29    28    29   ar
    30    29    30    1
    31    29    31   ar
    32    31    32   ar
    33    32    33    1
    34    32    34   ar
    35    10    12    1
    36    20    13   ar
    37     6     1   ar
    38    34    27   ar
    39    12     4    1
    40    16    21    1
    41    16    22    1
    42    19    23    1
    43    19    24    1
    44    39    41    1
@<TRIPOS>MOLECULE
*****
 41 44 0 0 0
SMALL
GASTEIGER

@<TRIPOS>ATOM
      1 C          -0.2185    2.7128   26.8438 C.ar    1  UNL1        0.0053
      2 C           0.8466    2.4926   25.8108 C.ar    1  UNL1        0.0033
      3 C           0.5375    2.7031   24.3582 C.ar    1  UNL1        0.0382
      4 C          -0.8367    3.1339   23.9386 C.ar    1  UNL1        0.1529
      5 C          -1.9018    3.3542   24.9716 C.ar    1  UNL1        0.0881
      6 C          -1.5927    3.1436   26.4241 C.ar    1  UNL1        0.0181
      7 N          -3.2759    3.7849   24.5519 N.am    1  UNL1       -0.2524
      8 C          -3.5851    3.9955   23.0993 C.2     1  UNL1        0.2697
      9 O          -4.9592    4.4263   22.6797 O.2     1  UNL1       -0.2704
     10 C          -2.5200    3.7752   22.0663 C.3     1  UNL1        0.2199
     11 C          -1.8515    3.6949   20.7259 C.3     1  UNL1        0.0579
     12 O          -1.1458    3.3445   22.4859 O.3     1  UNL1       -0.4686
     13 C           0.5401    3.6565   29.1425 C.ar    1  UNL1        0.0645
     14 N           0.8492    3.4460   30.5951 N.ar    1  UNL1       -0.2183
     15 C           0.7087    2.0813   31.2018 C.ar    1  UNL1        0.2145
     16 N           1.0178    1.8708   32.6544 N.pl3   1  UNL1       -0.3274
     17 N           0.2592    0.9271   30.3557 N.ar    1  UNL1       -0.1995
     18 C          -0.0499    1.1377   28.9030 C.ar    1  UNL1        0.1293
     19 N          -0.4995   -0.0165   28.0570 N.pl3   1  UNL1       -0.3425
     20 C           0.0906    2.5023   28.2965 C.ar    1  UNL1        0.0449
     21 H           1.3129    2.6283   33.2096 H       1  UNL1        0.1452
     22 H           0.9256    0.9751   33.0525 H       1  UNL1        0.1452
     23 H          -0.5917   -0.9122   28.4551 H       1  UNL1        0.1437
     24 H          -0.7023    0.1217   27.1036 H       1  UNL1        0.1437
     25 C          -0.3158    6.0936   28.8632 C.3     1  UNL1        0.0067
     26 C           0.6806    5.0212   28.5359 C.3     1  UNL1        0.0460
     27 C          -3.6620    4.1781   21.1812 C.ar    1  UNL1        0.0264
     28 C          -3.9518    5.6308   20.9453 C.ar    1  UNL1        0.0293
     29 C          -5.0938    6.0337   20.0601 C.ar    1  UNL1        0.1422
     30 F          -5.3836    7.4865   19.8243 F       1  UNL1       -0.2041
     31 C          -5.9460    4.9840   19.4109 C.ar    1  UNL1        0.0592
     32 C          -5.6562    3.5313   19.6468 C.ar    1  UNL1        0.1422
     33 F          -6.5085    2.4814   18.9975 F       1  UNL1       -0.2041
     34 C          -4.5142    3.1283   20.5319 C.ar    1  UNL1        0.0293
     35 C          -4.3410    4.0052   25.5849 C.3     1  UNL1        0.1080
     36 C          -4.6404    5.3929   26.0694 C.3     1  UNL1        0.1069
     37 C          -6.0031    5.7235   26.6023 C.2     1  UNL1        0.2243
     38 O          -7.1655    5.8499   25.6627 O.2     1  UNL1       -0.2750
     39 N          -6.2033    5.9277   28.0748 N.am    1  UNL1       -0.3026
     40 C          -7.5659    6.2583   28.6077 C.3     1  UNL1        0.1107
     41 H          -5.4404    5.8447   28.6915 H       1  UNL1        0.1495
@<TRIPOS>BOND
     1    25    26    1
     2    26    13    1
     3    13    14   ar
     4    14    15   ar
     5    15    16    1
     6    15    17   ar
     7    17    18   ar
     8    18    19    1
     9    18    20   ar
    10    20     1    1
    11     1     2   ar
    12     2     3   ar
    13     3     4   ar
    14     4     5   ar
    15     5     6   ar
    16     5     7    1
    17     7    35    1
    18    35    36    1
    19    36    37    1
    20    37    38    2
    21    37    39   am
    22    39    40    1
    23     7     8   am
    24     8     9    2
    25     8    10    1
    26    10    11    1
    27    10    27    1
    28    27    28   ar
    29    28    29   ar
    30    29    30    1
    31    29    31   ar
    32    31    32   ar
    33    32    33    1
    34    32    34   ar
    35    10    12    1
    36    20    13   ar
    37     6     1   ar
    38    34    27   ar
    39    12     4    1
    40    16    21    1
    41    16    22    1
    42    19    23    1
    43    19    24    1
    44    39    41    1
@<TRIPOS>MOLECULE
*****
 41 44 0 0 0
SMALL
GASTEIGER

@<TRIPOS>ATOM
      1 C           0.6617    1.7585   26.8036 C.ar    1  UNL1        0.0053
      2 C          -0.5742    2.1477   26.0480 C.ar    1  UNL1        0.0033
      3 C          -0.6432    1.9380   24.5643 C.ar    1  UNL1        0.0382
      4 C           0.5236    1.3391   23.8364 C.ar    1  UNL1        0.1529
      5 C           1.7594    0.9499   24.5921 C.ar    1  UNL1        0.0881
      6 C           1.8285    1.1597   26.0757 C.ar    1  UNL1        0.0181
      7 N           2.9263    0.3511   23.8641 N.am    1  UNL1       -0.2524
      8 C           2.8572    0.1414   22.3805 C.2     1  UNL1        0.2697
      9 O           4.0240   -0.4575   21.6525 O.2     1  UNL1       -0.2704
     10 C           1.6212    0.5305   21.6247 C.3     1  UNL1        0.2199
     11 C           0.6766    0.7366   20.4779 C.3     1  UNL1        0.0579
     12 O           0.4544    1.1294   22.3527 O.3     1  UNL1       -0.4686
     13 C           1.1444    3.3008   28.8380 C.ar    1  UNL1        0.0645
     14 N           1.2135    3.5105   30.3216 N.ar    1  UNL1       -0.2183
     15 C           0.8691    2.3877   31.2547 C.ar    1  UNL1        0.2145
     16 N           0.9382    2.5974   32.7383 N.pl3   1  UNL1       -0.3274
     17 N           0.4555    1.0551   30.7041 N.ar    1  UNL1       -0.1995
     18 C           0.3864    0.8454   29.2204 C.ar    1  UNL1        0.1293
     19 N          -0.0271   -0.4872   28.6697 N.pl3   1  UNL1       -0.3425
     20 C           0.7308    1.9682   28.2874 C.ar    1  UNL1        0.0449
     21 H           1.2097    3.4720   33.0997 H       1  UNL1        0.1452
     22 H           0.7122    1.8604   33.3507 H       1  UNL1        0.1452
     23 H          -0.2532   -1.2242   29.2821 H       1  UNL1        0.1437
     24 H          -0.0725   -0.6249   27.6960 H       1  UNL1        0.1437
     25 C           2.9083    4.6228   27.4627 C.3     1  UNL1        0.0067
     26 C           1.4888    4.4237   27.9049 C.3     1  UNL1        0.0460
     27 C           2.4600    0.0032   20.4985 C.ar    1  UNL1        0.0264
     28 C           3.2366    0.9516   19.6339 C.ar    1  UNL1        0.0293
     29 C           4.0753    0.4242   18.5077 C.ar    1  UNL1        0.1422
     30 F           4.8519    1.3727   17.6431 F       1  UNL1       -0.2041
     31 C           4.1375   -1.0514   18.2460 C.ar    1  UNL1        0.0592
     32 C           3.3610   -1.9997   19.1106 C.ar    1  UNL1        0.1422
     33 F           3.4232   -3.4754   18.8489 F       1  UNL1       -0.2041
     34 C           2.5222   -1.4725   20.2369 C.ar    1  UNL1        0.0293
     35 C           4.1621   -0.0381   24.6198 C.3     1  UNL1        0.1080
     36 C           4.3343   -1.4484   25.1007 C.3     1  UNL1        0.1069
     37 C           5.0647   -2.4464   24.2518 C.2     1  UNL1        0.2243
     38 O           6.3904   -2.9855   24.7009 O.2     1  UNL1       -0.2750
     39 N           4.4694   -2.9053   22.9537 N.am    1  UNL1       -0.3026
     40 C           5.1997   -3.9032   22.1048 C.3     1  UNL1        0.1107
     41 H           3.5992   -2.5514   22.6589 H       1  UNL1        0.1495
@<TRIPOS>BOND
     1    25    26    1
     2    26    13    1
     3    13    14   ar
     4    14    15   ar
     5    15    16    1
     6    15    17   ar
     7    17    18   ar
     8    18    19    1
     9    18    20   ar
    10    20     1    1
    11     1     2   ar
    12     2     3   ar
    13     3     4   ar
    14     4     5   ar
    15     5     6   ar
    16     5     7    1
    17     7    35    1
    18    35    36    1
    19    36    37    1
    20    37    38    2
    21    37    39   am
    22    39    40    1
    23     7     8   am
    24     8     9    2
    25     8    10    1
    26    10    11    1
    27    10    27    1
    28    27    28   ar
    29    28    29   ar
    30    29    30    1
    31    29    31   ar
    32    31    32   ar
    33    32    33    1
    34    32    34   ar
    35    10    12    1
    36    20    13   ar
    37     6     1   ar
    38    34    27   ar
    39    12     4    1
    40    16    21    1
    41    16    22    1
    42    19    23    1
    43    19    24    1
    44    39    41    1
@<TRIPOS>MOLECULE
*****
 41 44 0 0 0
SMALL
GASTEIGER

@<TRIPOS>ATOM
      1 C          -4.7660  -18.8959   21.5912 C.ar    1  UNL1        0.0053
      2 C          -4.9404  -20.3509   21.9112 C.ar    1  UNL1        0.0033
      3 C          -6.2765  -20.8655   22.3585 C.ar    1  UNL1        0.0382
      4 C          -7.4381  -19.9250   22.4857 C.ar    1  UNL1        0.1529
      5 C          -7.2637  -18.4700   22.1657 C.ar    1  UNL1        0.0881
      6 C          -5.9276  -17.9555   21.7184 C.ar    1  UNL1        0.0181
      7 N          -8.4253  -17.5296   22.2930 N.am    1  UNL1       -0.2524
      8 C          -9.7613  -18.0441   22.7402 C.2     1  UNL1        0.2697
      9 O         -10.9230  -17.1036   22.8675 O.2     1  UNL1       -0.2704
     10 C          -9.9359  -19.4992   23.0603 C.3     1  UNL1        0.2199
     11 C         -10.5930  -20.7824   23.4745 C.3     1  UNL1        0.0579
     12 O          -8.7743  -20.4396   22.9330 O.3     1  UNL1       -0.4686
     13 C          -2.7424  -17.3010   21.9252 C.ar    1  UNL1        0.0645
     14 N          -1.4063  -16.7864   21.4779 N.ar    1  UNL1       -0.2183
     15 C          -0.7577  -17.3521   20.2494 C.ar    1  UNL1        0.2145
     16 N           0.5784  -16.8374   19.8021 N.pl3   1  UNL1       -0.3274
     17 N          -1.4451  -18.4324   19.4681 N.ar    1  UNL1       -0.1995
     18 C          -2.7812  -18.9470   19.9154 C.ar    1  UNL1        0.1293
     19 N          -3.4687  -20.0273   19.1341 N.pl3   1  UNL1       -0.3425
     20 C          -3.4298  -18.3813   21.1439 C.ar    1  UNL1        0.0449
     21 H           1.0296  -16.1284   20.3149 H       1  UNL1        0.1452
     22 H           1.0041  -17.2087   18.9958 H       1  UNL1        0.1452
     23 H          -3.0430  -20.3985   18.3278 H       1  UNL1        0.1437
     24 H          -4.3456  -20.3650   19.4277 H       1  UNL1        0.1437
     25 C          -3.5300  -17.5805   24.3852 C.3     1  UNL1        0.0067
     26 C          -3.3911  -16.7353   23.1537 C.3     1  UNL1        0.0460
     27 C         -11.3257  -19.0044   23.3314 C.ar    1  UNL1        0.0264
     28 C         -12.1977  -18.5579   22.1955 C.ar    1  UNL1        0.0293
     29 C         -13.5876  -18.0631   22.4666 C.ar    1  UNL1        0.1422
     30 F         -14.4596  -17.6166   21.3306 F       1  UNL1       -0.2041
     31 C         -14.1054  -18.0147   23.8735 C.ar    1  UNL1        0.0592
     32 C         -13.2333  -18.4611   25.0094 C.ar    1  UNL1        0.1422
     33 F         -13.7512  -18.4127   26.4163 F       1  UNL1       -0.2041
     34 C         -11.8435  -18.9560   24.7384 C.ar    1  UNL1        0.0293
     35 C          -8.2508  -16.0745   21.9729 C.3     1  UNL1        0.1080
     36 C          -7.4842  -15.1875   22.9086 C.3     1  UNL1        0.1069
     37 C          -7.6331  -15.3551   24.3918 C.2     1  UNL1        0.2243
     38 O          -8.9999  -15.4470   25.0028 O.2     1  UNL1       -0.2750
     39 N          -6.4151  -15.4308   25.2640 N.am    1  UNL1       -0.3026
     40 C          -6.5639  -15.5983   26.7471 C.3     1  UNL1        0.1107
     41 H          -5.5180  -15.3704   24.8630 H       1  UNL1        0.1495
@<TRIPOS>BOND
     1    25    26    1
     2    26    13    1
     3    13    14   ar
     4    14    15   ar
     5    15    16    1
     6    15    17   ar
     7    17    18   ar
     8    18    19    1
     9    18    20   ar
    10    20     1    1
    11     1     2   ar
    12     2     3   ar
    13     3     4   ar
    14     4     5   ar
    15     5     6   ar
    16     5     7    1
    17     7    35    1
    18    35    36    1
    19    36    37    1
    20    37    38    2
    21    37    39   am
    22    39    40    1
    23     7     8   am
    24     8     9    2
    25     8    10    1
    26    10    11    1
    27    10    27    1
    28    27    28   ar
    29    28    29   ar
    30    29    30    1
    31    29    31   ar
    32    31    32   ar
    33    32    33    1
    34    32    34   ar
    35    10    12    1
    36    20    13   ar
    37     6     1   ar
    38    34    27   ar
    39    12     4    1
    40    16    21    1
    41    16    22    1
    42    19    23    1
    43    19    24    1
    44    39    41    1
