@<TRIPOS>MOLECULE
*****
 35 39 0 0 0
SMALL
GASTEIGER

@<TRIPOS>ATOM
      1 C           8.5116   -5.1183   22.6137 C.ar    1  UNL1        0.0644
      2 C           8.8684   -6.5730   22.6959 C.ar    1  UNL1        0.0155
      3 C           8.7486   -7.3020   24.0014 C.ar    1  UNL1       -0.0032
      4 C           8.2719   -6.5763   25.2247 C.ar    1  UNL1       -0.0246
      5 C           7.9152   -5.1218   25.1424 C.ar    1  UNL1       -0.0234
      6 C           8.0351   -4.3927   23.8370 C.ar    1  UNL1        0.0113
      7 C           7.4236   -4.2163   26.2326 C.3     1  UNL1        0.0434
      8 C           7.1672   -4.5419   27.6743 C.3     1  UNL1        0.0771
      9 N           7.3392   -5.8533   28.3817 N.3     1  UNL1       -0.2671
     10 C           7.8101   -7.1630   27.8224 C.3     1  UNL1        0.0771
     11 C           8.2252   -7.4848   26.4173 C.3     1  UNL1        0.0434
     12 N           8.6315   -4.3894   21.3083 N.pl3   1  UNL1       -0.2150
     13 H           9.4703   -4.4340   20.7947 H       1  UNL1        0.1737
     14 S           7.4733   -3.5925   20.7852 S.O2    1  UNL1        0.0736
     15 O           8.2381   -2.3244   21.0238 O.2     1  UNL1       -0.1499
     16 O           6.7085   -4.8606   20.5466 O.2     1  UNL1       -0.1499
     17 C           1.2397    0.6098   18.3375 C.3     1  UNL1        0.0436
     18 C           1.7393    0.0153   19.6209 C.3     1  UNL1        0.1336
     19 C           0.4645    0.6419   20.1030 C.3     1  UNL1        0.0436
     20 C           1.7963   -0.3615   21.0717 C.3     1  UNL1        0.0448
     21 C           2.9545   -1.1584   21.5947 C.3     1  UNL1        0.0330
     22 C           4.0557   -1.5785   20.6669 C.ar    1  UNL1        0.0132
     23 C           5.2139   -2.3754   21.1900 C.ar    1  UNL1        0.0189
     24 C           6.3152   -2.7956   20.2622 C.ar    1  UNL1        0.1251
     25 C           6.2583   -2.4187   18.8114 C.ar    1  UNL1        0.0233
     26 C           5.1001   -1.6218   18.2884 C.ar    1  UNL1        0.0379
     27 C           3.9988   -1.2017   19.2161 C.ar    1  UNL1        0.1342
     28 O           2.8406   -0.4048   18.6932 O.3     1  UNL1       -0.4829
     29 C           6.9949   -5.8552   29.8416 C.3     1  UNL1        0.1180
     30 C           7.4802   -4.7468   30.7283 C.ar    1  UNL1        0.0693
     31 C           6.6311   -3.6747   31.3445 C.ar    1  UNL1        0.0379
     32 C           7.5260   -2.7813   32.1513 C.ar    1  UNL1        0.1211
     33 N           8.9281   -3.3012   32.0338 N.ar    1  UNL1       -0.1713
     34 N           8.8998   -4.5160   31.1543 N.ar    1  UNL1       -0.2784
     35 H           9.6766   -5.0653   30.9011 H       1  UNL1        0.1886
@<TRIPOS>BOND
     1    17    18    1
     2    18    19    1
     3    18    20    1
     4    20    21    1
     5    21    22    1
     6    22    23   ar
     7    23    24   ar
     8    24    14    1
     9    14    15    2
    10    14    16    2
    11    14    12    1
    12    12     1    1
    13     1     2   ar
    14     2     3   ar
    15     3     4   ar
    16     4     5   ar
    17     5     6   ar
    18     5     7    1
    19     7     8    1
    20     8     9    1
    21     9    29    1
    22    29    30    1
    23    30    31   ar
    24    31    32   ar
    25    32    33   ar
    26    33    34   ar
    27     9    10    1
    28    10    11    1
    29    24    25   ar
    30    25    26   ar
    31    26    27   ar
    32    27    28    1
    33    28    18    1
    34    27    22   ar
    35     6     1   ar
    36    34    30   ar
    37    11     4    1
    38    12    13    1
    39    34    35    1
@<TRIPOS>MOLECULE
*****
 35 39 0 0 0
SMALL
GASTEIGER

@<TRIPOS>ATOM
      1 C           7.6378   -4.8856   23.3546 C.ar    1  UNL1        0.0644
      2 C           8.3149   -6.2214   23.4391 C.ar    1  UNL1        0.0155
      3 C           8.4718   -6.9001   24.7676 C.ar    1  UNL1       -0.0032
      4 C           7.9514   -6.2429   26.0115 C.ar    1  UNL1       -0.0246
      5 C           7.2743   -4.9072   25.9270 C.ar    1  UNL1       -0.0234
      6 C           7.1175   -4.2285   24.5986 C.ar    1  UNL1        0.0113
      7 C           6.6880   -4.0840   27.0355 C.3     1  UNL1        0.0434
      8 C           6.6341   -4.3934   28.5023 C.3     1  UNL1        0.0771
      9 N           7.1531   -5.6022   29.2227 N.3     1  UNL1       -0.2671
     10 C           7.8542   -6.8004   28.6545 C.3     1  UNL1        0.0771
     11 C           8.2095   -7.0855   27.2254 C.3     1  UNL1        0.0434
     12 N           7.4811   -4.2070   22.0261 N.pl3   1  UNL1       -0.2150
     13 H           8.1430   -4.3605   21.3137 H       1  UNL1        0.1737
     14 S           6.3156   -3.2944   21.7830 S.O2    1  UNL1        0.0736
     15 O           7.2350   -2.1099   21.8223 O.2     1  UNL1       -0.1499
     16 O           5.3963   -4.4790   21.7437 O.2     1  UNL1       -0.1499
     17 C           0.2605    1.5294   20.1787 C.3     1  UNL1        0.0436
     18 C           1.3892    0.8831   19.4315 C.3     1  UNL1        0.1336
     19 C           0.7325    1.6349   18.3119 C.3     1  UNL1        0.0436
     20 C           2.2899    0.4978   18.2956 C.3     1  UNL1        0.0448
     21 C           3.4553   -0.4147   18.5386 C.3     1  UNL1        0.0330
     22 C           3.7200   -0.9420   19.9177 C.ar    1  UNL1        0.0132
     23 C           4.8855   -1.8546   20.1608 C.ar    1  UNL1        0.0189
     24 C           5.1502   -2.3819   21.5399 C.ar    1  UNL1        0.1251
     25 C           4.2496   -1.9967   22.6759 C.ar    1  UNL1        0.0233
     26 C           3.0842   -1.0841   22.4328 C.ar    1  UNL1        0.0379
     27 C           2.8194   -0.5568   21.0537 C.ar    1  UNL1        0.1342
     28 O           1.6540    0.3558   20.8106 O.3     1  UNL1       -0.4829
     29 C           6.9432   -5.6147   30.7079 C.3     1  UNL1        0.1180
     30 C           6.9948   -4.3317   31.4835 C.ar    1  UNL1        0.0693
     31 C           8.2218   -3.5110   31.7497 C.ar    1  UNL1        0.0379
     32 C           7.8136   -2.3164   32.5598 C.ar    1  UNL1        0.1211
     33 N           6.3344   -2.3987   32.7943 N.ar    1  UNL1       -0.1713
     34 N           5.8282   -3.6443   32.1291 N.ar    1  UNL1       -0.2784
     35 H           4.8944   -3.9559   32.1181 H       1  UNL1        0.1886
@<TRIPOS>BOND
     1    17    18    1
     2    18    19    1
     3    18    20    1
     4    20    21    1
     5    21    22    1
     6    22    23   ar
     7    23    24   ar
     8    24    14    1
     9    14    15    2
    10    14    16    2
    11    14    12    1
    12    12     1    1
    13     1     2   ar
    14     2     3   ar
    15     3     4   ar
    16     4     5   ar
    17     5     6   ar
    18     5     7    1
    19     7     8    1
    20     8     9    1
    21     9    29    1
    22    29    30    1
    23    30    31   ar
    24    31    32   ar
    25    32    33   ar
    26    33    34   ar
    27     9    10    1
    28    10    11    1
    29    24    25   ar
    30    25    26   ar
    31    26    27   ar
    32    27    28    1
    33    28    18    1
    34    27    22   ar
    35     6     1   ar
    36    34    30   ar
    37    11     4    1
    38    12    13    1
    39    34    35    1
@<TRIPOS>MOLECULE
*****
 35 39 0 0 0
SMALL
GASTEIGER

@<TRIPOS>ATOM
      1 C           1.8760    1.4001   25.8524 C.ar    1  UNL1        0.0644
      2 C           2.8294    0.4845   26.5613 C.ar    1  UNL1        0.0155
      3 C           3.5554   -0.5814   25.7953 C.ar    1  UNL1       -0.0032
      4 C           3.3280   -0.7316   24.3202 C.ar    1  UNL1       -0.0246
      5 C           2.3747    0.1840   23.6113 C.ar    1  UNL1       -0.0234
      6 C           1.6487    1.2499   24.3773 C.ar    1  UNL1        0.0113
      7 C           2.0053    0.2061   22.1576 C.3     1  UNL1        0.0434
      8 C           2.4981   -0.6822   21.0539 C.3     1  UNL1        0.0771
      9 N           3.4819   -1.8118   21.1313 N.3     1  UNL1       -0.2671
     10 C           4.2160   -2.3322   22.3314 C.3     1  UNL1        0.0771
     11 C           4.1475   -1.8514   23.7506 C.3     1  UNL1        0.0434
     12 N           1.1501    2.4660   26.6185 N.pl3   1  UNL1       -0.2150
     13 H           1.5958    2.9242   27.3672 H       1  UNL1        0.1737
     14 S          -0.2551    2.8336   26.2438 S.O2    1  UNL1        0.0736
     15 O           0.2387    4.1221   25.6559 O.2     1  UNL1       -0.1499
     16 O          -0.7490    1.5450   26.8318 O.2     1  UNL1       -0.1499
     17 C          -7.5786    4.7312   23.9472 C.3     1  UNL1        0.0436
     18 C          -6.2823    4.3399   23.3018 C.3     1  UNL1        0.1336
     19 C          -7.1388    4.5118   22.0824 C.3     1  UNL1        0.0436
     20 C          -5.2834    4.0083   22.2330 C.3     1  UNL1        0.0448
     21 C          -3.8782    3.6407   22.6076 C.3     1  UNL1        0.0330
     22 C          -3.4719    3.6047   24.0511 C.ar    1  UNL1        0.0132
     23 C          -2.0667    3.2371   24.4257 C.ar    1  UNL1        0.0189
     24 C          -1.6603    3.2012   25.8692 C.ar    1  UNL1        0.1251
     25 C          -2.6591    3.5328   26.9381 C.ar    1  UNL1        0.0233
     26 C          -4.0643    3.9004   26.5634 C.ar    1  UNL1        0.0379
     27 C          -4.4707    3.9363   25.1199 C.ar    1  UNL1        0.1342
     28 O          -5.8758    4.3039   24.7452 O.3     1  UNL1       -0.4829
     29 C           3.7698   -2.5139   19.8373 C.3     1  UNL1        0.1180
     30 C           4.9532   -2.1068   19.0102 C.ar    1  UNL1        0.0693
     31 C           5.6082   -0.7574   19.0123 C.ar    1  UNL1        0.0379
     32 C           6.7489   -0.7944   18.0391 C.ar    1  UNL1        0.1211
     33 N           6.7991   -2.1666   17.4355 N.ar    1  UNL1       -0.1713
     34 N           5.6891   -2.9778   18.0356 N.ar    1  UNL1       -0.2784
     35 H           5.4804   -3.9169   17.8266 H       1  UNL1        0.1886
@<TRIPOS>BOND
     1    17    18    1
     2    18    19    1
     3    18    20    1
     4    20    21    1
     5    21    22    1
     6    22    23   ar
     7    23    24   ar
     8    24    14    1
     9    14    15    2
    10    14    16    2
    11    14    12    1
    12    12     1    1
    13     1     2   ar
    14     2     3   ar
    15     3     4   ar
    16     4     5   ar
    17     5     6   ar
    18     5     7    1
    19     7     8    1
    20     8     9    1
    21     9    29    1
    22    29    30    1
    23    30    31   ar
    24    31    32   ar
    25    32    33   ar
    26    33    34   ar
    27     9    10    1
    28    10    11    1
    29    24    25   ar
    30    25    26   ar
    31    26    27   ar
    32    27    28    1
    33    28    18    1
    34    27    22   ar
    35     6     1   ar
    36    34    30   ar
    37    11     4    1
    38    12    13    1
    39    34    35    1
@<TRIPOS>MOLECULE
*****
 35 39 0 0 0
SMALL
GASTEIGER

@<TRIPOS>ATOM
      1 C           8.3391   -5.3019   24.3604 C.ar    1  UNL1        0.0644
      2 C           8.0083   -6.6834   24.8421 C.ar    1  UNL1        0.0155
      3 C           7.6890   -6.9169   26.2890 C.ar    1  UNL1       -0.0032
      4 C           7.7005   -5.7687   27.2543 C.ar    1  UNL1       -0.0246
      5 C           8.0313   -4.3873   26.7726 C.ar    1  UNL1       -0.0234
      6 C           8.3506   -4.1538   25.3257 C.ar    1  UNL1        0.0113
      7 C           8.0985   -3.1129   27.5611 C.3     1  UNL1        0.0434
      8 C           7.8516   -2.9055   29.0261 C.3     1  UNL1        0.0771
      9 N           7.4765   -3.9211   30.0642 N.3     1  UNL1       -0.2671
     10 C           7.2556   -5.3949   29.8940 C.3     1  UNL1        0.0771
     11 C           7.3552   -6.2172   28.6434 C.3     1  UNL1        0.0434
     12 N           8.6585   -5.0685   22.9135 N.pl3   1  UNL1       -0.2150
     13 H           9.4537   -5.4869   22.5112 H       1  UNL1        0.1737
     14 S           7.7661   -4.1977   22.0796 S.O2    1  UNL1        0.0736
     15 O           6.5604   -4.8483   22.6904 O.2     1  UNL1       -0.1499
     16 O           8.9719   -3.5471   21.4688 O.2     1  UNL1       -0.1499
     17 C           2.8268    0.3640   17.9200 C.3     1  UNL1        0.0436
     18 C           2.8184   -0.3725   19.2267 C.3     1  UNL1        0.1336
     19 C           1.4429    0.2251   19.2558 C.3     1  UNL1        0.0436
     20 C           2.3324   -0.9015   20.5436 C.3     1  UNL1        0.0448
     21 C           3.2247   -1.7723   21.3775 C.3     1  UNL1        0.0330
     22 C           4.6031   -2.1142   20.8946 C.ar    1  UNL1        0.0132
     23 C           5.4954   -2.9850   21.7285 C.ar    1  UNL1        0.0189
     24 C           6.8738   -3.3269   21.2457 C.ar    1  UNL1        0.1251
     25 C           7.3599   -2.7980   19.9288 C.ar    1  UNL1        0.0233
     26 C           6.4675   -1.9272   19.0950 C.ar    1  UNL1        0.0379
     27 C           5.0892   -1.5852   19.5778 C.ar    1  UNL1        0.1342
     28 O           4.1968   -0.7144   18.7439 O.3     1  UNL1       -0.4829
     29 C           7.2987   -3.3930   31.4569 C.3     1  UNL1        0.1180
     30 C           5.9835   -2.8041   31.8737 C.ar    1  UNL1        0.0693
     31 C           5.3624   -1.5551   31.3222 C.ar    1  UNL1        0.0379
     32 C           4.0536   -1.3400   32.0228 C.ar    1  UNL1        0.1211
     33 N           3.8658   -2.4561   33.0072 N.ar    1  UNL1       -0.1713
     34 N           5.0586   -3.3610   32.9151 N.ar    1  UNL1       -0.2784
     35 H           5.2082   -4.1771   33.4450 H       1  UNL1        0.1886
@<TRIPOS>BOND
     1    17    18    1
     2    18    19    1
     3    18    20    1
     4    20    21    1
     5    21    22    1
     6    22    23   ar
     7    23    24   ar
     8    24    14    1
     9    14    15    2
    10    14    16    2
    11    14    12    1
    12    12     1    1
    13     1     2   ar
    14     2     3   ar
    15     3     4   ar
    16     4     5   ar
    17     5     6   ar
    18     5     7    1
    19     7     8    1
    20     8     9    1
    21     9    29    1
    22    29    30    1
    23    30    31   ar
    24    31    32   ar
    25    32    33   ar
    26    33    34   ar
    27     9    10    1
    28    10    11    1
    29    24    25   ar
    30    25    26   ar
    31    26    27   ar
    32    27    28    1
    33    28    18    1
    34    27    22   ar
    35     6     1   ar
    36    34    30   ar
    37    11     4    1
    38    12    13    1
    39    34    35    1
@<TRIPOS>MOLECULE
*****
 35 39 0 0 0
SMALL
GASTEIGER

@<TRIPOS>ATOM
      1 C           5.0368   -2.0455   20.7052 C.ar    1  UNL1        0.0644
      2 C           4.1349   -2.5539   19.6199 C.ar    1  UNL1        0.0155
      3 C           2.7893   -1.9259   19.4073 C.ar    1  UNL1       -0.0032
      4 C           2.3457   -0.7895   20.2803 C.ar    1  UNL1       -0.0246
      5 C           3.2477   -0.2812   21.3656 C.ar    1  UNL1       -0.0234
      6 C           4.5932   -0.9091   21.5781 C.ar    1  UNL1        0.0113
      7 C           3.0025    0.8322   22.3404 C.3     1  UNL1        0.0434
      8 C           1.7946    1.7122   22.4706 C.3     1  UNL1        0.0771
      9 N           0.5339    1.6961   21.6582 N.3     1  UNL1       -0.2671
     10 C           0.1694    0.7961   20.5148 C.3     1  UNL1        0.0771
     11 C           0.9758   -0.3101   19.9016 C.3     1  UNL1        0.0434
     12 N           6.3823   -2.6735   20.9177 N.pl3   1  UNL1       -0.2150
     13 H           7.0686   -2.6170   20.2140 H       1  UNL1        0.1737
     14 S           6.6823   -3.3876   22.2023 S.O2    1  UNL1        0.0736
     15 O           5.5869   -4.3703   21.9117 O.2     1  UNL1       -0.1499
     16 O           7.7776   -2.4048   22.4928 O.2     1  UNL1       -0.1499
     17 C           8.4125   -7.3929   28.7956 C.3     1  UNL1        0.0436
     18 C           8.6168   -7.5513   27.3181 C.3     1  UNL1        0.1336
     19 C           9.2807   -8.8038   27.8086 C.3     1  UNL1        0.0436
     20 C           9.0517   -8.1447   26.0108 C.3     1  UNL1        0.0448
     21 C           8.7518   -7.4306   24.7262 C.3     1  UNL1        0.0330
     22 C           8.0170   -6.1232   24.7489 C.ar    1  UNL1        0.0132
     23 C           7.7171   -5.4091   23.4643 C.ar    1  UNL1        0.0189
     24 C           6.9822   -4.1016   23.4869 C.ar    1  UNL1        0.1251
     25 C           6.5472   -3.5082   24.7941 C.ar    1  UNL1        0.0233
     26 C           6.8472   -4.2223   26.0786 C.ar    1  UNL1        0.0379
     27 C           7.5820   -5.5297   26.0561 C.ar    1  UNL1        0.1342
     28 O           7.8820   -6.2439   27.3406 O.3     1  UNL1       -0.4829
     29 C          -0.4991    2.7148   22.0394 C.3     1  UNL1        0.1180
     30 C          -1.4736    3.2147   21.0145 C.ar    1  UNL1        0.0693
     31 C          -1.1781    4.2026   19.9250 C.ar    1  UNL1        0.0379
     32 C          -2.4366    4.4129   19.1364 C.ar    1  UNL1        0.1211
     33 N          -3.5098    3.5551   19.7383 N.ar    1  UNL1       -0.1713
     34 N          -2.9146    2.8145   20.8991 N.ar    1  UNL1       -0.2784
     35 H          -3.3869    2.1776   21.4827 H       1  UNL1        0.1886
@<TRIPOS>BOND
     1    17    18    1
     2    18    19    1
     3    18    20    1
     4    20    21    1
     5    21    22    1
     6    22    23   ar
     7    23    24   ar
     8    24    14    1
     9    14    15    2
    10    14    16    2
    11    14    12    1
    12    12     1    1
    13     1     2   ar
    14     2     3   ar
    15     3     4   ar
    16     4     5   ar
    17     5     6   ar
    18     5     7    1
    19     7     8    1
    20     8     9    1
    21     9    29    1
    22    29    30    1
    23    30    31   ar
    24    31    32   ar
    25    32    33   ar
    26    33    34   ar
    27     9    10    1
    28    10    11    1
    29    24    25   ar
    30    25    26   ar
    31    26    27   ar
    32    27    28    1
    33    28    18    1
    34    27    22   ar
    35     6     1   ar
    36    34    30   ar
    37    11     4    1
    38    12    13    1
    39    34    35    1
@<TRIPOS>MOLECULE
*****
 35 39 0 0 0
SMALL
GASTEIGER

@<TRIPOS>ATOM
      1 C           8.5268   -4.5359   21.1184 C.ar    1  UNL1        0.0644
      2 C           9.4006   -3.6931   20.2375 C.ar    1  UNL1        0.0155
      3 C           8.7944   -2.6098   19.3954 C.ar    1  UNL1       -0.0032
      4 C           7.3142   -2.3695   19.4342 C.ar    1  UNL1       -0.0246
      5 C           6.4405   -3.2124   20.3151 C.ar    1  UNL1       -0.0234
      6 C           7.0466   -4.2955   21.1572 C.ar    1  UNL1        0.0113
      7 C           4.9538   -3.1405   20.5017 C.3     1  UNL1        0.0434
      8 C           3.9738   -2.2079   19.8535 C.3     1  UNL1        0.0771
      9 N           4.2385   -1.1171   18.8587 N.3     1  UNL1       -0.2671
     10 C           5.5485   -0.6892   18.2662 C.3     1  UNL1        0.0771
     11 C           6.9173   -1.2466   18.5223 C.3     1  UNL1        0.0434
     12 N           9.1331   -5.6191   21.9605 N.pl3   1  UNL1       -0.2150
     13 H           9.7486   -6.2716   21.5548 H       1  UNL1        0.1737
     14 S           8.8016   -5.7080   23.4207 S.O2    1  UNL1        0.0736
     15 O           9.3865   -4.3437   23.6366 O.2     1  UNL1       -0.1499
     16 O           8.2166   -7.0722   23.2048 O.2     1  UNL1       -0.1499
     17 C           7.0078   -5.8448   31.1196 C.3     1  UNL1        0.0436
     18 C           7.1237   -4.8228   30.0277 C.3     1  UNL1        0.1336
     19 C           6.7318   -3.9369   31.1730 C.3     1  UNL1        0.0436
     20 C           7.1036   -3.4932   29.3336 C.3     1  UNL1        0.0448
     21 C           7.4351   -3.4043   27.8733 C.3     1  UNL1        0.0330
     22 C           7.7868   -4.6450   27.1073 C.ar    1  UNL1        0.0132
     23 C           8.1183   -4.5561   25.6471 C.ar    1  UNL1        0.0189
     24 C           8.4700   -5.7969   24.8809 C.ar    1  UNL1        0.1251
     25 C           8.4902   -7.1265   25.5750 C.ar    1  UNL1        0.0233
     26 C           8.1587   -7.2153   27.0352 C.ar    1  UNL1        0.0379
     27 C           7.8070   -5.9747   27.8013 C.ar    1  UNL1        0.1342
     28 O           7.4754   -6.0635   29.2615 O.3     1  UNL1       -0.4829
     29 C           3.0340   -0.3529   18.3949 C.3     1  UNL1        0.1180
     30 C           2.0411    0.1613   19.3948 C.ar    1  UNL1        0.0693
     31 C           2.1252    1.4660   20.1301 C.ar    1  UNL1        0.0379
     32 C           0.9258    1.5720   21.0247 C.ar    1  UNL1        0.1211
     33 N           0.1005    0.3328   20.8424 N.ar    1  UNL1       -0.1713
     34 N           0.7897   -0.5391   19.8350 N.ar    1  UNL1       -0.2784
     35 H           0.4759   -1.4169   19.5184 H       1  UNL1        0.1886
@<TRIPOS>BOND
     1    17    18    1
     2    18    19    1
     3    18    20    1
     4    20    21    1
     5    21    22    1
     6    22    23   ar
     7    23    24   ar
     8    24    14    1
     9    14    15    2
    10    14    16    2
    11    14    12    1
    12    12     1    1
    13     1     2   ar
    14     2     3   ar
    15     3     4   ar
    16     4     5   ar
    17     5     6   ar
    18     5     7    1
    19     7     8    1
    20     8     9    1
    21     9    29    1
    22    29    30    1
    23    30    31   ar
    24    31    32   ar
    25    32    33   ar
    26    33    34   ar
    27     9    10    1
    28    10    11    1
    29    24    25   ar
    30    25    26   ar
    31    26    27   ar
    32    27    28    1
    33    28    18    1
    34    27    22   ar
    35     6     1   ar
    36    34    30   ar
    37    11     4    1
    38    12    13    1
    39    34    35    1
@<TRIPOS>MOLECULE
*****
 35 39 0 0 0
SMALL
GASTEIGER

@<TRIPOS>ATOM
      1 C           4.3283   -0.5811   30.6669 C.ar    1  UNL1        0.0644
      2 C           5.0403   -1.7199   31.3349 C.ar    1  UNL1        0.0155
      3 C           5.2107   -1.7271   32.8252 C.ar    1  UNL1       -0.0032
      4 C           4.6691   -0.5954   33.6475 C.ar    1  UNL1       -0.0246
      5 C           3.9573    0.5433   32.9795 C.ar    1  UNL1       -0.0234
      6 C           3.7868    0.5506   31.4892 C.ar    1  UNL1        0.0113
      7 C           3.3458    1.7610   33.6068 C.3     1  UNL1        0.0434
      8 C           3.2954    2.1405   35.0572 C.3     1  UNL1        0.0771
      9 N           3.8438    1.3961   36.2383 N.3     1  UNL1       -0.2671
     10 C           4.5782    0.0884   36.2609 C.3     1  UNL1        0.0771
     11 C           4.9455   -0.7980   35.1078 C.3     1  UNL1        0.0434
     12 N           4.1579   -0.5740   29.1767 N.pl3   1  UNL1       -0.2150
     13 H           4.8328   -1.0024   28.6020 H       1  UNL1        0.1737
     14 S           2.9593    0.0860   28.5620 S.O2    1  UNL1        0.0736
     15 O           2.0676   -0.9342   29.2055 O.2     1  UNL1       -0.1499
     16 O           3.8510    1.1062   27.9185 O.2     1  UNL1       -0.1499
     17 C          -3.1853    3.5975   25.0376 C.3     1  UNL1        0.0436
     18 C          -1.7849    3.1963   24.6801 C.3     1  UNL1        0.1336
     19 C          -2.2208    3.8062   23.3808 C.3     1  UNL1        0.0436
     20 C          -0.5358    3.0068   23.8713 C.3     1  UNL1        0.0448
     21 C           0.6629    2.3469   24.4859 C.3     1  UNL1        0.0330
     22 C           0.6124    1.8764   25.9093 C.ar    1  UNL1        0.0132
     23 C           1.8111    1.2165   26.5240 C.ar    1  UNL1        0.0189
     24 C           1.7607    0.7459   27.9474 C.ar    1  UNL1        0.1251
     25 C           0.5117    0.9353   28.7562 C.ar    1  UNL1        0.0233
     26 C          -0.6869    1.5953   28.1415 C.ar    1  UNL1        0.0379
     27 C          -0.6366    2.0658   26.7181 C.ar    1  UNL1        0.1342
     28 O          -1.8352    2.7258   26.1034 O.3     1  UNL1       -0.4829
     29 C           3.6296    2.0453   37.5734 C.3     1  UNL1        0.1180
     30 C           2.3044    1.9191   38.2649 C.ar    1  UNL1        0.0693
     31 C           1.8665    0.7740   39.1292 C.ar    1  UNL1        0.0379
     32 C           0.4760    1.0630   39.6118 C.ar    1  UNL1        0.1211
     33 N           0.0545    2.3866   39.0458 N.ar    1  UNL1       -0.1713
     34 N           1.1846    2.9158   38.2133 N.ar    1  UNL1       -0.2784
     35 H           1.1903    3.7676   37.7197 H       1  UNL1        0.1886
@<TRIPOS>BOND
     1    17    18    1
     2    18    19    1
     3    18    20    1
     4    20    21    1
     5    21    22    1
     6    22    23   ar
     7    23    24   ar
     8    24    14    1
     9    14    15    2
    10    14    16    2
    11    14    12    1
    12    12     1    1
    13     1     2   ar
    14     2     3   ar
    15     3     4   ar
    16     4     5   ar
    17     5     6   ar
    18     5     7    1
    19     7     8    1
    20     8     9    1
    21     9    29    1
    22    29    30    1
    23    30    31   ar
    24    31    32   ar
    25    32    33   ar
    26    33    34   ar
    27     9    10    1
    28    10    11    1
    29    24    25   ar
    30    25    26   ar
    31    26    27   ar
    32    27    28    1
    33    28    18    1
    34    27    22   ar
    35     6     1   ar
    36    34    30   ar
    37    11     4    1
    38    12    13    1
    39    34    35    1
@<TRIPOS>MOLECULE
*****
 35 39 0 0 0
SMALL
GASTEIGER

@<TRIPOS>ATOM
      1 C          -0.6105    3.5618   18.8868 C.ar    1  UNL1        0.0644
      2 C          -1.8093    3.8244   18.0243 C.ar    1  UNL1        0.0155
      3 C          -3.1559    4.0270   18.6533 C.ar    1  UNL1       -0.0032
      4 C          -3.3037    3.9670   20.1449 C.ar    1  UNL1       -0.0246
      5 C          -2.1049    3.7044   21.0072 C.ar    1  UNL1       -0.0234
      6 C          -0.7583    3.5018   20.3783 C.ar    1  UNL1        0.0113
      7 C          -2.0319    3.6050   22.5022 C.3     1  UNL1        0.0434
      8 C          -3.1399    3.7437   23.5039 C.3     1  UNL1        0.0771
      9 N          -4.5942    4.0160   23.2580 N.3     1  UNL1       -0.2671
     10 C          -5.3001    4.2169   21.9498 C.3     1  UNL1        0.0771
     11 C          -4.7257    4.1951   20.5643 C.3     1  UNL1        0.0434
     12 N           0.7361    3.3592   18.2577 N.pl3   1  UNL1       -0.2150
     13 H           1.0659    3.9973   17.5845 H       1  UNL1        0.1737
     14 S           1.5800    2.1843   18.6545 S.O2    1  UNL1        0.0736
     15 O           2.6110    3.1158   19.2196 O.2     1  UNL1       -0.1499
     16 O           0.5490    1.2528   18.0893 O.2     1  UNL1       -0.1499
     17 C           5.9213   -3.9697   21.0608 C.3     1  UNL1        0.0436
     18 C           4.9778   -2.9749   21.6692 C.3     1  UNL1        0.1336
     19 C           5.3274   -3.7801   22.8856 C.3     1  UNL1        0.0436
     20 C           4.1557   -2.2597   22.7001 C.3     1  UNL1        0.0448
     21 C           3.3117   -1.0848   22.3033 C.3     1  UNL1        0.0330
     22 C           3.2899   -0.6252   20.8757 C.ar    1  UNL1        0.0132
     23 C           2.4459    0.5497   20.4789 C.ar    1  UNL1        0.0189
     24 C           2.4240    1.0094   19.0513 C.ar    1  UNL1        0.1251
     25 C           3.2461    0.2943   18.0203 C.ar    1  UNL1        0.0233
     26 C           4.0900   -0.8805   18.4172 C.ar    1  UNL1        0.0379
     27 C           4.1120   -1.3403   19.8448 C.ar    1  UNL1        0.1342
     28 O           4.9559   -2.5151   20.2416 O.3     1  UNL1       -0.4829
     29 C          -5.4570    4.0983   24.4823 C.3     1  UNL1        0.1180
     30 C          -6.8183    4.7231   24.4000 C.ar    1  UNL1        0.0693
     31 C          -7.1994    6.0781   24.9185 C.ar    1  UNL1        0.0379
     32 C          -8.6540    6.2949   24.6237 C.ar    1  UNL1        0.1211
     33 N          -9.1720    5.0740   23.9229 N.ar    1  UNL1       -0.1713
     34 N          -8.0374    4.1025   23.7846 N.ar    1  UNL1       -0.2784
     35 H          -8.0846    3.2137   23.3638 H       1  UNL1        0.1886
@<TRIPOS>BOND
     1    17    18    1
     2    18    19    1
     3    18    20    1
     4    20    21    1
     5    21    22    1
     6    22    23   ar
     7    23    24   ar
     8    24    14    1
     9    14    15    2
    10    14    16    2
    11    14    12    1
    12    12     1    1
    13     1     2   ar
    14     2     3   ar
    15     3     4   ar
    16     4     5   ar
    17     5     6   ar
    18     5     7    1
    19     7     8    1
    20     8     9    1
    21     9    29    1
    22    29    30    1
    23    30    31   ar
    24    31    32   ar
    25    32    33   ar
    26    33    34   ar
    27     9    10    1
    28    10    11    1
    29    24    25   ar
    30    25    26   ar
    31    26    27   ar
    32    27    28    1
    33    28    18    1
    34    27    22   ar
    35     6     1   ar
    36    34    30   ar
    37    11     4    1
    38    12    13    1
    39    34    35    1
@<TRIPOS>MOLECULE
*****
 35 39 0 0 0
SMALL
GASTEIGER

@<TRIPOS>ATOM
      1 C           7.1717   -3.2404   20.8650 C.ar    1  UNL1        0.0644
      2 C           7.7642   -2.7916   19.5621 C.ar    1  UNL1        0.0155
      3 C           6.9575   -1.9435   18.6240 C.ar    1  UNL1       -0.0032
      4 C           5.5584   -1.5442   18.9889 C.ar    1  UNL1       -0.0246
      5 C           4.9660   -1.9930   20.2917 C.ar    1  UNL1       -0.0234
      6 C           5.7726   -2.8411   21.2298 C.ar    1  UNL1        0.0113
      7 C           3.6009   -1.7097   20.8454 C.3     1  UNL1        0.0434
      8 C           2.4912   -0.9076   20.2327 C.3     1  UNL1        0.0771
      9 N           2.4725   -0.1908   18.9153 N.3     1  UNL1       -0.2671
     10 C           3.5588   -0.0989   17.8850 C.3     1  UNL1        0.0771
     11 C           4.9322   -0.7012   17.9177 C.3     1  UNL1        0.0434
     12 N           7.9784   -4.0886   21.8031 N.pl3   1  UNL1       -0.2150
     13 H           8.6616   -4.7020   21.4480 H       1  UNL1        0.1737
     14 S           7.7440   -4.0019   23.2821 S.O2    1  UNL1        0.0736
     15 O           7.1113   -5.3618   23.2615 O.2     1  UNL1       -0.1499
     16 O           8.3767   -2.6420   23.3027 O.2     1  UNL1       -0.1499
     17 C           6.5989   -3.8670   31.1038 C.3     1  UNL1        0.0436
     18 C           7.0347   -4.8580   30.0655 C.3     1  UNL1        0.1336
     19 C           7.1114   -5.7164   31.2933 C.3     1  UNL1        0.0436
     20 C           7.4970   -6.1471   29.4536 C.3     1  UNL1        0.0448
     21 C           7.7314   -6.2338   27.9745 C.3     1  UNL1        0.0330
     22 C           7.5033   -5.0312   27.1074 C.ar    1  UNL1        0.0132
     23 C           7.7377   -5.1179   25.6284 C.ar    1  UNL1        0.0189
     24 C           7.5097   -3.9153   24.7612 C.ar    1  UNL1        0.1251
     25 C           7.0473   -2.6262   25.3730 C.ar    1  UNL1        0.0233
     26 C           6.8130   -2.5396   26.8521 C.ar    1  UNL1        0.0379
     27 C           7.0410   -3.7421   27.7193 C.ar    1  UNL1        0.1342
     28 O           6.8067   -3.6555   29.1983 O.3     1  UNL1       -0.4829
     29 C           1.1990    0.5294   18.5843 C.3     1  UNL1        0.1180
     30 C           0.5890    1.4707   19.5803 C.ar    1  UNL1        0.0693
     31 C           1.0360    2.8761   19.8538 C.ar    1  UNL1        0.0379
     32 C           0.1481    3.4457   20.9202 C.ar    1  UNL1        0.1211
     33 N          -0.8477    2.3923   21.3058 N.ar    1  UNL1       -0.1713
     34 N          -0.5752    1.1715   20.4777 N.ar    1  UNL1       -0.2784
     35 H          -1.0731    0.3231   20.5164 H       1  UNL1        0.1886
@<TRIPOS>BOND
     1    17    18    1
     2    18    19    1
     3    18    20    1
     4    20    21    1
     5    21    22    1
     6    22    23   ar
     7    23    24   ar
     8    24    14    1
     9    14    15    2
    10    14    16    2
    11    14    12    1
    12    12     1    1
    13     1     2   ar
    14     2     3   ar
    15     3     4   ar
    16     4     5   ar
    17     5     6   ar
    18     5     7    1
    19     7     8    1
    20     8     9    1
    21     9    29    1
    22    29    30    1
    23    30    31   ar
    24    31    32   ar
    25    32    33   ar
    26    33    34   ar
    27     9    10    1
    28    10    11    1
    29    24    25   ar
    30    25    26   ar
    31    26    27   ar
    32    27    28    1
    33    28    18    1
    34    27    22   ar
    35     6     1   ar
    36    34    30   ar
    37    11     4    1
    38    12    13    1
    39    34    35    1
