@<TRIPOS>MOLECULE
*****
 16 18 0 0 0
SMALL
GASTEIGER

@<TRIPOS>ATOM
      1 O          -9.0690  -18.1674   20.5023 O.3     1  UNL1       -0.4724
      2 CL        -13.9109  -17.9293   24.0378 Cl      1  UNL1       -0.0613
      3 C         -12.7004  -17.9888   23.1539 C.ar    1  UNL1        0.1386
      4 C         -12.8374  -17.7589   21.6780 C.ar    1  UNL1        0.0339
      5 C         -11.6269  -17.8185   20.7941 C.ar    1  UNL1        0.0410
      6 C         -10.2795  -18.1079   21.3862 C.ar    1  UNL1        0.1578
      7 C         -10.1425  -18.3378   22.8621 C.ar    1  UNL1        0.1366
      8 N         -11.3530  -18.2782   23.7459 N.ar    1  UNL1       -0.2293
      9 C          -8.4104  -19.4852   20.2203 C.3     1  UNL1        0.2210
     10 C          -6.9147  -19.5770   20.1532 C.3     1  UNL1        0.0983
     11 C          -6.0962  -20.8137   20.3784 C.3     1  UNL1        0.0209
     12 C          -4.6505  -20.4492   20.2135 C.3     1  UNL1        0.0172
     13 C          -3.3178  -19.7977   19.9918 C.3     1  UNL1        0.0171
     14 C          -4.5755  -18.9872   19.8863 C.3     1  UNL1        0.0541
     15 N          -5.9748  -18.4481   19.8490 N.3     1  UNL1       -0.2966
     16 H          -6.1757  -18.0704   18.9231 H       1  UNL1        0.1233
@<TRIPOS>BOND
     1     2     3    1
     2     3     4   ar
     3     4     5   ar
     4     5     6   ar
     5     6     1    1
     6     1     9    1
     7    10     9    1
     8    10    11    1
     9    12    11    1
    10    12    13    1
    11    14    13    1
    12    14    15    1
    13     6     7   ar
    14     7     8   ar
    15     8     3   ar
    16    15    10    1
    17    14    12    1
    18    15    16    1
@<TRIPOS>MOLECULE
*****
 16 18 0 0 0
SMALL
GASTEIGER

@<TRIPOS>ATOM
      1 O          -4.3574  -17.3212   23.5412 O.3     1  UNL1       -0.4724
      2 CL          0.1380  -18.0467   19.6342 Cl      1  UNL1       -0.0613
      3 C          -0.9858  -17.8653   20.6109 C.ar    1  UNL1        0.1386
      4 C          -1.3767  -16.4876   21.0572 C.ar    1  UNL1        0.0339
      5 C          -2.5006  -16.3063   22.0339 C.ar    1  UNL1        0.0410
      6 C          -3.2336  -17.5026   22.5644 C.ar    1  UNL1        0.1578
      7 C          -2.8427  -18.8802   22.1182 C.ar    1  UNL1        0.1366
      8 N          -1.7188  -19.0616   21.1414 N.ar    1  UNL1       -0.2293
      9 C          -4.8955  -15.9489   23.8191 C.3     1  UNL1        0.2210
     10 C          -5.9190  -15.7487   24.8972 C.3     1  UNL1        0.0983
     11 C          -5.6339  -15.5129   26.3508 C.3     1  UNL1        0.0209
     12 C          -6.9460  -15.3677   27.0630 C.3     1  UNL1        0.0172
     13 C          -8.3804  -15.2673   27.4899 C.3     1  UNL1        0.0171
     14 C          -8.0421  -15.5137   26.0495 C.3     1  UNL1        0.0541
     15 N          -7.4074  -15.7492   24.7109 N.3     1  UNL1       -0.2966
     16 H          -7.6757  -15.0067   24.0651 H       1  UNL1        0.1233
@<TRIPOS>BOND
     1     2     3    1
     2     3     4   ar
     3     4     5   ar
     4     5     6   ar
     5     6     1    1
     6     1     9    1
     7    10     9    1
     8    10    11    1
     9    12    11    1
    10    12    13    1
    11    14    13    1
    12    14    15    1
    13     6     7   ar
    14     7     8   ar
    15     8     3   ar
    16    15    10    1
    17    14    12    1
    18    15    16    1
@<TRIPOS>MOLECULE
*****
 16 18 0 0 0
SMALL
GASTEIGER

@<TRIPOS>ATOM
      1 O          -5.4134  -20.0927   21.2659 O.3     1  UNL1       -0.4724
      2 CL         -0.0200  -17.9281   19.7742 Cl      1  UNL1       -0.0613
      3 C          -1.3683  -18.4692   20.1471 C.ar    1  UNL1        0.1386
      4 C          -2.5056  -18.3860   19.1727 C.ar    1  UNL1        0.0339
      5 C          -3.8540  -18.9271   19.5456 C.ar    1  UNL1        0.0410
      6 C          -4.0651  -19.5515   20.8930 C.ar    1  UNL1        0.1578
      7 C          -2.9278  -19.6348   21.8674 C.ar    1  UNL1        0.1366
      8 N          -1.5794  -19.0936   21.4945 N.ar    1  UNL1       -0.2293
      9 C          -6.6550  -19.4624   20.7081 C.3     1  UNL1        0.2210
     10 C          -7.5397  -18.6362   21.5940 C.3     1  UNL1        0.0983
     11 C          -8.4429  -19.1583   22.6718 C.3     1  UNL1        0.0209
     12 C          -9.1379  -17.9877   23.3016 C.3     1  UNL1        0.0172
     13 C          -9.6673  -16.6495   23.7245 C.3     1  UNL1        0.0171
     14 C          -8.6643  -16.7421   22.6130 C.3     1  UNL1        0.0541
     15 N          -7.6765  -17.1429   21.5577 N.3     1  UNL1       -0.2966
     16 H          -6.7733  -16.7078   21.7458 H       1  UNL1        0.1233
@<TRIPOS>BOND
     1     2     3    1
     2     3     4   ar
     3     4     5   ar
     4     5     6   ar
     5     6     1    1
     6     1     9    1
     7    10     9    1
     8    10    11    1
     9    12    11    1
    10    12    13    1
    11    14    13    1
    12    14    15    1
    13     6     7   ar
    14     7     8   ar
    15     8     3   ar
    16    15    10    1
    17    14    12    1
    18    15    16    1
@<TRIPOS>MOLECULE
*****
 16 18 0 0 0
SMALL
GASTEIGER

@<TRIPOS>ATOM
      1 O          -7.8429  -17.7214   21.1726 O.3     1  UNL1       -0.4724
      2 CL        -13.3609  -17.8935   23.5225 Cl      1  UNL1       -0.0613
      3 C         -11.9814  -17.8505   22.9350 C.ar    1  UNL1        0.1386
      4 C         -11.2407  -19.1268   22.6659 C.ar    1  UNL1        0.0339
      5 C          -9.8612  -19.0837   22.0784 C.ar    1  UNL1        0.0410
      6 C          -9.2224  -17.7645   21.7601 C.ar    1  UNL1        0.1578
      7 C          -9.9631  -16.4882   22.0292 C.ar    1  UNL1        0.1366
      8 N         -11.3426  -16.5312   22.6167 N.ar    1  UNL1       -0.2293
      9 C          -7.1792  -18.9893   20.7233 C.3     1  UNL1        0.2210
     10 C          -5.7068  -19.1812   20.9359 C.3     1  UNL1        0.0983
     11 C          -4.8324  -20.1636   20.2145 C.3     1  UNL1        0.0209
     12 C          -3.4354  -20.0139   20.7400 C.3     1  UNL1        0.0172
     13 C          -2.1658  -19.6426   21.4472 C.3     1  UNL1        0.0171
     14 C          -3.4464  -18.9390   21.7862 C.3     1  UNL1        0.0541
     15 N          -4.8502  -18.4243   21.9073 N.3     1  UNL1       -0.2966
     16 H          -4.8740  -17.4286   21.6871 H       1  UNL1        0.1233
@<TRIPOS>BOND
     1     2     3    1
     2     3     4   ar
     3     4     5   ar
     4     5     6   ar
     5     6     1    1
     6     1     9    1
     7    10     9    1
     8    10    11    1
     9    12    11    1
    10    12    13    1
    11    14    13    1
    12    14    15    1
    13     6     7   ar
    14     7     8   ar
    15     8     3   ar
    16    15    10    1
    17    14    12    1
    18    15    16    1
@<TRIPOS>MOLECULE
*****
 16 18 0 0 0
SMALL
GASTEIGER

@<TRIPOS>ATOM
      1 O          -7.3424  -18.9906   19.9019 O.3     1  UNL1       -0.4724
      2 CL        -12.3903  -18.3604   23.0833 Cl      1  UNL1       -0.0613
      3 C         -11.1283  -18.5180   22.2879 C.ar    1  UNL1        0.1386
      4 C         -11.1583  -19.2265   20.9662 C.ar    1  UNL1        0.0339
      5 C          -9.8963  -19.3841   20.1709 C.ar    1  UNL1        0.0410
      6 C          -8.6044  -18.8331   20.6972 C.ar    1  UNL1        0.1578
      7 C          -8.5743  -18.1245   22.0189 C.ar    1  UNL1        0.1366
      8 N          -9.8363  -17.9670   22.8143 N.ar    1  UNL1       -0.2293
      9 C          -6.1744  -19.7281   20.4866 C.3     1  UNL1        0.2210
     10 C          -4.7760  -19.2734   20.1907 C.3     1  UNL1        0.0983
     11 C          -3.5201  -19.8439   20.7800 C.3     1  UNL1        0.0209
     12 C          -2.3558  -19.0915   20.2070 C.3     1  UNL1        0.0172
     13 C          -1.4128  -18.1801   19.4790 C.3     1  UNL1        0.0171
     14 C          -2.8920  -18.0561   19.2635 C.3     1  UNL1        0.0541
     15 N          -4.3878  -18.1684   19.2534 N.3     1  UNL1       -0.2966
     16 H          -4.7124  -18.3841   18.3107 H       1  UNL1        0.1233
@<TRIPOS>BOND
     1     2     3    1
     2     3     4   ar
     3     4     5   ar
     4     5     6   ar
     5     6     1    1
     6     1     9    1
     7    10     9    1
     8    10    11    1
     9    12    11    1
    10    12    13    1
    11    14    13    1
    12    14    15    1
    13     6     7   ar
    14     7     8   ar
    15     8     3   ar
    16    15    10    1
    17    14    12    1
    18    15    16    1
@<TRIPOS>MOLECULE
*****
 16 18 0 0 0
SMALL
GASTEIGER

@<TRIPOS>ATOM
      1 O          -8.5649  -16.5629   21.8949 O.3     1  UNL1       -0.4724
      2 CL         -6.5170  -15.1682   27.3594 Cl      1  UNL1       -0.0613
      3 C          -7.0290  -15.5169   25.9933 C.ar    1  UNL1        0.1386
      4 C          -8.5049  -15.5282   25.7258 C.ar    1  UNL1        0.0339
      5 C          -9.0168  -15.8768   24.3597 C.ar    1  UNL1        0.0410
      6 C          -8.0529  -16.2143   23.2611 C.ar    1  UNL1        0.1578
      7 C          -6.5771  -16.2030   23.5286 C.ar    1  UNL1        0.1366
      8 N          -6.0651  -15.8543   24.8947 N.ar    1  UNL1       -0.2293
      9 C          -9.4407  -17.7661   21.7067 C.3     1  UNL1        0.2210
     10 C         -10.7568  -17.8549   22.4209 C.3     1  UNL1        0.0983
     11 C         -12.0084  -17.1117   22.0586 C.3     1  UNL1        0.0209
     12 C         -13.0775  -17.5000   23.0365 C.3     1  UNL1        0.0172
     13 C         -13.9218  -18.0684   24.1383 C.3     1  UNL1        0.0171
     14 C         -12.4866  -18.4831   24.0032 C.3     1  UNL1        0.0541
     15 N         -11.0523  -18.7025   23.6227 N.3     1  UNL1       -0.2966
     16 H         -10.9002  -19.6858   23.3987 H       1  UNL1        0.1233
@<TRIPOS>BOND
     1     2     3    1
     2     3     4   ar
     3     4     5   ar
     4     5     6   ar
     5     6     1    1
     6     1     9    1
     7    10     9    1
     8    10    11    1
     9    12    11    1
    10    12    13    1
    11    14    13    1
    12    14    15    1
    13     6     7   ar
    14     7     8   ar
    15     8     3   ar
    16    15    10    1
    17    14    12    1
    18    15    16    1
@<TRIPOS>MOLECULE
*****
 16 18 0 0 0
SMALL
GASTEIGER

@<TRIPOS>ATOM
      1 O          -8.7565  -17.2755   21.4373 O.3     1  UNL1       -0.4724
      2 CL         -8.1603  -15.3162   27.0770 Cl      1  UNL1       -0.0613
      3 C          -8.3094  -15.8060   25.6670 C.ar    1  UNL1        0.1386
      4 C          -7.6245  -15.0828   24.5455 C.ar    1  UNL1        0.0339
      5 C          -7.7736  -15.5726   23.1356 C.ar    1  UNL1        0.0410
      6 C          -8.6074  -16.7857   22.8472 C.ar    1  UNL1        0.1578
      7 C          -9.2922  -17.5089   23.9688 C.ar    1  UNL1        0.1366
      8 N          -9.1432  -17.0190   25.3787 N.ar    1  UNL1       -0.2293
      9 C          -8.3554  -18.6770   21.0839 C.3     1  UNL1        0.2210
     10 C          -6.9074  -19.0162   20.8888 C.3     1  UNL1        0.0983
     11 C          -6.0687  -19.8603   21.8021 C.3     1  UNL1        0.0209
     12 C          -4.6867  -19.9366   21.2239 C.3     1  UNL1        0.0172
     13 C          -3.4249  -19.8318   20.4197 C.3     1  UNL1        0.0171
     14 C          -4.6712  -19.1396   19.9533 C.3     1  UNL1        0.0541
     15 N          -6.0436  -18.5706   19.7462 N.3     1  UNL1       -0.2966
     16 H          -6.4306  -18.9118   18.8662 H       1  UNL1        0.1233
@<TRIPOS>BOND
     1     2     3    1
     2     3     4   ar
     3     4     5   ar
     4     5     6   ar
     5     6     1    1
     6     1     9    1
     7    10     9    1
     8    10    11    1
     9    12    11    1
    10    12    13    1
    11    14    13    1
    12    14    15    1
    13     6     7   ar
    14     7     8   ar
    15     8     3   ar
    16    15    10    1
    17    14    12    1
    18    15    16    1
@<TRIPOS>MOLECULE
*****
 16 18 0 0 0
SMALL
GASTEIGER

@<TRIPOS>ATOM
      1 O          -5.9581  -19.8859   21.1557 O.3     1  UNL1       -0.4724
      2 CL         -0.3471  -18.0167   20.1444 Cl      1  UNL1       -0.0613
      3 C          -1.7499  -18.4840   20.3972 C.ar    1  UNL1        0.1386
      4 C          -2.1639  -18.9021   21.7770 C.ar    1  UNL1        0.0339
      5 C          -3.5666  -19.3694   22.0298 C.ar    1  UNL1        0.0410
      6 C          -4.5554  -19.4186   20.9029 C.ar    1  UNL1        0.1578
      7 C          -4.1413  -19.0005   19.5232 C.ar    1  UNL1        0.1366
      8 N          -2.7386  -18.5332   19.2703 N.ar    1  UNL1       -0.2293
      9 C          -6.9404  -19.9568   20.0244 C.3     1  UNL1        0.2210
     10 C          -8.2991  -19.3384   20.1710 C.3     1  UNL1        0.0983
     11 C          -9.5212  -19.6969   19.3785 C.3     1  UNL1        0.0209
     12 C         -10.6517  -18.8330   19.8535 C.3     1  UNL1        0.0172
     13 C         -11.5667  -17.8512   20.5235 C.3     1  UNL1        0.0171
     14 C         -10.1283  -17.9405   20.9396 C.3     1  UNL1        0.0541
     15 N          -8.6743  -18.2528   21.1359 N.3     1  UNL1       -0.2966
     16 H          -8.5143  -18.5693   22.0923 H       1  UNL1        0.1233
@<TRIPOS>BOND
     1     2     3    1
     2     3     4   ar
     3     4     5   ar
     4     5     6   ar
     5     6     1    1
     6     1     9    1
     7    10     9    1
     8    10    11    1
     9    12    11    1
    10    12    13    1
    11    14    13    1
    12    14    15    1
    13     6     7   ar
    14     7     8   ar
    15     8     3   ar
    16    15    10    1
    17    14    12    1
    18    15    16    1
@<TRIPOS>MOLECULE
*****
 16 18 0 0 0
SMALL
GASTEIGER

@<TRIPOS>ATOM
      1 O          -8.7084  -16.2243   22.2797 O.3     1  UNL1       -0.4724
      2 CL        -14.1154  -18.1672   24.0086 Cl      1  UNL1       -0.0613
      3 C         -12.7637  -17.6815   23.5764 C.ar    1  UNL1        0.1386
      4 C         -12.6507  -16.5865   22.5575 C.ar    1  UNL1        0.0339
      5 C         -11.2989  -16.1008   22.1253 C.ar    1  UNL1        0.0410
      6 C         -10.0602  -16.7100   22.7120 C.ar    1  UNL1        0.1578
      7 C         -10.1732  -17.8050   23.7309 C.ar    1  UNL1        0.1366
      8 N         -11.5249  -18.2907   24.1631 N.ar    1  UNL1       -0.2293
      9 C          -7.5425  -16.3170   23.2189 C.3     1  UNL1        0.2210
     10 C          -6.4074  -17.2495   22.9156 C.3     1  UNL1        0.0983
     11 C          -6.5153  -18.5707   22.2136 C.3     1  UNL1        0.0209
     12 C          -5.1397  -19.1623   22.1251 C.3     1  UNL1        0.0172
     13 C          -3.6776  -19.4920   22.1861 C.3     1  UNL1        0.0171
     14 C          -4.1816  -18.2066   22.7724 C.3     1  UNL1        0.0541
     15 N          -4.9651  -17.0244   23.2609 N.3     1  UNL1       -0.2966
     16 H          -4.6290  -16.1750   22.8072 H       1  UNL1        0.1233
@<TRIPOS>BOND
     1     2     3    1
     2     3     4   ar
     3     4     5   ar
     4     5     6   ar
     5     6     1    1
     6     1     9    1
     7    10     9    1
     8    10    11    1
     9    12    11    1
    10    12    13    1
    11    14    13    1
    12    14    15    1
    13     6     7   ar
    14     7     8   ar
    15     8     3   ar
    16    15    10    1
    17    14    12    1
    18    15    16    1
