@<TRIPOS>MOLECULE
*****
 36 39 0 0 0
SMALL
GASTEIGER

@<TRIPOS>ATOM
      1 C           2.3537   -0.0509   20.1336 C.3     1  UNL1        0.1547
      2 C           3.0614   -1.2980   20.5739 C.ar    1  UNL1        0.0007
      3 C           3.2632   -2.4269   19.6070 C.ar    1  UNL1       -0.0025
      4 C           3.9709   -3.6740   20.0473 C.ar    1  UNL1       -0.0003
      5 C           4.4768   -3.7922   21.4545 C.ar    1  UNL1       -0.0000
      6 C           4.2750   -2.6633   22.4213 C.ar    1  UNL1       -0.0003
      7 C           3.5673   -1.4162   21.9810 C.ar    1  UNL1       -0.0025
      8 C           1.2306    0.5050   20.9582 C.2     1  UNL1        0.2457
      9 O          -0.1652   -0.0105   20.7689 O.2     1  UNL1       -0.2729
     10 N           1.5035    1.5763   21.9719 N.am    1  UNL1       -0.2680
     11 H           2.4197    1.9146   22.0961 H       1  UNL1        0.1563
     12 C           0.3805    2.1323   22.7965 C.ar    1  UNL1        0.1342
     13 C           0.2766    1.7866   24.2524 C.ar    1  UNL1        0.0345
     14 C          -0.8464    2.3425   25.0769 C.ar    1  UNL1        0.0045
     15 C          -1.8654    3.2441   24.4455 C.ar    1  UNL1        0.0223
     16 C          -1.7615    3.5898   22.9896 C.ar    1  UNL1        0.1004
     17 N          -0.6386    3.0338   22.1651 N.ar    1  UNL1       -0.2290
     18 C          -2.9885    3.8000   25.2701 C.ar    1  UNL1        0.0411
     19 C          -3.1140    3.7123   26.7622 C.ar    1  UNL1        0.1217
     20 N          -4.3861    4.3993   27.1617 N.ar    1  UNL1       -0.1676
     21 N          -5.0469    4.9117   25.9163 N.ar    1  UNL1       -0.2473
     22 C          -6.3438    5.6626   25.8514 C.3     1  UNL1        0.1538
     23 C          -4.1831    4.5413   24.7472 C.ar    1  UNL1        0.0967
     24 N           2.7689    0.6403   18.8688 N.3     1  UNL1       -0.2875
     25 H           3.0562   -0.0886   18.2156 H       1  UNL1        0.1239
     26 C           3.8722    1.6561   18.8967 C.3     1  UNL1        0.0735
     27 C           5.8065    2.1814   17.2437 C.3     1  UNL1        0.0061
     28 C           5.2157    1.3202   18.3203 C.3     1  UNL1        0.0381
     29 C           5.9684    0.1231   18.8206 C.ar    1  UNL1       -0.0211
     30 C           6.4704    0.0895   20.2337 C.ar    1  UNL1       -0.0035
     31 C           7.2231   -1.1077   20.7340 C.ar    1  UNL1        0.0100
     32 C           7.4738   -2.2712   19.8212 C.ar    1  UNL1        0.0684
     33 C           6.9719   -2.2376   18.4081 C.ar    1  UNL1        0.0100
     34 C           6.2192   -1.0405   17.9078 C.ar    1  UNL1       -0.0035
     35 C           8.2266   -3.4684   20.3215 C.1     1  UNL1        0.1004
     36 N           8.9793   -4.6655   20.8217 N.1     1  UNL1       -0.1908
@<TRIPOS>BOND
     1    28    27    1
     2    28    26    1
     3    26    24    1
     4     1    24    1
     5     1     8    1
     6     8     9    2
     7     8    10   am
     8    10    12    1
     9    12    13   ar
    10    13    14   ar
    11    14    15   ar
    12    15    18    1
    13    18    19   ar
    14    19    20   ar
    15    20    21   ar
    16    21    22    1
    17    21    23   ar
    18    15    16   ar
    19    16    17   ar
    20     1     2    1
    21     2     3   ar
    22     3     4   ar
    23     4     5   ar
    24     5     6   ar
    25     6     7   ar
    26    28    29    1
    27    29    30   ar
    28    30    31   ar
    29    31    32   ar
    30    32    35    1
    31    35    36    3
    32    32    33   ar
    33    33    34   ar
    34    17    12   ar
    35     7     2   ar
    36    34    29   ar
    37    23    18   ar
    38    24    25    1
    39    10    11    1
@<TRIPOS>MOLECULE
*****
 36 39 0 0 0
SMALL
GASTEIGER

@<TRIPOS>ATOM
      1 C           7.0222   -1.5546   20.0742 C.3     1  UNL1        0.1547
      2 C           6.4676   -0.1669   19.9456 C.ar    1  UNL1        0.0007
      3 C           5.5328    0.3670   20.9902 C.ar    1  UNL1       -0.0025
      4 C           4.9781    1.7547   20.8617 C.ar    1  UNL1       -0.0003
      5 C           5.3582    2.6086   19.6884 C.ar    1  UNL1       -0.0000
      6 C           6.2929    2.0747   18.6438 C.ar    1  UNL1       -0.0003
      7 C           6.8476    0.6870   18.7724 C.ar    1  UNL1       -0.0025
      8 C           7.2838   -2.1349   21.4325 C.2     1  UNL1        0.2457
      9 O           8.4513   -1.6531   22.2417 O.2     1  UNL1       -0.2729
     10 N           6.3780   -3.1969   21.9815 N.am    1  UNL1       -0.2680
     11 H           5.6117   -3.5131   21.4503 H       1  UNL1        0.1563
     12 C           6.6396   -3.7772   23.3398 C.ar    1  UNL1        0.1342
     13 C           6.2491   -3.0128   24.5698 C.ar    1  UNL1        0.0345
     14 C           6.5107   -3.5931   25.9280 C.ar    1  UNL1        0.0045
     15 C           7.1628   -4.9378   26.0562 C.ar    1  UNL1        0.0223
     16 C           7.5532   -5.7023   24.8261 C.ar    1  UNL1        0.1004
     17 N           7.2916   -5.1220   23.4679 N.ar    1  UNL1       -0.2290
     18 C           7.4243   -5.5181   27.4145 C.ar    1  UNL1        0.0411
     19 C           8.3332   -6.6716   27.7203 C.ar    1  UNL1        0.1217
     20 N           8.2936   -6.9132   29.2002 N.ar    1  UNL1       -0.1676
     21 N           7.3602   -5.9091   29.8090 N.ar    1  UNL1       -0.2473
     22 C           7.0233   -5.7883   31.2657 C.3     1  UNL1        0.1538
     23 C           6.8230   -5.0469   28.7053 C.ar    1  UNL1        0.0967
     24 N           7.3154   -2.3620   18.8445 N.3     1  UNL1       -0.2875
     25 H           7.9597   -1.8112   18.2772 H       1  UNL1        0.1239
     26 C           6.1957   -2.7851   17.9405 C.3     1  UNL1        0.0735
     27 C           4.4851   -4.5108   18.8602 C.3     1  UNL1        0.0061
     28 C           4.8452   -3.0964   18.5144 C.3     1  UNL1        0.0381
     29 C           3.8548   -1.9932   18.7425 C.ar    1  UNL1       -0.0211
     30 C           3.7078   -0.8961   17.7302 C.ar    1  UNL1       -0.0035
     31 C           2.7173    0.2071   17.9583 C.ar    1  UNL1        0.0100
     32 C           1.8739    0.2132   19.1986 C.ar    1  UNL1        0.0684
     33 C           2.0209   -0.8839   20.2109 C.ar    1  UNL1        0.0100
     34 C           3.0113   -1.9871   19.9829 C.ar    1  UNL1       -0.0035
     35 C           0.8834    1.3164   19.4267 C.1     1  UNL1        0.1004
     36 N          -0.1070    2.4196   19.6549 N.1     1  UNL1       -0.1908
@<TRIPOS>BOND
     1    28    27    1
     2    28    26    1
     3    26    24    1
     4     1    24    1
     5     1     8    1
     6     8     9    2
     7     8    10   am
     8    10    12    1
     9    12    13   ar
    10    13    14   ar
    11    14    15   ar
    12    15    18    1
    13    18    19   ar
    14    19    20   ar
    15    20    21   ar
    16    21    22    1
    17    21    23   ar
    18    15    16   ar
    19    16    17   ar
    20     1     2    1
    21     2     3   ar
    22     3     4   ar
    23     4     5   ar
    24     5     6   ar
    25     6     7   ar
    26    28    29    1
    27    29    30   ar
    28    30    31   ar
    29    31    32   ar
    30    32    35    1
    31    35    36    3
    32    32    33   ar
    33    33    34   ar
    34    17    12   ar
    35     7     2   ar
    36    34    29   ar
    37    23    18   ar
    38    24    25    1
    39    10    11    1
@<TRIPOS>MOLECULE
*****
 36 39 0 0 0
SMALL
GASTEIGER

@<TRIPOS>ATOM
      1 C          -2.6689    4.1083   21.9785 C.3     1  UNL1        0.1547
      2 C          -3.0794    4.3159   23.4062 C.ar    1  UNL1        0.0007
      3 C          -2.5315    5.4762   24.1830 C.ar    1  UNL1       -0.0025
      4 C          -2.9421    5.6838   25.6107 C.ar    1  UNL1       -0.0003
      5 C          -3.9006    4.7311   26.2616 C.ar    1  UNL1       -0.0000
      6 C          -4.4485    3.5708   25.4847 C.ar    1  UNL1       -0.0003
      7 C          -4.0379    3.3632   24.0570 C.ar    1  UNL1       -0.0025
      8 C          -1.5067    3.2170   21.6543 C.2     1  UNL1        0.2457
      9 O          -0.4298    2.9883   22.6732 O.2     1  UNL1       -0.2729
     10 N          -1.4214    2.5545   20.3113 N.am    1  UNL1       -0.2680
     11 H          -2.1281    2.7046   19.6426 H       1  UNL1        0.1563
     12 C          -0.2592    1.6632   19.9871 C.ar    1  UNL1        0.1342
     13 C           0.7553    2.0939   18.9696 C.ar    1  UNL1        0.0345
     14 C           1.9174    1.2026   18.6455 C.ar    1  UNL1        0.0045
     15 C           2.0650   -0.1193   19.3388 C.ar    1  UNL1        0.0223
     16 C           1.0505   -0.5500   20.3563 C.ar    1  UNL1        0.1004
     17 N          -0.1116    0.3413   20.6804 N.ar    1  UNL1       -0.2290
     18 C           3.2272   -1.0106   19.0146 C.ar    1  UNL1        0.0411
     19 C           3.9259   -1.1018   17.6904 C.ar    1  UNL1        0.1217
     20 N           5.0252   -2.1147   17.8150 N.ar    1  UNL1       -0.1676
     21 N           5.0059   -2.6495   19.2164 N.ar    1  UNL1       -0.2473
     22 C           5.9348   -3.6849   19.7778 C.3     1  UNL1        0.1538
     23 C           3.8947   -1.9671   19.9577 C.ar    1  UNL1        0.0967
     24 N          -3.4204    4.7919   20.8750 N.3     1  UNL1       -0.2875
     25 H          -3.6038    5.7446   21.1898 H       1  UNL1        0.1239
     26 C          -4.7292    4.2332   20.4007 C.3     1  UNL1        0.0735
     27 C          -6.8793    5.3917   19.5148 C.3     1  UNL1        0.0061
     28 C          -6.0027    4.9818   20.6609 C.3     1  UNL1        0.0381
     29 C          -6.3996    5.3206   22.0671 C.ar    1  UNL1       -0.0211
     30 C          -7.3399    4.4246   22.8176 C.ar    1  UNL1       -0.0035
     31 C          -7.7368    4.7635   24.2239 C.ar    1  UNL1        0.0100
     32 C          -7.1934    5.9982   24.8798 C.ar    1  UNL1        0.0684
     33 C          -6.2532    6.8942   24.1293 C.ar    1  UNL1        0.0100
     34 C          -5.8563    6.5554   22.7231 C.ar    1  UNL1       -0.0035
     35 C          -7.5904    6.3370   26.2861 C.1     1  UNL1        0.1004
     36 N          -7.9873    6.6759   27.6924 N.1     1  UNL1       -0.1908
@<TRIPOS>BOND
     1    28    27    1
     2    28    26    1
     3    26    24    1
     4     1    24    1
     5     1     8    1
     6     8     9    2
     7     8    10   am
     8    10    12    1
     9    12    13   ar
    10    13    14   ar
    11    14    15   ar
    12    15    18    1
    13    18    19   ar
    14    19    20   ar
    15    20    21   ar
    16    21    22    1
    17    21    23   ar
    18    15    16   ar
    19    16    17   ar
    20     1     2    1
    21     2     3   ar
    22     3     4   ar
    23     4     5   ar
    24     5     6   ar
    25     6     7   ar
    26    28    29    1
    27    29    30   ar
    28    30    31   ar
    29    31    32   ar
    30    32    35    1
    31    35    36    3
    32    32    33   ar
    33    33    34   ar
    34    17    12   ar
    35     7     2   ar
    36    34    29   ar
    37    23    18   ar
    38    24    25    1
    39    10    11    1
@<TRIPOS>MOLECULE
*****
 36 39 0 0 0
SMALL
GASTEIGER

@<TRIPOS>ATOM
      1 C           2.1830    0.1195   19.7124 C.3     1  UNL1        0.1547
      2 C           2.9079   -1.0600   20.2896 C.ar    1  UNL1        0.0007
      3 C           3.2953   -1.0666   21.7387 C.ar    1  UNL1       -0.0025
      4 C           4.0202   -2.2461   22.3158 C.ar    1  UNL1       -0.0003
      5 C           4.3578   -3.4191   21.4439 C.ar    1  UNL1       -0.0000
      6 C           3.9704   -3.4125   19.9948 C.ar    1  UNL1       -0.0003
      7 C           3.2454   -2.2329   19.4176 C.ar    1  UNL1       -0.0025
      8 C           0.9417    0.6361   20.3777 C.2     1  UNL1        0.2457
      9 O          -0.1422   -0.3169   20.7863 O.2     1  UNL1       -0.2729
     10 N           0.7845    2.1055   20.6345 N.am    1  UNL1       -0.2680
     11 H           1.4959    2.7310   20.3664 H       1  UNL1        0.1563
     12 C          -0.4568    2.6220   21.2999 C.ar    1  UNL1        0.1342
     13 C          -0.4244    3.0131   22.7476 C.ar    1  UNL1        0.0345
     14 C          -1.6656    3.5296   23.4129 C.ar    1  UNL1        0.0045
     15 C          -2.9392    3.6549   22.6304 C.ar    1  UNL1        0.0223
     16 C          -2.9716    3.2638   21.1827 C.ar    1  UNL1        0.1004
     17 N          -1.7304    2.7473   20.5174 N.ar    1  UNL1       -0.2290
     18 C          -4.1804    4.1715   23.2958 C.ar    1  UNL1        0.0411
     19 C          -4.2293    5.0460   24.5135 C.ar    1  UNL1        0.1217
     20 N          -5.6697    5.3192   24.8305 N.ar    1  UNL1       -0.1676
     21 N          -6.5111    4.6134   23.8087 N.ar    1  UNL1       -0.2473
     22 C          -8.0098    4.6164   23.7465 C.3     1  UNL1        0.1538
     23 C          -5.5907    3.9041   22.8602 C.ar    1  UNL1        0.0967
     24 N           2.6992    0.7826   18.4699 N.3     1  UNL1       -0.2875
     25 H           3.0856    0.0447   17.8812 H       1  UNL1        0.1239
     26 C           3.7480    1.8503   18.5700 C.3     1  UNL1        0.0735
     27 C           5.8158    2.4847   17.1308 C.3     1  UNL1        0.0061
     28 C           5.1496    1.5699   18.1153 C.3     1  UNL1        0.0381
     29 C           5.8850    0.3747   18.6451 C.ar    1  UNL1       -0.0211
     30 C           6.2077   -0.7720   17.7336 C.ar    1  UNL1       -0.0035
     31 C           6.9431   -1.9672   18.2634 C.ar    1  UNL1        0.0100
     32 C           7.3558   -2.0157   19.7047 C.ar    1  UNL1        0.0684
     33 C           7.0331   -0.8689   20.6162 C.ar    1  UNL1        0.0100
     34 C           6.2977    0.3263   20.0864 C.ar    1  UNL1       -0.0035
     35 C           8.0912   -3.2109   20.2346 C.1     1  UNL1        0.1004
     36 N           8.8266   -4.4060   20.7644 N.1     1  UNL1       -0.1908
@<TRIPOS>BOND
     1    28    27    1
     2    28    26    1
     3    26    24    1
     4     1    24    1
     5     1     8    1
     6     8     9    2
     7     8    10   am
     8    10    12    1
     9    12    13   ar
    10    13    14   ar
    11    14    15   ar
    12    15    18    1
    13    18    19   ar
    14    19    20   ar
    15    20    21   ar
    16    21    22    1
    17    21    23   ar
    18    15    16   ar
    19    16    17   ar
    20     1     2    1
    21     2     3   ar
    22     3     4   ar
    23     4     5   ar
    24     5     6   ar
    25     6     7   ar
    26    28    29    1
    27    29    30   ar
    28    30    31   ar
    29    31    32   ar
    30    32    35    1
    31    35    36    3
    32    32    33   ar
    33    33    34   ar
    34    17    12   ar
    35     7     2   ar
    36    34    29   ar
    37    23    18   ar
    38    24    25    1
    39    10    11    1
@<TRIPOS>MOLECULE
*****
 36 39 0 0 0
SMALL
GASTEIGER

@<TRIPOS>ATOM
      1 C          -1.8933    3.1878   21.6165 C.3     1  UNL1        0.1547
      2 C          -1.9609    4.1282   22.7830 C.ar    1  UNL1        0.0007
      3 C          -1.8539    5.6078   22.5608 C.ar    1  UNL1       -0.0025
      4 C          -1.9215    6.5483   23.7274 C.ar    1  UNL1       -0.0003
      5 C          -2.0960    6.0092   25.1163 C.ar    1  UNL1       -0.0000
      6 C          -2.2030    4.5296   25.3385 C.ar    1  UNL1       -0.0003
      7 C          -2.1354    3.5891   24.1718 C.ar    1  UNL1       -0.0025
      8 C          -0.5800    2.5849   21.2142 C.2     1  UNL1        0.2457
      9 O           0.7043    3.2228   21.6544 O.2     1  UNL1       -0.2729
     10 N          -0.5510    1.3442   20.3717 N.am    1  UNL1       -0.2680
     11 H          -1.3939    0.9255   20.0828 H       1  UNL1        0.1563
     12 C           0.7623    0.7413   19.9694 C.ar    1  UNL1        0.1342
     13 C           1.2790   -0.4740   20.6808 C.ar    1  UNL1        0.0345
     14 C           2.5922   -1.0768   20.2784 C.ar    1  UNL1        0.0045
     15 C           3.3889   -0.4643   19.1648 C.ar    1  UNL1        0.0223
     16 C           2.8723    0.7510   18.4535 C.ar    1  UNL1        0.1004
     17 N           1.5590    1.3538   18.8558 N.ar    1  UNL1       -0.2290
     18 C           4.7022   -1.0672   18.7625 C.ar    1  UNL1        0.0411
     19 C           5.0893   -1.4933   17.3774 C.ar    1  UNL1        0.1217
     20 N           6.4853   -2.0393   17.4334 N.ar    1  UNL1       -0.1676
     21 N           6.9609   -1.9506   18.8533 N.ar    1  UNL1       -0.2473
     22 C           8.3030   -2.3863   19.3624 C.3     1  UNL1        0.1538
     23 C           5.8589   -1.3499   19.6747 C.ar    1  UNL1        0.0967
     24 N          -3.1390    2.8502   20.8521 N.3     1  UNL1       -0.2875
     25 H          -2.8595    2.2288   20.0931 H       1  UNL1        0.1239
     26 C          -3.9606    3.9436   20.2362 C.3     1  UNL1        0.0735
     27 C          -6.5229    4.1847   19.8808 C.3     1  UNL1        0.0061
     28 C          -5.3239    4.2541   20.7794 C.3     1  UNL1        0.0381
     29 C          -5.4881    4.6341   22.2211 C.ar    1  UNL1       -0.0211
     30 C          -5.5009    6.0804   22.6188 C.ar    1  UNL1       -0.0035
     31 C          -5.6652    6.4603   24.0606 C.ar    1  UNL1        0.0100
     32 C          -5.8167    5.3940   25.1046 C.ar    1  UNL1        0.0684
     33 C          -5.8039    3.9477   24.7069 C.ar    1  UNL1        0.0100
     34 C          -5.6396    3.5678   23.2652 C.ar    1  UNL1       -0.0035
     35 C          -5.9809    5.7739   26.5464 C.1     1  UNL1        0.1004
     36 N          -6.1451    6.1538   27.9882 N.1     1  UNL1       -0.1908
@<TRIPOS>BOND
     1    28    27    1
     2    28    26    1
     3    26    24    1
     4     1    24    1
     5     1     8    1
     6     8     9    2
     7     8    10   am
     8    10    12    1
     9    12    13   ar
    10    13    14   ar
    11    14    15   ar
    12    15    18    1
    13    18    19   ar
    14    19    20   ar
    15    20    21   ar
    16    21    22    1
    17    21    23   ar
    18    15    16   ar
    19    16    17   ar
    20     1     2    1
    21     2     3   ar
    22     3     4   ar
    23     4     5   ar
    24     5     6   ar
    25     6     7   ar
    26    28    29    1
    27    29    30   ar
    28    30    31   ar
    29    31    32   ar
    30    32    35    1
    31    35    36    3
    32    32    33   ar
    33    33    34   ar
    34    17    12   ar
    35     7     2   ar
    36    34    29   ar
    37    23    18   ar
    38    24    25    1
    39    10    11    1
@<TRIPOS>MOLECULE
*****
 36 39 0 0 0
SMALL
GASTEIGER

@<TRIPOS>ATOM
      1 C           2.4491    1.0309   21.0107 C.3     1  UNL1        0.1547
      2 C           3.4058    0.3987   21.9776 C.ar    1  UNL1        0.0007
      3 C           2.9220   -0.6517   22.9330 C.ar    1  UNL1       -0.0025
      4 C           3.8786   -1.2839   23.8999 C.ar    1  UNL1       -0.0003
      5 C           5.3192   -0.8658   23.9116 C.ar    1  UNL1       -0.0000
      6 C           5.8030    0.1846   22.9563 C.ar    1  UNL1       -0.0003
      7 C           4.8462    0.8168   21.9893 C.ar    1  UNL1       -0.0025
      8 C           1.0863    1.4545   21.4725 C.2     1  UNL1        0.2457
      9 O          -0.1310    0.7270   20.9837 O.2     1  UNL1       -0.2729
     10 N           0.9407    2.6056   22.4232 N.am    1  UNL1       -0.2680
     11 H           1.7396    3.0831   22.7441 H       1  UNL1        0.1563
     12 C          -0.4222    3.0292   22.8850 C.ar    1  UNL1        0.1342
     13 C          -0.7996    2.8949   24.3305 C.ar    1  UNL1        0.0345
     14 C          -2.1624    3.3184   24.7923 C.ar    1  UNL1        0.0045
     15 C          -3.1478    3.8763   23.8086 C.ar    1  UNL1        0.0223
     16 C          -2.7704    4.0106   22.3631 C.ar    1  UNL1        0.1004
     17 N          -1.4076    3.5870   21.9013 N.ar    1  UNL1       -0.2290
     18 C          -4.5107    4.2999   24.2704 C.ar    1  UNL1        0.0411
     19 C          -4.8268    5.0006   25.5585 C.ar    1  UNL1        0.1217
     20 N          -6.3082    5.2309   25.6095 N.ar    1  UNL1       -0.1676
     21 N          -6.9075    4.6725   24.3528 N.ar    1  UNL1       -0.2473
     22 C          -8.3624    4.6870   23.9879 C.3     1  UNL1        0.1538
     23 C          -5.7966    4.0972   23.5253 C.ar    1  UNL1        0.0967
     24 N           2.8553    1.2396   19.5819 N.3     1  UNL1       -0.2875
     25 H           2.4040    2.0996   19.2701 H       1  UNL1        0.1239
     26 C           2.5472    0.1917   18.5539 C.3     1  UNL1        0.0735
     27 C           3.9573   -0.8656   16.6451 C.3     1  UNL1        0.0061
     28 C           3.6201   -0.7544   18.1024 C.3     1  UNL1        0.0381
     29 C           4.3559   -1.5891   19.1082 C.ar    1  UNL1       -0.0211
     30 C           5.8256   -1.3813   19.3241 C.ar    1  UNL1       -0.0035
     31 C           6.5614   -2.2162   20.3300 C.ar    1  UNL1        0.0100
     32 C           5.8274   -3.2587   21.1200 C.ar    1  UNL1        0.0684
     33 C           4.3576   -3.4665   20.9042 C.ar    1  UNL1        0.0100
     34 C           3.6218   -2.6318   19.8983 C.ar    1  UNL1       -0.0035
     35 C           6.5631   -4.0936   22.1259 C.1     1  UNL1        0.1004
     36 N           7.2988   -4.9284   23.1318 N.1     1  UNL1       -0.1908
@<TRIPOS>BOND
     1    28    27    1
     2    28    26    1
     3    26    24    1
     4     1    24    1
     5     1     8    1
     6     8     9    2
     7     8    10   am
     8    10    12    1
     9    12    13   ar
    10    13    14   ar
    11    14    15   ar
    12    15    18    1
    13    18    19   ar
    14    19    20   ar
    15    20    21   ar
    16    21    22    1
    17    21    23   ar
    18    15    16   ar
    19    16    17   ar
    20     1     2    1
    21     2     3   ar
    22     3     4   ar
    23     4     5   ar
    24     5     6   ar
    25     6     7   ar
    26    28    29    1
    27    29    30   ar
    28    30    31   ar
    29    31    32   ar
    30    32    35    1
    31    35    36    3
    32    32    33   ar
    33    33    34   ar
    34    17    12   ar
    35     7     2   ar
    36    34    29   ar
    37    23    18   ar
    38    24    25    1
    39    10    11    1
@<TRIPOS>MOLECULE
*****
 36 39 0 0 0
SMALL
GASTEIGER

@<TRIPOS>ATOM
      1 C          -2.1561    4.0222   20.8671 C.3     1  UNL1        0.1547
      2 C          -3.3984    3.8506   20.0441 C.ar    1  UNL1        0.0007
      3 C          -3.3397    4.0147   18.5543 C.ar    1  UNL1       -0.0025
      4 C          -4.5820    3.8431   17.7314 C.ar    1  UNL1       -0.0003
      5 C          -5.8830    3.5074   18.3983 C.ar    1  UNL1       -0.0000
      6 C          -5.9417    3.3434   19.8881 C.ar    1  UNL1       -0.0003
      7 C          -4.6993    3.5150   20.7111 C.ar    1  UNL1       -0.0025
      8 C          -0.9080    3.2722   20.5065 C.2     1  UNL1        0.2457
      9 O           0.3272    4.0217   20.1032 O.2     1  UNL1       -0.2729
     10 N          -0.8952    1.7729   20.5491 N.am    1  UNL1       -0.2680
     11 H          -1.7059    1.2811   20.8138 H       1  UNL1        0.1563
     12 C           0.3529    1.0230   20.1885 C.ar    1  UNL1        0.1342
     13 C           1.1790    0.3810   21.2633 C.ar    1  UNL1        0.0345
     14 C           2.4270   -0.3689   20.9027 C.ar    1  UNL1        0.0045
     15 C           2.8489   -0.4768   19.4673 C.ar    1  UNL1        0.0223
     16 C           2.0227    0.1652   18.3925 C.ar    1  UNL1        0.1004
     17 N           0.7747    0.9151   18.7531 N.ar    1  UNL1       -0.2290
     18 C           4.0969   -1.2268   19.1067 C.ar    1  UNL1        0.0411
     19 C           4.4634   -1.7229   17.7393 C.ar    1  UNL1        0.1217
     20 N           5.7906   -2.4150   17.8376 N.ar    1  UNL1       -0.1676
     21 N           6.2443   -2.3466   19.2658 N.ar    1  UNL1       -0.2473
     22 C           7.5207   -2.9130   19.8134 C.3     1  UNL1        0.1538
     23 C           5.1976   -1.6122   20.0500 C.ar    1  UNL1        0.0967
     24 N          -2.1618    4.9437   22.0506 N.3     1  UNL1       -0.2875
     25 H          -1.7444    5.8218   21.7422 H       1  UNL1        0.1239
     26 C          -1.4546    4.5479   23.3128 C.3     1  UNL1        0.0735
     27 C          -3.6190    3.5212   24.3182 C.3     1  UNL1        0.0061
     28 C          -2.1231    3.6267   24.2898 C.3     1  UNL1        0.0381
     29 C          -1.2956    2.8111   25.2385 C.ar    1  UNL1       -0.0211
     30 C          -1.6378    2.7829   26.6986 C.ar    1  UNL1       -0.0035
     31 C          -0.8103    1.9672   27.6473 C.ar    1  UNL1        0.0100
     32 C           0.3595    1.1798   27.1358 C.ar    1  UNL1        0.0684
     33 C           0.7017    1.2080   25.6756 C.ar    1  UNL1        0.0100
     34 C          -0.1258    2.0236   24.7270 C.ar    1  UNL1       -0.0035
     35 C           1.1870    0.3641   28.0844 C.1     1  UNL1        0.1004
     36 N           2.0146   -0.4515   29.0331 N.1     1  UNL1       -0.1908
@<TRIPOS>BOND
     1    28    27    1
     2    28    26    1
     3    26    24    1
     4     1    24    1
     5     1     8    1
     6     8     9    2
     7     8    10   am
     8    10    12    1
     9    12    13   ar
    10    13    14   ar
    11    14    15   ar
    12    15    18    1
    13    18    19   ar
    14    19    20   ar
    15    20    21   ar
    16    21    22    1
    17    21    23   ar
    18    15    16   ar
    19    16    17   ar
    20     1     2    1
    21     2     3   ar
    22     3     4   ar
    23     4     5   ar
    24     5     6   ar
    25     6     7   ar
    26    28    29    1
    27    29    30   ar
    28    30    31   ar
    29    31    32   ar
    30    32    35    1
    31    35    36    3
    32    32    33   ar
    33    33    34   ar
    34    17    12   ar
    35     7     2   ar
    36    34    29   ar
    37    23    18   ar
    38    24    25    1
    39    10    11    1
@<TRIPOS>MOLECULE
*****
 36 39 0 0 0
SMALL
GASTEIGER

@<TRIPOS>ATOM
      1 C           0.8063    2.4681   21.4002 C.3     1  UNL1        0.1547
      2 C           1.6454    2.0128   20.2433 C.ar    1  UNL1        0.0007
      3 C           1.1880    0.8671   19.3900 C.ar    1  UNL1       -0.0025
      4 C           2.0271    0.4117   18.2331 C.ar    1  UNL1       -0.0003
      5 C           3.3238    1.1021   17.9294 C.ar    1  UNL1       -0.0000
      6 C           3.7812    2.2478   18.7827 C.ar    1  UNL1       -0.0003
      7 C           2.9420    2.7032   19.9397 C.ar    1  UNL1       -0.0025
      8 C          -0.4704    3.2157   21.1523 C.2     1  UNL1        0.2457
      9 O          -0.4702    4.7156   21.1359 O.2     1  UNL1       -0.2729
     10 N          -1.7473    2.4633   20.9210 N.am    1  UNL1       -0.2680
     11 H          -1.7474    1.4789   20.9319 H       1  UNL1        0.1563
     12 C          -3.0240    3.2109   20.6732 C.ar    1  UNL1        0.1342
     13 C          -3.9363    3.5372   21.8182 C.ar    1  UNL1        0.0345
     14 C          -5.2129    4.2847   21.5704 C.ar    1  UNL1        0.0045
     15 C          -5.5772    4.7059   20.1776 C.ar    1  UNL1        0.0223
     16 C          -4.6648    4.3795   19.0326 C.ar    1  UNL1        0.1004
     17 N          -3.3882    3.6320   19.2804 N.ar    1  UNL1       -0.2290
     18 C          -6.8538    5.4534   19.9298 C.ar    1  UNL1        0.0411
     19 C          -7.5152    6.4079   20.8793 C.ar    1  UNL1        0.1217
     20 N          -8.7634    6.9221   20.2254 N.ar    1  UNL1       -0.1676
     21 N          -8.8734    6.2854   18.8716 N.ar    1  UNL1       -0.2473
     22 C          -9.9709    6.5160   17.8754 C.3     1  UNL1        0.1538
     23 C          -7.6932    5.3778   18.6889 C.ar    1  UNL1        0.0967
     24 N           1.2437    2.1759   22.8049 N.3     1  UNL1       -0.2875
     25 H           2.1527    2.6218   22.9290 H       1  UNL1        0.1239
     26 C           1.3917    0.7557   23.2643 C.3     1  UNL1        0.0735
     27 C           3.3266    0.0705   24.8570 C.3     1  UNL1        0.0061
     28 C           2.7583    0.1734   23.4727 C.3     1  UNL1        0.0381
     29 C           3.5566   -0.3060   22.2967 C.ar    1  UNL1       -0.0211
     30 C           3.0441   -1.4348   21.4523 C.ar    1  UNL1       -0.0035
     31 C           3.8425   -1.9142   20.2763 C.ar    1  UNL1        0.0100
     32 C           5.1533   -1.2647   19.9448 C.ar    1  UNL1        0.0684
     33 C           5.6658   -0.1359   20.7893 C.ar    1  UNL1        0.0100
     34 C           4.8675    0.3435   21.9652 C.ar    1  UNL1       -0.0035
     35 C           5.9517   -1.7441   18.7688 C.1     1  UNL1        0.1004
     36 N           6.7500   -2.2235   17.5929 N.1     1  UNL1       -0.1908
@<TRIPOS>BOND
     1    28    27    1
     2    28    26    1
     3    26    24    1
     4     1    24    1
     5     1     8    1
     6     8     9    2
     7     8    10   am
     8    10    12    1
     9    12    13   ar
    10    13    14   ar
    11    14    15   ar
    12    15    18    1
    13    18    19   ar
    14    19    20   ar
    15    20    21   ar
    16    21    22    1
    17    21    23   ar
    18    15    16   ar
    19    16    17   ar
    20     1     2    1
    21     2     3   ar
    22     3     4   ar
    23     4     5   ar
    24     5     6   ar
    25     6     7   ar
    26    28    29    1
    27    29    30   ar
    28    30    31   ar
    29    31    32   ar
    30    32    35    1
    31    35    36    3
    32    32    33   ar
    33    33    34   ar
    34    17    12   ar
    35     7     2   ar
    36    34    29   ar
    37    23    18   ar
    38    24    25    1
    39    10    11    1
@<TRIPOS>MOLECULE
*****
 36 39 0 0 0
SMALL
GASTEIGER

@<TRIPOS>ATOM
      1 C           3.9277   -0.9597   32.6675 C.3     1  UNL1        0.1547
      2 C           4.6568   -0.2299   33.7564 C.ar    1  UNL1        0.0007
      3 C           5.6087    0.8766   33.4105 C.ar    1  UNL1       -0.0025
      4 C           6.3378    1.6065   34.4993 C.ar    1  UNL1       -0.0003
      5 C           6.1149    1.2300   35.9342 C.ar    1  UNL1       -0.0000
      6 C           5.1630    0.1236   36.2800 C.ar    1  UNL1       -0.0003
      7 C           4.4339   -0.6064   35.1911 C.ar    1  UNL1       -0.0025
      8 C           3.0643   -0.2009   31.7037 C.2     1  UNL1        0.2457
      9 O           2.5836    1.1767   32.0517 O.2     1  UNL1       -0.2729
     10 N           2.6816   -0.8197   30.3920 N.am    1  UNL1       -0.2680
     11 H           2.9971   -1.7239   30.1636 H       1  UNL1        0.1563
     12 C           1.8182   -0.0609   29.4283 C.ar    1  UNL1        0.1342
     13 C           2.4473    0.8346   28.4024 C.ar    1  UNL1        0.0345
     14 C           1.5838    1.5933   27.4387 C.ar    1  UNL1        0.0045
     15 C           0.0914    1.4566   27.5009 C.ar    1  UNL1        0.0223
     16 C          -0.5377    0.5612   28.5267 C.ar    1  UNL1        0.1004
     17 N           0.3257   -0.1976   29.4904 N.ar    1  UNL1       -0.2290
     18 C          -0.7720    2.2155   26.5371 C.ar    1  UNL1        0.0411
     19 C          -0.5261    2.3689   25.0654 C.ar    1  UNL1        0.1217
     20 N          -1.6350    3.2023   24.4945 N.ar    1  UNL1       -0.1676
     21 N          -2.5662    3.5639   25.6135 N.ar    1  UNL1       -0.2473
     22 C          -3.8121    4.3903   25.4915 C.3     1  UNL1        0.1538
     23 C          -2.0329    2.9540   26.8759 C.ar    1  UNL1        0.0967
     24 N           4.0620   -2.4485   32.5423 N.3     1  UNL1       -0.2875
     25 H           3.2999   -2.8592   33.0817 H       1  UNL1        0.1239
     26 C           5.3230   -3.1279   32.9877 C.3     1  UNL1        0.0735
     27 C           7.6763   -2.0892   32.6231 C.3     1  UNL1        0.0061
     28 C           6.5735   -2.9992   32.1695 C.3     1  UNL1        0.0381
     29 C           6.7213   -3.7805   30.8976 C.ar    1  UNL1       -0.0211
     30 C           7.1302   -5.2228   30.9467 C.ar    1  UNL1       -0.0035
     31 C           7.2780   -6.0042   29.6747 C.ar    1  UNL1        0.0100
     32 C           7.0170   -5.3431   28.3538 C.ar    1  UNL1        0.0684
     33 C           6.6082   -3.9007   28.3048 C.ar    1  UNL1        0.0100
     34 C           6.4603   -3.1194   29.5766 C.ar    1  UNL1       -0.0035
     35 C           7.1648   -6.1244   27.0819 C.1     1  UNL1        0.1004
     36 N           7.3126   -6.9056   25.8100 N.1     1  UNL1       -0.1908
@<TRIPOS>BOND
     1    28    27    1
     2    28    26    1
     3    26    24    1
     4     1    24    1
     5     1     8    1
     6     8     9    2
     7     8    10   am
     8    10    12    1
     9    12    13   ar
    10    13    14   ar
    11    14    15   ar
    12    15    18    1
    13    18    19   ar
    14    19    20   ar
    15    20    21   ar
    16    21    22    1
    17    21    23   ar
    18    15    16   ar
    19    16    17   ar
    20     1     2    1
    21     2     3   ar
    22     3     4   ar
    23     4     5   ar
    24     5     6   ar
    25     6     7   ar
    26    28    29    1
    27    29    30   ar
    28    30    31   ar
    29    31    32   ar
    30    32    35    1
    31    35    36    3
    32    32    33   ar
    33    33    34   ar
    34    17    12   ar
    35     7     2   ar
    36    34    29   ar
    37    23    18   ar
    38    24    25    1
    39    10    11    1
