@<TRIPOS>MOLECULE
*****
 23 25 0 0 0
SMALL
GASTEIGER

@<TRIPOS>ATOM
      1 C          -7.1953  -18.0531   22.0245 C.3     1  UNL1        0.1895
      2 C          -8.5120  -18.7706   22.0656 C.ar    1  UNL1        0.0172
      3 C          -8.9055  -19.5464   23.2876 C.ar    1  UNL1       -0.0008
      4 C         -10.2222  -20.2638   23.3287 C.ar    1  UNL1       -0.0002
      5 C         -11.1453  -20.2055   22.1478 C.ar    1  UNL1       -0.0000
      6 C         -10.7517  -19.4296   20.9258 C.ar    1  UNL1       -0.0002
      7 C          -9.4351  -18.7122   20.8847 C.ar    1  UNL1       -0.0008
      8 C          -5.9491  -18.7942   21.6399 C.3     1  UNL1        0.0615
      9 C          -5.6982  -19.4759   20.3276 C.3     1  UNL1        0.0224
     10 C          -4.3290  -20.0866   20.3768 C.3     1  UNL1        0.0687
     11 N          -3.7337  -19.7823   21.7196 N.3     1  UNL1       -0.2973
     12 C          -4.7350  -18.9834   22.5003 C.3     1  UNL1        0.0725
     13 H          -2.8755  -19.2433   21.6036 H       1  UNL1        0.1232
     14 O          -7.1248  -16.5947   22.3680 O.3     1  UNL1       -0.4715
     15 F          -8.8084  -15.3322   27.1190 F       1  UNL1       -0.2032
     16 C          -7.6795  -15.5378   26.1529 C.ar    1  UNL1        0.1537
     17 C          -6.2635  -15.3179   26.5962 C.ar    1  UNL1        0.0330
     18 C          -5.1346  -15.5236   25.6301 C.ar    1  UNL1        0.0351
     19 C          -5.4217  -15.9492   24.2207 C.ar    1  UNL1        0.1748
     20 F          -4.7132  -16.0073   23.8601 F       1  UNL1       -0.2009
     21 C          -6.8377  -16.1691   23.7774 C.ar    1  UNL1        0.1787
     22 C          -7.9667  -15.9634   24.7435 C.ar    1  UNL1        0.1211
     23 CL         -9.3826  -16.1834   24.3001 Cl      1  UNL1       -0.0766
@<TRIPOS>BOND
     1    15    16    1
     2    16    17   ar
     3    17    18   ar
     4    18    19   ar
     5    19    20    1
     6    19    21   ar
     7    21    14    1
     8     1    14    1
     9     1     2    1
    10     2     3   ar
    11     3     4   ar
    12     4     5   ar
    13     5     6   ar
    14     6     7   ar
    15     1     8    1
    16     8     9    1
    17     9    10    1
    18    10    11    1
    19    11    12    1
    20    21    22   ar
    21    22    23    1
    22    22    16   ar
    23     7     2   ar
    24    12     8    1
    25    11    13    1
@<TRIPOS>MOLECULE
*****
 23 25 0 0 0
SMALL
GASTEIGER

@<TRIPOS>ATOM
      1 C          -7.2963  -17.9472   22.1926 C.3     1  UNL1        0.1895
      2 C          -6.0881  -18.7003   21.7203 C.ar    1  UNL1        0.0172
      3 C          -4.8442  -18.7242   22.5581 C.ar    1  UNL1       -0.0008
      4 C          -3.6361  -19.4773   22.0858 C.ar    1  UNL1       -0.0002
      5 C          -3.6718  -20.2066   20.7755 C.ar    1  UNL1       -0.0000
      6 C          -4.9158  -20.1828   19.9376 C.ar    1  UNL1       -0.0002
      7 C          -6.1239  -19.4296   20.4099 C.ar    1  UNL1       -0.0008
      8 C          -8.6137  -18.6516   22.3279 C.3     1  UNL1        0.0615
      9 C          -8.9093  -19.7997   23.2468 C.3     1  UNL1        0.0224
     10 C         -10.3451  -20.1892   23.0549 C.3     1  UNL1        0.0687
     11 N         -10.9368  -19.2818   22.0173 N.3     1  UNL1       -0.2973
     12 C          -9.8667  -18.3314   21.5680 C.3     1  UNL1        0.0725
     13 H         -11.7169  -18.7606   22.4176 H       1  UNL1        0.1232
     14 O          -7.1870  -16.4896   22.5297 O.3     1  UNL1       -0.4715
     15 F          -8.8048  -15.3558   27.3357 F       1  UNL1       -0.2032
     16 C          -7.6927  -15.4988   26.3393 C.ar    1  UNL1        0.1537
     17 C          -6.2774  -15.2181   26.7494 C.ar    1  UNL1        0.0330
     18 C          -5.1654  -15.3612   25.7530 C.ar    1  UNL1        0.0351
     19 C          -5.4686  -15.7850   24.3464 C.ar    1  UNL1        0.1748
     20 F          -4.7676  -15.8065   23.9675 F       1  UNL1       -0.2009
     21 C          -6.8838  -16.0658   23.9363 C.ar    1  UNL1        0.1787
     22 C          -7.9959  -15.9227   24.9327 C.ar    1  UNL1        0.1211
     23 CL         -9.4112  -16.2035   24.5226 Cl      1  UNL1       -0.0766
@<TRIPOS>BOND
     1    15    16    1
     2    16    17   ar
     3    17    18   ar
     4    18    19   ar
     5    19    20    1
     6    19    21   ar
     7    21    14    1
     8     1    14    1
     9     1     2    1
    10     2     3   ar
    11     3     4   ar
    12     4     5   ar
    13     5     6   ar
    14     6     7   ar
    15     1     8    1
    16     8     9    1
    17     9    10    1
    18    10    11    1
    19    11    12    1
    20    21    22   ar
    21    22    23    1
    22    22    16   ar
    23     7     2   ar
    24    12     8    1
    25    11    13    1
@<TRIPOS>MOLECULE
*****
 23 25 0 0 0
SMALL
GASTEIGER

@<TRIPOS>ATOM
      1 C          -8.3770  -17.2344   22.0331 C.3     1  UNL1        0.1895
      2 C          -9.8704  -17.3753   22.0194 C.ar    1  UNL1        0.0172
      3 C         -10.6876  -16.6018   21.0275 C.ar    1  UNL1       -0.0008
      4 C         -12.1809  -16.7426   21.0138 C.ar    1  UNL1       -0.0002
      5 C         -12.8570  -17.6569   21.9920 C.ar    1  UNL1       -0.0000
      6 C         -12.0398  -18.4304   22.9839 C.ar    1  UNL1       -0.0002
      7 C         -10.5465  -18.2896   22.9976 C.ar    1  UNL1       -0.0008
      8 C          -7.5131  -18.3602   21.5469 C.3     1  UNL1        0.0615
      9 C          -6.1998  -18.7818   22.1364 C.3     1  UNL1        0.0224
     10 C          -5.6858  -19.9441   21.3397 C.3     1  UNL1        0.0687
     11 N          -6.6815  -20.2410   20.2577 N.3     1  UNL1       -0.2973
     12 C          -7.8109  -19.2620   20.3858 C.3     1  UNL1        0.0725
     13 H          -7.0343  -21.1922   20.3634 H       1  UNL1        0.1232
     14 O          -7.7477  -15.9680   22.5329 O.3     1  UNL1       -0.4715
     15 F          -4.4808  -15.4200   26.5363 F       1  UNL1       -0.2032
     16 C          -5.8806  -15.5016   26.0037 C.ar    1  UNL1        0.1537
     17 C          -7.0471  -15.3907   26.9404 C.ar    1  UNL1        0.0330
     18 C          -8.4470  -15.4723   26.4078 C.ar    1  UNL1        0.0351
     19 C          -8.6805  -15.6647   24.9387 C.ar    1  UNL1        0.1748
     20 F          -9.4716  -15.6842   24.8427 F       1  UNL1       -0.2009
     21 C          -7.5142  -15.7755   24.0020 C.ar    1  UNL1        0.1787
     22 C          -6.1142  -15.6940   24.5346 C.ar    1  UNL1        0.1211
     23 CL         -4.9478  -15.8049   23.5980 Cl      1  UNL1       -0.0766
@<TRIPOS>BOND
     1    15    16    1
     2    16    17   ar
     3    17    18   ar
     4    18    19   ar
     5    19    20    1
     6    19    21   ar
     7    21    14    1
     8     1    14    1
     9     1     2    1
    10     2     3   ar
    11     3     4   ar
    12     4     5   ar
    13     5     6   ar
    14     6     7   ar
    15     1     8    1
    16     8     9    1
    17     9    10    1
    18    10    11    1
    19    11    12    1
    20    21    22   ar
    21    22    23    1
    22    22    16   ar
    23     7     2   ar
    24    12     8    1
    25    11    13    1
@<TRIPOS>MOLECULE
*****
 23 25 0 0 0
SMALL
GASTEIGER

@<TRIPOS>ATOM
      1 C          -7.3219  -18.1158   21.9359 C.3     1  UNL1        0.1895
      2 C          -8.6365  -18.8380   21.9196 C.ar    1  UNL1        0.0172
      3 C          -9.0984  -19.5825   23.1371 C.ar    1  UNL1       -0.0008
      4 C         -10.4130  -20.3048   23.1207 C.ar    1  UNL1       -0.0002
      5 C         -11.2657  -20.2825   21.8869 C.ar    1  UNL1       -0.0000
      6 C         -10.8038  -19.5379   20.6693 C.ar    1  UNL1       -0.0002
      7 C          -9.4892  -18.8157   20.6857 C.ar    1  UNL1       -0.0008
      8 C          -6.0599  -18.8473   21.5861 C.3     1  UNL1        0.0615
      9 C          -5.8178  -19.6397   20.3358 C.3     1  UNL1        0.0224
     10 C          -4.4267  -20.1969   20.4022 C.3     1  UNL1        0.0687
     11 N          -3.8090  -19.7489   21.6936 N.3     1  UNL1       -0.2973
     12 C          -4.8185  -18.9147   22.4254 C.3     1  UNL1        0.0725
     13 H          -2.9740  -19.1946   21.5040 H       1  UNL1        0.1232
     14 O          -7.2693  -16.6622   22.3021 O.3     1  UNL1       -0.4715
     15 F          -4.7331  -14.8180   26.4454 F       1  UNL1       -0.2032
     16 C          -5.9951  -15.3298   25.8165 C.ar    1  UNL1        0.1537
     17 C          -7.2510  -15.4313   26.6304 C.ar    1  UNL1        0.0330
     18 C          -8.5130  -15.9430   26.0015 C.ar    1  UNL1        0.0351
     19 C          -8.5191  -16.3533   24.5587 C.ar    1  UNL1        0.1748
     20 F          -9.2626  -16.5943   24.4020 F       1  UNL1       -0.2009
     21 C          -7.2632  -16.2519   23.7449 C.ar    1  UNL1        0.1787
     22 C          -6.0012  -15.7401   24.3737 C.ar    1  UNL1        0.1211
     23 CL         -4.7453  -15.6386   23.5598 Cl      1  UNL1       -0.0766
@<TRIPOS>BOND
     1    15    16    1
     2    16    17   ar
     3    17    18   ar
     4    18    19   ar
     5    19    20    1
     6    19    21   ar
     7    21    14    1
     8     1    14    1
     9     1     2    1
    10     2     3   ar
    11     3     4   ar
    12     4     5   ar
    13     5     6   ar
    14     6     7   ar
    15     1     8    1
    16     8     9    1
    17     9    10    1
    18    10    11    1
    19    11    12    1
    20    21    22   ar
    21    22    23    1
    22    22    16   ar
    23     7     2   ar
    24    12     8    1
    25    11    13    1
@<TRIPOS>MOLECULE
*****
 23 25 0 0 0
SMALL
GASTEIGER

@<TRIPOS>ATOM
      1 C          -7.7380  -18.2392   22.6598 C.3     1  UNL1        0.1895
      2 C          -6.4274  -18.6771   22.0762 C.ar    1  UNL1        0.0172
      3 C          -6.3989  -19.4404   20.7853 C.ar    1  UNL1       -0.0008
      4 C          -5.0883  -19.8784   20.2017 C.ar    1  UNL1       -0.0002
      5 C          -3.8062  -19.5530   20.9090 C.ar    1  UNL1       -0.0000
      6 C          -3.8347  -18.7896   22.2000 C.ar    1  UNL1       -0.0002
      7 C          -5.1453  -18.3517   22.7836 C.ar    1  UNL1       -0.0008
      8 C          -7.8553  -16.8952   23.3155 C.3     1  UNL1        0.0615
      9 C          -8.2707  -16.6393   24.7339 C.3     1  UNL1        0.0224
     10 C          -8.2500  -15.1571   24.9628 C.3     1  UNL1        0.0687
     11 N          -7.8217  -14.4967   23.6858 N.3     1  UNL1       -0.2973
     12 C          -7.5778  -15.5710   22.6676 C.3     1  UNL1        0.0725
     13 H          -6.9646  -13.9660   23.8411 H       1  UNL1        0.1232
     14 O          -8.9312  -19.1453   22.5878 O.3     1  UNL1       -0.4715
     15 F         -13.7847  -17.9155   23.9774 F       1  UNL1       -0.2032
     16 C         -12.7056  -17.9698   22.9369 C.ar    1  UNL1        0.1537
     17 C         -12.9742  -17.4635   21.5507 C.ar    1  UNL1        0.0330
     18 C         -11.8951  -17.5178   20.5102 C.ar    1  UNL1        0.0351
     19 C         -10.5474  -18.0784   20.8559 C.ar    1  UNL1        0.1748
     20 F         -10.1110  -18.0272   20.1908 F       1  UNL1       -0.2009
     21 C         -10.2789  -18.5847   22.2421 C.ar    1  UNL1        0.1787
     22 C         -11.3580  -18.5304   23.2826 C.ar    1  UNL1        0.1211
     23 CL        -11.0894  -19.0367   24.6688 Cl      1  UNL1       -0.0766
@<TRIPOS>BOND
     1    15    16    1
     2    16    17   ar
     3    17    18   ar
     4    18    19   ar
     5    19    20    1
     6    19    21   ar
     7    21    14    1
     8     1    14    1
     9     1     2    1
    10     2     3   ar
    11     3     4   ar
    12     4     5   ar
    13     5     6   ar
    14     6     7   ar
    15     1     8    1
    16     8     9    1
    17     9    10    1
    18    10    11    1
    19    11    12    1
    20    21    22   ar
    21    22    23    1
    22    22    16   ar
    23     7     2   ar
    24    12     8    1
    25    11    13    1
@<TRIPOS>MOLECULE
*****
 23 25 0 0 0
SMALL
GASTEIGER

@<TRIPOS>ATOM
      1 C          -7.5437  -18.6305   22.4055 C.3     1  UNL1        0.1895
      2 C          -6.2257  -19.0987   21.8636 C.ar    1  UNL1        0.0172
      3 C          -6.1868  -20.0684   20.7199 C.ar    1  UNL1       -0.0008
      4 C          -4.8688  -20.5367   20.1780 C.ar    1  UNL1       -0.0002
      5 C          -3.5897  -20.0352   20.7799 C.ar    1  UNL1       -0.0000
      6 C          -3.6285  -19.0655   21.9237 C.ar    1  UNL1       -0.0002
      7 C          -4.9465  -18.5973   22.4655 C.ar    1  UNL1       -0.0008
      8 C          -7.7019  -17.2139   22.8728 C.3     1  UNL1        0.0615
      9 C          -7.5665  -16.7316   24.2866 C.3     1  UNL1        0.0224
     10 C          -7.8041  -15.2506   24.2959 C.3     1  UNL1        0.0687
     11 N          -8.0863  -14.8175   22.8878 N.3     1  UNL1       -0.2973
     12 C          -8.0231  -16.0310   22.0082 C.3     1  UNL1        0.0725
     13 H          -7.3885  -14.1364   22.5886 H       1  UNL1        0.1232
     14 O          -8.7035  -19.5788   22.4800 O.3     1  UNL1       -0.4715
     15 F         -13.1435  -17.3408   20.9706 F       1  UNL1       -0.2032
     16 C         -12.2942  -17.9442   22.0497 C.ar    1  UNL1        0.1537
     17 C         -12.8156  -18.0319   23.4535 C.ar    1  UNL1        0.0330
     18 C         -11.9663  -18.6352   24.5327 C.ar    1  UNL1        0.0351
     19 C         -10.5956  -19.1508   24.2082 C.ar    1  UNL1        0.1748
     20 F         -10.2982  -19.4302   24.8930 F       1  UNL1       -0.2009
     21 C         -10.0742  -19.0631   22.8045 C.ar    1  UNL1        0.1787
     22 C         -10.9235  -18.4598   21.7252 C.ar    1  UNL1        0.1211
     23 CL        -10.4021  -18.3721   20.3215 Cl      1  UNL1       -0.0766
@<TRIPOS>BOND
     1    15    16    1
     2    16    17   ar
     3    17    18   ar
     4    18    19   ar
     5    19    20    1
     6    19    21   ar
     7    21    14    1
     8     1    14    1
     9     1     2    1
    10     2     3   ar
    11     3     4   ar
    12     4     5   ar
    13     5     6   ar
    14     6     7   ar
    15     1     8    1
    16     8     9    1
    17     9    10    1
    18    10    11    1
    19    11    12    1
    20    21    22   ar
    21    22    23    1
    22    22    16   ar
    23     7     2   ar
    24    12     8    1
    25    11    13    1
@<TRIPOS>MOLECULE
*****
 23 25 0 0 0
SMALL
GASTEIGER

@<TRIPOS>ATOM
      1 C         -10.1864  -16.8194   23.6322 C.3     1  UNL1        0.1895
      2 C         -10.8415  -16.5242   22.3154 C.ar    1  UNL1        0.0172
      3 C         -10.0604  -15.8579   21.2219 C.ar    1  UNL1       -0.0008
      4 C         -10.7155  -15.5627   19.9051 C.ar    1  UNL1       -0.0002
      5 C         -12.1516  -15.9337   19.6820 C.ar    1  UNL1       -0.0000
      6 C         -12.9328  -16.6000   20.7756 C.ar    1  UNL1       -0.0002
      7 C         -12.2777  -16.8952   22.0924 C.ar    1  UNL1       -0.0008
      8 C          -9.9561  -18.2406   24.0533 C.3     1  UNL1        0.0615
      9 C          -9.2787  -19.3027   23.2391 C.3     1  UNL1        0.0224
     10 C          -9.2667  -20.5676   24.0453 C.3     1  UNL1        0.0687
     11 N          -9.9368  -20.2873   25.3577 N.3     1  UNL1       -0.2973
     12 C         -10.3629  -18.8490   25.3627 C.3     1  UNL1        0.0725
     13 H          -9.2843  -20.4576   26.1229 H       1  UNL1        0.1232
     14 O          -9.7617  -15.6936   24.5277 O.3     1  UNL1       -0.4715
     15 F          -4.6287  -15.1343   23.9444 F       1  UNL1       -0.2032
     16 C          -5.8148  -15.4022   24.8228 C.ar    1  UNL1        0.1537
     17 C          -5.6204  -15.6584   26.2879 C.ar    1  UNL1        0.0330
     18 C          -6.8064  -15.9263   27.1663 C.ar    1  UNL1        0.0351
     19 C          -8.1869  -15.9380   26.5795 C.ar    1  UNL1        0.1748
     20 F          -8.6815  -16.0943   27.1848 F       1  UNL1       -0.2009
     21 C          -8.3813  -15.6818   25.1144 C.ar    1  UNL1        0.1787
     22 C          -7.1952  -15.4139   24.2360 C.ar    1  UNL1        0.1211
     23 CL         -7.3896  -15.1577   22.7709 Cl      1  UNL1       -0.0766
@<TRIPOS>BOND
     1    15    16    1
     2    16    17   ar
     3    17    18   ar
     4    18    19   ar
     5    19    20    1
     6    19    21   ar
     7    21    14    1
     8     1    14    1
     9     1     2    1
    10     2     3   ar
    11     3     4   ar
    12     4     5   ar
    13     5     6   ar
    14     6     7   ar
    15     1     8    1
    16     8     9    1
    17     9    10    1
    18    10    11    1
    19    11    12    1
    20    21    22   ar
    21    22    23    1
    22    22    16   ar
    23     7     2   ar
    24    12     8    1
    25    11    13    1
@<TRIPOS>MOLECULE
*****
 23 25 0 0 0
SMALL
GASTEIGER

@<TRIPOS>ATOM
      1 C          -8.6430  -17.0312   23.7668 C.3     1  UNL1        0.1895
      2 C          -7.8900  -16.3486   24.8699 C.ar    1  UNL1        0.0172
      3 C          -8.5306  -16.1659   26.2139 C.ar    1  UNL1       -0.0008
      4 C          -7.7776  -15.4833   27.3171 C.ar    1  UNL1       -0.0002
      5 C          -6.3840  -14.9834   27.0763 C.ar    1  UNL1       -0.0000
      6 C          -5.7433  -15.1662   25.7323 C.ar    1  UNL1       -0.0002
      7 C          -6.4963  -15.8488   24.6291 C.ar    1  UNL1       -0.0008
      8 C          -9.8826  -17.8163   24.0788 C.3     1  UNL1        0.0615
      9 C         -11.2613  -17.5294   23.5624 C.3     1  UNL1        0.0224
     10 C         -12.1918  -18.5619   24.1265 C.3     1  UNL1        0.0687
     11 N         -11.3881  -19.4869   24.9917 N.3     1  UNL1       -0.2973
     12 C          -9.9608  -19.0261   24.9622 C.3     1  UNL1        0.0725
     13 H         -11.4517  -20.4395   24.6326 H       1  UNL1        0.1232
     14 O          -8.1566  -16.9288   22.3516 O.3     1  UNL1       -0.4715
     15 F          -8.4395  -20.7671   18.8605 F       1  UNL1       -0.2032
     16 C          -7.6855  -20.0416   19.9352 C.ar    1  UNL1        0.1537
     17 C          -6.3188  -20.5098   20.3393 C.ar    1  UNL1        0.0330
     18 C          -5.5648  -19.7843   21.4140 C.ar    1  UNL1        0.0351
     19 C          -6.1774  -18.5907   22.0848 C.ar    1  UNL1        0.1748
     20 F          -5.6417  -18.3399   22.6192 F       1  UNL1       -0.2009
     21 C          -7.5440  -18.1225   21.6808 C.ar    1  UNL1        0.1787
     22 C          -8.2981  -18.8480   20.6060 C.ar    1  UNL1        0.1211
     23 CL         -9.6646  -18.3798   20.2020 Cl      1  UNL1       -0.0766
@<TRIPOS>BOND
     1    15    16    1
     2    16    17   ar
     3    17    18   ar
     4    18    19   ar
     5    19    20    1
     6    19    21   ar
     7    21    14    1
     8     1    14    1
     9     1     2    1
    10     2     3   ar
    11     3     4   ar
    12     4     5   ar
    13     5     6   ar
    14     6     7   ar
    15     1     8    1
    16     8     9    1
    17     9    10    1
    18    10    11    1
    19    11    12    1
    20    21    22   ar
    21    22    23    1
    22    22    16   ar
    23     7     2   ar
    24    12     8    1
    25    11    13    1
@<TRIPOS>MOLECULE
*****
 23 25 0 0 0
SMALL
GASTEIGER

@<TRIPOS>ATOM
      1 C          -9.6197  -17.9916   24.0151 C.3     1  UNL1        0.1895
      2 C          -8.8534  -17.1319   24.9762 C.ar    1  UNL1        0.0172
      3 C          -9.0711  -17.2801   26.4528 C.ar    1  UNL1       -0.0008
      4 C          -8.3047  -16.4204   27.4139 C.ar    1  UNL1       -0.0002
      5 C          -7.3207  -15.4125   26.8983 C.ar    1  UNL1       -0.0000
      6 C          -7.1030  -15.2643   25.4216 C.ar    1  UNL1       -0.0002
      7 C          -7.8693  -16.1240   24.4605 C.ar    1  UNL1       -0.0008
      8 C         -11.0194  -17.6178   23.6262 C.3     1  UNL1        0.0615
      9 C         -12.2653  -18.3725   23.9840 C.3     1  UNL1        0.0224
     10 C         -13.4348  -17.6447   23.3901 C.3     1  UNL1        0.0687
     11 N         -12.9116  -16.4401   22.6653 N.3     1  UNL1       -0.2973
     12 C         -11.4188  -16.4234   22.8112 C.3     1  UNL1        0.0725
     13 H         -13.3086  -15.5926   23.0710 H       1  UNL1        0.1232
     14 O          -8.9864  -19.2251   23.4429 O.3     1  UNL1       -0.4715
     15 F          -5.7439  -18.9679   19.3908 F       1  UNL1       -0.2032
     16 C          -7.1204  -19.1980   19.9404 C.ar    1  UNL1        0.1537
     17 C          -8.2523  -19.5298   19.0137 C.ar    1  UNL1        0.0330
     18 C          -9.6288  -19.7599   19.5633 C.ar    1  UNL1        0.0351
     19 C          -9.8735  -19.6583   21.0397 C.ar    1  UNL1        0.1748
     20 F         -10.6492  -19.8092   21.1448 F       1  UNL1       -0.2009
     21 C          -8.7417  -19.3266   21.9665 C.ar    1  UNL1        0.1787
     22 C          -7.3651  -19.0965   21.4168 C.ar    1  UNL1        0.1211
     23 CL         -6.2333  -18.7648   22.3436 Cl      1  UNL1       -0.0766
@<TRIPOS>BOND
     1    15    16    1
     2    16    17   ar
     3    17    18   ar
     4    18    19   ar
     5    19    20    1
     6    19    21   ar
     7    21    14    1
     8     1    14    1
     9     1     2    1
    10     2     3   ar
    11     3     4   ar
    12     4     5   ar
    13     5     6   ar
    14     6     7   ar
    15     1     8    1
    16     8     9    1
    17     9    10    1
    18    10    11    1
    19    11    12    1
    20    21    22   ar
    21    22    23    1
    22    22    16   ar
    23     7     2   ar
    24    12     8    1
    25    11    13    1
