@<TRIPOS>MOLECULE
*****
 37 41 0 0 0
SMALL
GASTEIGER

@<TRIPOS>ATOM
      1 C         -14.0394   -6.1837   18.9968 C.3     1  UNL1        0.2777
      2 O         -13.6415   -7.5844   18.6364 O.3     1  UNL1       -0.4230
      3 C         -14.8427   -8.2738   18.0606 C.2     1  UNL1        0.4117
      4 O         -14.8945   -9.6893   17.5669 O.2     1  UNL1       -0.2257
      5 N         -15.9830   -7.2994   18.0650 N.am    1  UNL1       -0.1902
      6 C         -15.4866   -6.0076   18.6437 C.2     1  UNL1        0.2797
      7 O         -16.2953   -4.7588   18.8355 O.2     1  UNL1       -0.2700
      8 C         -14.3813   -2.3426   19.4381 C.ar    1  UNL1        0.2499
      9 N         -14.2041   -2.7832   20.8610 N.ar    1  UNL1       -0.1071
     10 N         -14.0545   -4.2757   20.8689 N.ar    1  UNL1       -0.1072
     11 C         -14.1392   -4.7575   19.4509 C.ar    1  UNL1        0.2714
     12 O         -14.3411   -3.5628   18.5666 O.2     1  UNL1       -0.4156
     13 C         -13.5958    1.2330   17.9059 C.ar    1  UNL1        0.1419
     14 C         -14.9356    1.8956   18.0312 C.ar    1  UNL1        0.0738
     15 C         -16.0907    1.1455   18.6254 C.ar    1  UNL1        0.1419
     16 C         -15.9059   -0.2672   19.0944 C.ar    1  UNL1        0.0418
     17 C         -14.5661   -0.9298   18.9691 C.ar    1  UNL1        0.0611
     18 C         -13.4110   -0.1797   18.3749 C.ar    1  UNL1        0.0418
     19 C         -12.6787    3.2733   16.5844 C.3     1  UNL1        0.2525
     20 O         -12.4407    1.9832   17.3117 O.3     1  UNL1       -0.4713
     21 O         -17.4306    1.8082   18.7507 O.3     1  UNL1       -0.4713
     22 C         -18.0944    1.9101   20.0919 C.3     1  UNL1        0.2525
     23 C         -17.3754   -7.5692   17.5766 C.3     1  UNL1        0.1082
     24 C         -17.7382   -7.2834   16.1495 C.3     1  UNL1        0.0270
     25 C         -18.4049   -8.1250   18.5153 C.ar    1  UNL1       -0.0038
     26 C         -18.4695   -7.6366   19.9321 C.ar    1  UNL1       -0.0027
     27 C         -19.4990   -8.1922   20.8708 C.ar    1  UNL1       -0.0003
     28 C         -20.4640   -9.2364   20.3927 C.ar    1  UNL1       -0.0000
     29 C         -20.3995   -9.7248   18.9760 C.ar    1  UNL1       -0.0003
     30 C         -19.3699   -9.1691   18.0372 C.ar    1  UNL1       -0.0027
     31 C         -12.6132   -6.0617   19.4449 C.3     1  UNL1        0.0849
     32 C         -11.5695   -5.5531   18.4950 C.ar    1  UNL1       -0.0177
     33 C         -11.7783   -5.6770   17.0149 C.ar    1  UNL1       -0.0041
     34 C         -10.7347   -5.1685   16.0650 C.ar    1  UNL1       -0.0003
     35 C          -9.4822   -4.5359   16.5954 C.ar    1  UNL1       -0.0000
     36 C          -9.2735   -4.4120   18.0755 C.ar    1  UNL1       -0.0003
     37 C         -10.3171   -4.9206   19.0254 C.ar    1  UNL1       -0.0041
@<TRIPOS>BOND
     1    19    20    1
     2    20    13    1
     3    13    14   ar
     4    14    15   ar
     5    15    21    1
     6    21    22    1
     7    15    16   ar
     8    16    17   ar
     9    17     8    1
    10     8     9   ar
    11     9    10   ar
    12    10    11   ar
    13    11     1    1
    14     1    31    1
    15    31    32    1
    16    32    33   ar
    17    33    34   ar
    18    34    35   ar
    19    35    36   ar
    20    36    37   ar
    21     1     2    1
    22     2     3    1
    23     3     4    2
    24     3     5   am
    25     5    23    1
    26    23    24    1
    27    23    25    1
    28    25    26   ar
    29    26    27   ar
    30    27    28   ar
    31    28    29   ar
    32    29    30   ar
    33     5     6   am
    34     6     7    2
    35    11    12   ar
    36    17    18   ar
    37    18    13   ar
    38    12     8   ar
    39     6     1    1
    40    37    32   ar
    41    30    25   ar
@<TRIPOS>MOLECULE
*****
 37 41 0 0 0
SMALL
GASTEIGER

@<TRIPOS>ATOM
      1 C         -14.4126   -5.2051   18.9547 C.3     1  UNL1        0.2777
      2 O         -13.9658   -6.5599   19.4182 O.3     1  UNL1       -0.4230
      3 C         -14.9884   -7.5627   18.9727 C.2     1  UNL1        0.4117
      4 O         -14.9406   -9.0410   19.2222 O.2     1  UNL1       -0.2257
      5 N         -16.0673   -6.8277   18.2339 N.am    1  UNL1       -0.1902
      6 C         -15.7114   -5.3706   18.2228 C.2     1  UNL1        0.2797
      7 O         -16.5135   -4.2718   17.5907 O.2     1  UNL1       -0.2700
      8 C         -15.1262   -1.3919   18.8272 C.ar    1  UNL1        0.2499
      9 N         -14.6297   -1.6407   17.4338 N.ar    1  UNL1       -0.1071
     10 N         -14.3019   -3.0993   17.3119 N.ar    1  UNL1       -0.1072
     11 C         -14.5959   -3.7521   18.6301 C.ar    1  UNL1        0.2714
     12 O         -15.1053   -2.6969   19.5665 O.2     1  UNL1       -0.4156
     13 C         -17.0642    1.3031   21.0023 C.ar    1  UNL1        0.1419
     14 C         -16.4466    2.5729   20.4963 C.ar    1  UNL1        0.0738
     15 C         -15.3889    2.5212   19.4340 C.ar    1  UNL1        0.1419
     16 C         -14.9488    1.1996   18.8776 C.ar    1  UNL1        0.0418
     17 C         -15.5663   -0.0703   19.3836 C.ar    1  UNL1        0.0611
     18 C         -16.6240   -0.0185   20.4459 C.ar    1  UNL1        0.0418
     19 C         -17.9516    2.2592   23.2491 C.3     1  UNL1        0.2525
     20 O         -18.1219    1.3548   22.0647 O.3     1  UNL1       -0.4713
     21 O         -14.7714    3.7911   18.9280 O.3     1  UNL1       -0.4713
     22 C         -15.4709    5.1012   19.1389 C.3     1  UNL1        0.2525
     23 C         -17.2878   -7.4419   17.6149 C.3     1  UNL1        0.1082
     24 C         -17.4499   -7.4486   16.1238 C.3     1  UNL1        0.0270
     25 C         -18.3461   -8.0495   18.4871 C.ar    1  UNL1       -0.0038
     26 C         -19.1604   -9.2045   17.9843 C.ar    1  UNL1       -0.0027
     27 C         -20.2188   -9.8120   18.8564 C.ar    1  UNL1       -0.0003
     28 C         -20.4629   -9.2646   20.2314 C.ar    1  UNL1       -0.0000
     29 C         -19.6486   -8.1097   20.7343 C.ar    1  UNL1       -0.0003
     30 C         -18.5902   -7.5020   19.8622 C.ar    1  UNL1       -0.0027
     31 C         -13.1521   -4.7358   19.6187 C.3     1  UNL1        0.0849
     32 C         -11.8299   -4.9232   18.9356 C.ar    1  UNL1       -0.0177
     33 C         -11.0574   -3.7301   18.4565 C.ar    1  UNL1       -0.0041
     34 C          -9.7352   -3.9175   17.7734 C.ar    1  UNL1       -0.0003
     35 C          -9.1855   -5.2982   17.5692 C.ar    1  UNL1       -0.0000
     36 C          -9.9581   -6.4913   18.0482 C.ar    1  UNL1       -0.0003
     37 C         -11.2803   -6.3039   18.7314 C.ar    1  UNL1       -0.0041
@<TRIPOS>BOND
     1    19    20    1
     2    20    13    1
     3    13    14   ar
     4    14    15   ar
     5    15    21    1
     6    21    22    1
     7    15    16   ar
     8    16    17   ar
     9    17     8    1
    10     8     9   ar
    11     9    10   ar
    12    10    11   ar
    13    11     1    1
    14     1    31    1
    15    31    32    1
    16    32    33   ar
    17    33    34   ar
    18    34    35   ar
    19    35    36   ar
    20    36    37   ar
    21     1     2    1
    22     2     3    1
    23     3     4    2
    24     3     5   am
    25     5    23    1
    26    23    24    1
    27    23    25    1
    28    25    26   ar
    29    26    27   ar
    30    27    28   ar
    31    28    29   ar
    32    29    30   ar
    33     5     6   am
    34     6     7    2
    35    11    12   ar
    36    17    18   ar
    37    18    13   ar
    38    12     8   ar
    39     6     1    1
    40    37    32   ar
    41    30    25   ar
@<TRIPOS>MOLECULE
*****
 37 41 0 0 0
SMALL
GASTEIGER

@<TRIPOS>ATOM
      1 C           4.5637   -2.0338   22.8098 C.3     1  UNL1        0.2777
      2 O           4.3707   -2.7524   21.5074 O.3     1  UNL1       -0.4230
      3 C           5.5851   -3.5971   21.2597 C.2     1  UNL1        0.4117
      4 O           5.8155   -4.4829   20.0713 O.2     1  UNL1       -0.2257
      5 N           6.5288   -3.4006   22.4089 N.am    1  UNL1       -0.1902
      6 C           5.8975   -2.4344   23.3670 C.2     1  UNL1        0.2797
      7 O           6.4952   -1.9532   24.6560 O.2     1  UNL1       -0.2700
      8 C           4.0014   -0.4704   26.3177 C.ar    1  UNL1        0.2499
      9 N           4.6707    0.6634   25.5990 N.ar    1  UNL1       -0.1071
     10 N           4.9628    0.2158   24.1974 N.ar    1  UNL1       -0.1072
     11 C           4.4740   -1.1947   24.0500 C.ar    1  UNL1        0.2714
     12 O           3.8799   -1.6188   25.3604 O.2     1  UNL1       -0.4156
     13 C           4.0534   -0.6579   30.2816 C.ar    1  UNL1        0.1419
     14 C           2.6038   -0.4332   30.5950 C.ar    1  UNL1        0.0738
     15 C           1.6201   -0.2210   29.4827 C.ar    1  UNL1        0.1419
     16 C           2.0859   -0.2334   28.0569 C.ar    1  UNL1        0.0418
     17 C           3.5355   -0.4580   27.7435 C.ar    1  UNL1        0.0611
     18 C           4.5192   -0.6703   28.8558 C.ar    1  UNL1        0.0418
     19 C           5.0856   -2.1866   32.1112 C.3     1  UNL1        0.2525
     20 O           5.0371   -0.8701   31.3939 O.3     1  UNL1       -0.4713
     21 O           0.1705    0.0036   29.7961 O.3     1  UNL1       -0.4713
     22 C          -0.8831   -0.4181   28.8152 C.3     1  UNL1        0.2525
     23 C           7.8685   -4.0553   22.5716 C.3     1  UNL1        0.1082
     24 C           9.0613   -3.5147   21.8401 C.3     1  UNL1        0.0270
     25 C           8.0155   -5.2507   23.4658 C.ar    1  UNL1       -0.0038
     26 C           8.8204   -6.4323   23.0120 C.ar    1  UNL1       -0.0027
     27 C           8.9675   -7.6276   23.9061 C.ar    1  UNL1       -0.0003
     28 C           8.3096   -7.6413   25.2541 C.ar    1  UNL1       -0.0000
     29 C           7.5047   -6.4598   25.7079 C.ar    1  UNL1       -0.0003
     30 C           7.3576   -5.2644   24.8137 C.ar    1  UNL1       -0.0027
     31 C           3.2112   -1.4577   22.5120 C.3     1  UNL1        0.0849
     32 C           2.9873   -0.6852   21.2458 C.ar    1  UNL1       -0.0177
     33 C           1.6820   -0.8029   20.5162 C.ar    1  UNL1       -0.0041
     34 C           1.4581   -0.0304   19.2501 C.ar    1  UNL1       -0.0003
     35 C           2.5396    0.8599   18.7135 C.ar    1  UNL1       -0.0000
     36 C           3.8448    0.9775   19.4431 C.ar    1  UNL1       -0.0003
     37 C           4.0687    0.2050   20.7092 C.ar    1  UNL1       -0.0041
@<TRIPOS>BOND
     1    19    20    1
     2    20    13    1
     3    13    14   ar
     4    14    15   ar
     5    15    21    1
     6    21    22    1
     7    15    16   ar
     8    16    17   ar
     9    17     8    1
    10     8     9   ar
    11     9    10   ar
    12    10    11   ar
    13    11     1    1
    14     1    31    1
    15    31    32    1
    16    32    33   ar
    17    33    34   ar
    18    34    35   ar
    19    35    36   ar
    20    36    37   ar
    21     1     2    1
    22     2     3    1
    23     3     4    2
    24     3     5   am
    25     5    23    1
    26    23    24    1
    27    23    25    1
    28    25    26   ar
    29    26    27   ar
    30    27    28   ar
    31    28    29   ar
    32    29    30   ar
    33     5     6   am
    34     6     7    2
    35    11    12   ar
    36    17    18   ar
    37    18    13   ar
    38    12     8   ar
    39     6     1    1
    40    37    32   ar
    41    30    25   ar
@<TRIPOS>MOLECULE
*****
 37 41 0 0 0
SMALL
GASTEIGER

@<TRIPOS>ATOM
      1 C           4.5793   -2.0247   22.7958 C.3     1  UNL1        0.2777
      2 O           4.3989   -2.7383   21.4888 O.3     1  UNL1       -0.4230
      3 C           5.6171   -3.5795   21.2480 C.2     1  UNL1        0.4117
      4 O           5.8595   -4.4599   20.0580 O.2     1  UNL1       -0.2257
      5 N           6.5505   -3.3858   22.4061 N.am    1  UNL1       -0.1902
      6 C           5.9091   -2.4249   23.3627 C.2     1  UNL1        0.2797
      7 O           6.4947   -1.9478   24.6587 O.2     1  UNL1       -0.2700
      8 C           4.0150   -0.4882   26.3152 C.ar    1  UNL1        0.2499
      9 N           4.6255    0.6723   25.5868 N.ar    1  UNL1       -0.1071
     10 N           4.9112    0.2380   24.1797 N.ar    1  UNL1       -0.1072
     11 C           4.4772   -1.1909   24.0386 C.ar    1  UNL1        0.2714
     12 O           3.9234   -1.6397   25.3583 O.2     1  UNL1       -0.4156
     13 C           1.6846   -0.3061   29.5224 C.ar    1  UNL1        0.1419
     14 C           2.6907   -0.5109   30.6158 C.ar    1  UNL1        0.0738
     15 C           4.1383   -0.7081   30.2758 C.ar    1  UNL1        0.1419
     16 C           4.5797   -0.7005   28.8423 C.ar    1  UNL1        0.0418
     17 C           3.5736   -0.4958   27.7488 C.ar    1  UNL1        0.0611
     18 C           2.1260   -0.2986   28.0889 C.ar    1  UNL1        0.0418
     19 C          -0.8111   -0.2672   28.8011 C.3     1  UNL1        0.2525
     20 O           0.2370   -0.1089   29.8625 O.3     1  UNL1       -0.4713
     21 O           5.1445   -0.9129   31.3693 O.3     1  UNL1       -0.4713
     22 C           5.6130   -2.2971   31.7078 C.3     1  UNL1        0.2525
     23 C           7.8902   -4.0385   22.5775 C.3     1  UNL1        0.1082
     24 C           9.0891   -3.4892   21.8628 C.3     1  UNL1        0.0270
     25 C           8.0309   -5.2405   23.4637 C.ar    1  UNL1       -0.0038
     26 C           8.8387   -6.4188   23.0066 C.ar    1  UNL1       -0.0027
     27 C           8.9795   -7.6209   23.8927 C.ar    1  UNL1       -0.0003
     28 C           8.3124   -7.6446   25.2360 C.ar    1  UNL1       -0.0000
     29 C           7.5046   -6.4663   25.6932 C.ar    1  UNL1       -0.0003
     30 C           7.3638   -5.2642   24.8070 C.ar    1  UNL1       -0.0027
     31 C           3.2281   -1.4501   22.4887 C.3     1  UNL1        0.0849
     32 C           3.0139   -0.6715   21.2246 C.ar    1  UNL1       -0.0177
     33 C           1.7187   -0.7949   20.4781 C.ar    1  UNL1       -0.0041
     34 C           1.5045   -0.0163   19.2141 C.ar    1  UNL1       -0.0003
     35 C           2.5855    0.8857   18.6965 C.ar    1  UNL1       -0.0000
     36 C           3.8806    1.0091   19.4430 C.ar    1  UNL1       -0.0003
     37 C           4.0948    0.2305   20.7070 C.ar    1  UNL1       -0.0041
@<TRIPOS>BOND
     1    19    20    1
     2    20    13    1
     3    13    14   ar
     4    14    15   ar
     5    15    21    1
     6    21    22    1
     7    15    16   ar
     8    16    17   ar
     9    17     8    1
    10     8     9   ar
    11     9    10   ar
    12    10    11   ar
    13    11     1    1
    14     1    31    1
    15    31    32    1
    16    32    33   ar
    17    33    34   ar
    18    34    35   ar
    19    35    36   ar
    20    36    37   ar
    21     1     2    1
    22     2     3    1
    23     3     4    2
    24     3     5   am
    25     5    23    1
    26    23    24    1
    27    23    25    1
    28    25    26   ar
    29    26    27   ar
    30    27    28   ar
    31    28    29   ar
    32    29    30   ar
    33     5     6   am
    34     6     7    2
    35    11    12   ar
    36    17    18   ar
    37    18    13   ar
    38    12     8   ar
    39     6     1    1
    40    37    32   ar
    41    30    25   ar
@<TRIPOS>MOLECULE
*****
 37 41 0 0 0
SMALL
GASTEIGER

@<TRIPOS>ATOM
      1 C           3.5165    0.1371   18.8508 C.3     1  UNL1        0.2777
      2 O           4.7281    0.1022   17.9672 O.3     1  UNL1       -0.4230
      3 C           5.3760   -1.2416   18.1218 C.2     1  UNL1        0.4117
      4 O           6.6172   -1.7079   17.4204 O.2     1  UNL1       -0.2257
      5 N           4.5650   -2.0374   19.1010 N.am    1  UNL1       -0.1902
      6 C           3.4157   -1.1853   19.5516 C.2     1  UNL1        0.2797
      7 O           2.3522   -1.5854   20.5310 O.2     1  UNL1       -0.2700
      8 C           0.7741    1.2174   21.3762 C.ar    1  UNL1        0.2499
      9 N          -0.0626    0.7095   20.2395 N.ar    1  UNL1       -0.1071
     10 N           0.8629    0.2430   19.1551 N.ar    1  UNL1       -0.1072
     11 C           2.2715    0.4626   19.6217 C.ar    1  UNL1        0.2714
     12 O           2.2166    1.0648   20.9944 O.2     1  UNL1       -0.4156
     13 C          -1.1454    3.5496   23.9505 C.ar    1  UNL1        0.1419
     14 C          -0.7723    2.9030   25.2515 C.ar    1  UNL1        0.0738
     15 C           0.1162    1.6945   25.2608 C.ar    1  UNL1        0.1419
     16 C           0.6317    1.1326   23.9690 C.ar    1  UNL1        0.0418
     17 C           0.2586    1.7792   22.6680 C.ar    1  UNL1        0.0611
     18 C          -0.6299    2.9877   22.6587 C.ar    1  UNL1        0.0418
     19 C          -3.4035    4.6773   23.3349 C.3     1  UNL1        0.2525
     20 O          -2.0339    4.7581   23.9412 O.3     1  UNL1       -0.4713
     21 O           0.4893    1.0478   26.5619 O.3     1  UNL1       -0.4713
     22 C          -0.5189    0.9532   27.6685 C.3     1  UNL1        0.2525
     23 C           4.8527   -3.4392   19.5507 C.3     1  UNL1        0.1082
     24 C           4.3761   -4.6022   18.7321 C.3     1  UNL1        0.0270
     25 C           5.6170   -3.6780   20.8191 C.ar    1  UNL1       -0.0038
     26 C           7.0810   -4.0001   20.7632 C.ar    1  UNL1       -0.0027
     27 C           7.8454   -4.2389   22.0315 C.ar    1  UNL1       -0.0003
     28 C           7.1458   -4.1556   23.3557 C.ar    1  UNL1       -0.0000
     29 C           5.6819   -3.8335   23.4117 C.ar    1  UNL1       -0.0003
     30 C           4.9174   -3.5947   22.1433 C.ar    1  UNL1       -0.0027
     31 C           3.3569    1.5275   18.3113 C.3     1  UNL1        0.0849
     32 C           4.3887    2.5730   18.6154 C.ar    1  UNL1       -0.0177
     33 C           5.0318    2.6205   19.9696 C.ar    1  UNL1       -0.0041
     34 C           6.0636    3.6659   20.2738 C.ar    1  UNL1       -0.0003
     35 C           6.4523    4.6639   19.2236 C.ar    1  UNL1       -0.0000
     36 C           5.8091    4.6164   17.8693 C.ar    1  UNL1       -0.0003
     37 C           4.7774    3.5710   17.5652 C.ar    1  UNL1       -0.0041
@<TRIPOS>BOND
     1    19    20    1
     2    20    13    1
     3    13    14   ar
     4    14    15   ar
     5    15    21    1
     6    21    22    1
     7    15    16   ar
     8    16    17   ar
     9    17     8    1
    10     8     9   ar
    11     9    10   ar
    12    10    11   ar
    13    11     1    1
    14     1    31    1
    15    31    32    1
    16    32    33   ar
    17    33    34   ar
    18    34    35   ar
    19    35    36   ar
    20    36    37   ar
    21     1     2    1
    22     2     3    1
    23     3     4    2
    24     3     5   am
    25     5    23    1
    26    23    24    1
    27    23    25    1
    28    25    26   ar
    29    26    27   ar
    30    27    28   ar
    31    28    29   ar
    32    29    30   ar
    33     5     6   am
    34     6     7    2
    35    11    12   ar
    36    17    18   ar
    37    18    13   ar
    38    12     8   ar
    39     6     1    1
    40    37    32   ar
    41    30    25   ar
@<TRIPOS>MOLECULE
*****
 37 41 0 0 0
SMALL
GASTEIGER

@<TRIPOS>ATOM
      1 C           3.4632    0.1615   18.8460 C.3     1  UNL1        0.2777
      2 O           4.6628    0.1217   17.9463 O.3     1  UNL1       -0.4230
      3 C           5.3126   -1.2215   18.0994 C.2     1  UNL1        0.4117
      4 O           6.5442   -1.6917   17.3838 O.2     1  UNL1       -0.2257
      5 N           4.5148   -2.0119   19.0937 N.am    1  UNL1       -0.1902
      6 C           3.3718   -1.1571   19.5552 C.2     1  UNL1        0.2797
      7 O           2.3216   -1.5518   20.5510 O.2     1  UNL1       -0.2700
      8 C           0.7554    1.2484   21.4057 C.ar    1  UNL1        0.2499
      9 N          -0.0967    0.7494   20.2765 N.ar    1  UNL1       -0.1071
     10 N           0.8138    0.2816   19.1802 N.ar    1  UNL1       -0.1072
     11 C           2.2288    0.4913   19.6319 C.ar    1  UNL1        0.2714
     12 O           2.1927    1.0888   21.0072 O.2     1  UNL1       -0.4156
     13 C           0.1490    1.7189   25.2994 C.ar    1  UNL1        0.1419
     14 C          -0.7379    2.9286   25.3040 C.ar    1  UNL1        0.0738
     15 C          -1.1270    3.5782   24.0092 C.ar    1  UNL1        0.1419
     16 C          -0.6293    3.0181   22.7098 C.ar    1  UNL1        0.0418
     17 C           0.2576    1.8085   22.7052 C.ar    1  UNL1        0.0611
     18 C           0.6468    1.1589   24.0000 C.ar    1  UNL1        0.0418
     19 C          -0.4717    0.9243   27.6938 C.3     1  UNL1        0.2525
     20 O           0.5382    1.0693   26.5942 O.3     1  UNL1       -0.4713
     21 O          -2.0140    4.7879   24.0138 O.3     1  UNL1       -0.4713
     22 C          -3.4787    4.6451   23.7239 C.3     1  UNL1        0.2525
     23 C           4.8084   -3.4113   19.5470 C.3     1  UNL1        0.1082
     24 C           4.3510   -4.5781   18.7229 C.3     1  UNL1        0.0270
     25 C           5.5593   -3.6438   20.8245 C.ar    1  UNL1       -0.0038
     26 C           4.8512   -3.5308   22.1420 C.ar    1  UNL1       -0.0027
     27 C           5.6020   -3.7633   23.4195 C.ar    1  UNL1       -0.0003
     28 C           7.0611   -4.1089   23.3795 C.ar    1  UNL1       -0.0000
     29 C           7.7693   -4.2220   22.0622 C.ar    1  UNL1       -0.0003
     30 C           7.0184   -3.9894   20.7845 C.ar    1  UNL1       -0.0027
     31 C           3.2966    1.5490   18.3012 C.3     1  UNL1        0.0849
     32 C           4.3335    2.5954   18.5840 C.ar    1  UNL1       -0.0177
     33 C           5.0514    2.6032   19.9010 C.ar    1  UNL1       -0.0041
     34 C           6.0883    3.6495   20.1838 C.ar    1  UNL1       -0.0003
     35 C           6.4074    4.6881   19.1496 C.ar    1  UNL1       -0.0000
     36 C           5.6895    4.6802   17.8326 C.ar    1  UNL1       -0.0003
     37 C           4.6526    3.6339   17.5498 C.ar    1  UNL1       -0.0041
@<TRIPOS>BOND
     1    19    20    1
     2    20    13    1
     3    13    14   ar
     4    14    15   ar
     5    15    21    1
     6    21    22    1
     7    15    16   ar
     8    16    17   ar
     9    17     8    1
    10     8     9   ar
    11     9    10   ar
    12    10    11   ar
    13    11     1    1
    14     1    31    1
    15    31    32    1
    16    32    33   ar
    17    33    34   ar
    18    34    35   ar
    19    35    36   ar
    20    36    37   ar
    21     1     2    1
    22     2     3    1
    23     3     4    2
    24     3     5   am
    25     5    23    1
    26    23    24    1
    27    23    25    1
    28    25    26   ar
    29    26    27   ar
    30    27    28   ar
    31    28    29   ar
    32    29    30   ar
    33     5     6   am
    34     6     7    2
    35    11    12   ar
    36    17    18   ar
    37    18    13   ar
    38    12     8   ar
    39     6     1    1
    40    37    32   ar
    41    30    25   ar
@<TRIPOS>MOLECULE
*****
 37 41 0 0 0
SMALL
GASTEIGER

@<TRIPOS>ATOM
      1 C           5.8813   -2.2265   23.4548 C.3     1  UNL1        0.2777
      2 O           6.7660   -3.2439   22.7973 O.3     1  UNL1       -0.4230
      3 C           6.1300   -3.6408   21.4982 C.2     1  UNL1        0.4117
      4 O           6.6759   -4.6352   20.5168 O.2     1  UNL1       -0.2257
      5 N           4.8523   -2.8688   21.3527 N.am    1  UNL1       -0.1902
      6 C           4.6985   -1.9947   22.5619 C.2     1  UNL1        0.2797
      7 O           3.5616   -1.0539   22.8311 O.2     1  UNL1       -0.2700
      8 C           3.7952   -0.2006   26.0257 C.ar    1  UNL1        0.2499
      9 N           4.5828    0.8923   25.3659 N.ar    1  UNL1       -0.1071
     10 N           5.4601    0.2665   24.3225 N.ar    1  UNL1       -0.1072
     11 C           5.2147   -1.2133   24.3375 C.ar    1  UNL1        0.2714
     12 O           4.1858   -1.5019   25.3901 O.2     1  UNL1       -0.4156
     13 C           0.5162    0.9013   27.9708 C.ar    1  UNL1        0.1419
     14 C           0.7886    0.3314   29.3313 C.ar    1  UNL1        0.0738
     15 C           2.0633   -0.4158   29.5899 C.ar    1  UNL1        0.1419
     16 C           3.0655   -0.5932   28.4881 C.ar    1  UNL1        0.0418
     17 C           2.7930   -0.0233   27.1276 C.ar    1  UNL1        0.0611
     18 C           1.5183    0.7240   26.8690 C.ar    1  UNL1        0.0418
     19 C          -0.7276    2.9471   26.9621 C.3     1  UNL1        0.2525
     20 O          -0.7585    1.6485   27.7122 O.3     1  UNL1       -0.4713
     21 O           2.3357   -0.9857   30.9505 O.3     1  UNL1       -0.4713
     22 C           3.2109   -0.2406   31.9142 C.3     1  UNL1        0.2525
     23 C           3.8960   -2.9556   20.2002 C.3     1  UNL1        0.1082
     24 C           3.5218   -4.2938   19.6353 C.3     1  UNL1        0.0270
     25 C           3.3140   -1.7042   19.6127 C.ar    1  UNL1       -0.0038
     26 C           1.9526   -1.2390   20.0372 C.ar    1  UNL1       -0.0027
     27 C           1.3706    0.0124   19.4497 C.ar    1  UNL1       -0.0003
     28 C           2.1500    0.7986   18.4376 C.ar    1  UNL1       -0.0000
     29 C           3.5114    0.3336   18.0131 C.ar    1  UNL1       -0.0003
     30 C           4.0935   -0.9179   18.6006 C.ar    1  UNL1       -0.0027
     31 C           6.9247   -2.2465   24.5322 C.3     1  UNL1        0.0849
     32 C           6.8278   -3.2400   25.6518 C.ar    1  UNL1       -0.0177
     33 C           6.7612   -2.7646   27.0728 C.ar    1  UNL1       -0.0041
     34 C           6.6642   -3.7582   28.1924 C.ar    1  UNL1       -0.0003
     35 C           6.6339   -5.2273   27.8909 C.ar    1  UNL1       -0.0000
     36 C           6.7006   -5.7027   26.4699 C.ar    1  UNL1       -0.0003
     37 C           6.7975   -4.7091   25.3503 C.ar    1  UNL1       -0.0041
@<TRIPOS>BOND
     1    19    20    1
     2    20    13    1
     3    13    14   ar
     4    14    15   ar
     5    15    21    1
     6    21    22    1
     7    15    16   ar
     8    16    17   ar
     9    17     8    1
    10     8     9   ar
    11     9    10   ar
    12    10    11   ar
    13    11     1    1
    14     1    31    1
    15    31    32    1
    16    32    33   ar
    17    33    34   ar
    18    34    35   ar
    19    35    36   ar
    20    36    37   ar
    21     1     2    1
    22     2     3    1
    23     3     4    2
    24     3     5   am
    25     5    23    1
    26    23    24    1
    27    23    25    1
    28    25    26   ar
    29    26    27   ar
    30    27    28   ar
    31    28    29   ar
    32    29    30   ar
    33     5     6   am
    34     6     7    2
    35    11    12   ar
    36    17    18   ar
    37    18    13   ar
    38    12     8   ar
    39     6     1    1
    40    37    32   ar
    41    30    25   ar
@<TRIPOS>MOLECULE
*****
 37 41 0 0 0
SMALL
GASTEIGER

@<TRIPOS>ATOM
      1 C           3.4163    0.5047   29.8239 C.3     1  UNL1        0.2777
      2 O           2.6701    1.2637   30.8809 O.3     1  UNL1       -0.4230
      3 C           1.2271    1.3245   30.4763 C.2     1  UNL1        0.4117
      4 O           0.1235    1.9899   31.2440 O.2     1  UNL1       -0.2257
      5 N           1.0812    0.6031   29.1694 N.am    1  UNL1       -0.1902
      6 C           2.4343    0.0964   28.7661 C.2     1  UNL1        0.2797
      7 O           2.7499   -0.6819   27.5233 O.2     1  UNL1       -0.2700
      8 C           5.7906   -1.9303   27.9535 C.ar    1  UNL1        0.2499
      9 N           6.0937   -0.6372   27.2562 N.ar    1  UNL1       -0.1071
     10 N           5.2411    0.4323   27.8720 N.ar    1  UNL1       -0.1072
     11 C           4.4112   -0.1998   28.9499 C.ar    1  UNL1        0.2714
     12 O           4.7508   -1.6599   29.0002 O.2     1  UNL1       -0.4156
     13 C           7.4278   -5.5066   28.4828 C.ar    1  UNL1        0.1419
     14 C           7.6709   -5.9202   27.0617 C.ar    1  UNL1        0.0738
     15 C           7.2873   -5.0039   25.9378 C.ar    1  UNL1        0.1419
     16 C           6.6605   -3.6739   26.2350 C.ar    1  UNL1        0.0418
     17 C           6.4174   -3.2603   27.6562 C.ar    1  UNL1        0.0611
     18 C           6.8011   -4.1766   28.7801 C.ar    1  UNL1        0.0418
     19 C           7.6299   -5.9822   31.0290 C.3     1  UNL1        0.2525
     20 O           7.8115   -6.4229   29.6068 O.3     1  UNL1       -0.4713
     21 O           7.5304   -5.4176   24.5165 O.3     1  UNL1       -0.4713
     22 C           8.0760   -6.7820   24.2154 C.3     1  UNL1        0.2525
     23 C          -0.1937    0.4205   28.4005 C.3     1  UNL1        0.1082
     24 C          -1.1814   -0.6262   28.8238 C.3     1  UNL1        0.0270
     25 C          -0.4810    1.2844   27.2085 C.ar    1  UNL1       -0.0038
     26 C          -1.4952    2.3852   27.3070 C.ar    1  UNL1       -0.0027
     27 C          -1.7826    3.2491   26.1150 C.ar    1  UNL1       -0.0003
     28 C          -1.0557    3.0123   24.8244 C.ar    1  UNL1       -0.0000
     29 C          -0.0416    1.9116   24.7258 C.ar    1  UNL1       -0.0003
     30 C           0.2458    1.0475   25.9179 C.ar    1  UNL1       -0.0027
     31 C           4.6063    0.7657   30.6990 C.3     1  UNL1        0.0849
     32 C           4.6359    0.2363   32.1022 C.ar    1  UNL1       -0.0177
     33 C           5.0481    1.1315   33.2330 C.ar    1  UNL1       -0.0041
     34 C           5.0777    0.6022   34.6361 C.ar    1  UNL1       -0.0003
     35 C           4.6951   -0.8224   34.9086 C.ar    1  UNL1       -0.0000
     36 C           4.2829   -1.7176   33.7778 C.ar    1  UNL1       -0.0003
     37 C           4.2533   -1.1882   32.3746 C.ar    1  UNL1       -0.0041
@<TRIPOS>BOND
     1    19    20    1
     2    20    13    1
     3    13    14   ar
     4    14    15   ar
     5    15    21    1
     6    21    22    1
     7    15    16   ar
     8    16    17   ar
     9    17     8    1
    10     8     9   ar
    11     9    10   ar
    12    10    11   ar
    13    11     1    1
    14     1    31    1
    15    31    32    1
    16    32    33   ar
    17    33    34   ar
    18    34    35   ar
    19    35    36   ar
    20    36    37   ar
    21     1     2    1
    22     2     3    1
    23     3     4    2
    24     3     5   am
    25     5    23    1
    26    23    24    1
    27    23    25    1
    28    25    26   ar
    29    26    27   ar
    30    27    28   ar
    31    28    29   ar
    32    29    30   ar
    33     5     6   am
    34     6     7    2
    35    11    12   ar
    36    17    18   ar
    37    18    13   ar
    38    12     8   ar
    39     6     1    1
    40    37    32   ar
    41    30    25   ar
@<TRIPOS>MOLECULE
*****
 37 41 0 0 0
SMALL
GASTEIGER

@<TRIPOS>ATOM
      1 C           2.8839    0.8843   19.3434 C.3     1  UNL1        0.2777
      2 O           2.9530    0.6913   17.8575 O.3     1  UNL1       -0.4230
      3 C           3.5207   -0.6716   17.5931 C.2     1  UNL1        0.4117
      4 O           3.7639   -1.2787   16.2431 O.2     1  UNL1       -0.2257
      5 N           3.8025   -1.3210   18.9154 N.am    1  UNL1       -0.1902
      6 C           3.4089   -0.3594   19.9973 C.2     1  UNL1        0.2797
      7 O           3.5207   -0.5993   21.4738 O.2     1  UNL1       -0.2700
      8 C           1.6827    1.9035   22.8908 C.ar    1  UNL1        0.2499
      9 N           3.1354    2.2705   22.9601 N.ar    1  UNL1       -0.1071
     10 N           3.7623    1.9334   21.6398 N.ar    1  UNL1       -0.1072
     11 C           2.6968    1.3580   20.7543 C.ar    1  UNL1        0.2714
     12 O           1.4116    1.3396   21.5275 O.2     1  UNL1       -0.4156
     13 C          -1.4820    3.1803   24.9168 C.ar    1  UNL1        0.1419
     14 C          -1.3330    2.4061   26.1928 C.ar    1  UNL1        0.0738
     15 C          -0.1787    1.4643   26.3682 C.ar    1  UNL1        0.1419
     16 C           0.8265    1.2968   25.2675 C.ar    1  UNL1        0.0418
     17 C           0.6774    2.0710   23.9915 C.ar    1  UNL1        0.0611
     18 C          -0.4768    3.0128   23.8161 C.ar    1  UNL1        0.0418
     19 C          -4.0425    3.6030   24.7941 C.3     1  UNL1        0.2525
     20 O          -2.6363    4.1221   24.7414 O.3     1  UNL1       -0.4713
     21 O          -0.0297    0.6901   27.6443 O.3     1  UNL1       -0.4713
     22 C          -1.2312    0.4147   28.4991 C.3     1  UNL1        0.2525
     23 C           4.3770   -2.6914   19.1202 C.3     1  UNL1        0.1082
     24 C           3.4903   -3.8978   19.0283 C.3     1  UNL1        0.0270
     25 C           5.8382   -2.8555   19.4168 C.ar    1  UNL1       -0.0038
     26 C           6.8572   -2.1250   18.5935 C.ar    1  UNL1       -0.0027
     27 C           8.3184   -2.2889   18.8900 C.ar    1  UNL1       -0.0003
     28 C           8.7606   -3.1834   20.0100 C.ar    1  UNL1       -0.0000
     29 C           7.7416   -3.9139   20.8334 C.ar    1  UNL1       -0.0003
     30 C           6.2803   -3.7500   20.5368 C.ar    1  UNL1       -0.0027
     31 C           2.3197    2.2270   18.9846 C.3     1  UNL1        0.0849
     32 C           3.1886    3.2515   18.3172 C.ar    1  UNL1       -0.0177
     33 C           4.6757    3.0606   18.2744 C.ar    1  UNL1       -0.0041
     34 C           5.5446    4.0851   17.6070 C.ar    1  UNL1       -0.0003
     35 C           4.9263    5.3007   16.9824 C.ar    1  UNL1       -0.0000
     36 C           3.4392    5.4916   17.0251 C.ar    1  UNL1       -0.0003
     37 C           2.5703    4.4671   17.6925 C.ar    1  UNL1       -0.0041
@<TRIPOS>BOND
     1    19    20    1
     2    20    13    1
     3    13    14   ar
     4    14    15   ar
     5    15    21    1
     6    21    22    1
     7    15    16   ar
     8    16    17   ar
     9    17     8    1
    10     8     9   ar
    11     9    10   ar
    12    10    11   ar
    13    11     1    1
    14     1    31    1
    15    31    32    1
    16    32    33   ar
    17    33    34   ar
    18    34    35   ar
    19    35    36   ar
    20    36    37   ar
    21     1     2    1
    22     2     3    1
    23     3     4    2
    24     3     5   am
    25     5    23    1
    26    23    24    1
    27    23    25    1
    28    25    26   ar
    29    26    27   ar
    30    27    28   ar
    31    28    29   ar
    32    29    30   ar
    33     5     6   am
    34     6     7    2
    35    11    12   ar
    36    17    18   ar
    37    18    13   ar
    38    12     8   ar
    39     6     1    1
    40    37    32   ar
    41    30    25   ar
