@<TRIPOS>MOLECULE
*****
 28 31 0 0 0
SMALL
GASTEIGER

@<TRIPOS>ATOM
      1 O          -6.1165  -19.1589   19.4628 O.3     1  UNL1       -0.4535
      2 C          -4.9572  -19.0877   20.4120 C.ar    1  UNL1        0.2277
      3 C          -3.6962  -19.8432   20.1137 C.ar    1  UNL1        0.0579
      4 C          -2.5368  -19.7720   21.0629 C.ar    1  UNL1        0.0096
      5 C          -2.6386  -18.9453   22.3104 C.ar    1  UNL1        0.0579
      6 C          -3.8997  -18.1898   22.6087 C.ar    1  UNL1        0.2274
      7 N          -5.0589  -18.2610   21.6595 N.ar    1  UNL1       -0.1767
      8 O          -4.0014  -17.3631   23.8562 O.3     1  UNL1       -0.4602
      9 C          -4.7480  -16.0622   23.8350 C.3     1  UNL1        0.2072
     10 C          -5.9131  -15.8511   24.7558 C.3     1  UNL1        0.0488
     11 C          -7.3138  -15.9665   24.2317 C.3     1  UNL1        0.0359
     12 C          -8.4789  -15.7554   25.1525 C.3     1  UNL1        0.1423
     13 O          -8.2434  -15.4288   26.5974 O.3     1  UNL1       -0.3538
     14 C          -6.8426  -15.3133   27.1216 C.3     1  UNL1        0.1423
     15 C          -5.6775  -15.5245   26.2008 C.3     1  UNL1        0.0359
     16 C          -7.3496  -19.9246   19.8411 C.3     1  UNL1        0.2523
     17 C          -7.4669  -20.4020   22.8005 C.3     1  UNL1        0.0358
     18 C          -8.4758  -19.5064   22.1447 C.2     1  UNL1        0.0342
     19 C          -8.4172  -19.2677   20.6650 C.2     1  UNL1        0.1014
     20 N          -9.4260  -18.3721   20.0091 N.2     1  UNL1       -0.2501
     21 C         -10.4936  -17.7152   20.8330 C.2     1  UNL1        0.0661
     22 C         -11.5024  -16.8196   20.1772 C.3     1  UNL1        0.0718
     23 C         -12.5699  -16.1627   21.0011 C.2     1  UNL1       -0.0198
     24 C         -12.6286  -16.4014   22.4808 C.2     1  UNL1       -0.0040
     25 C         -11.6198  -17.2969   23.1367 C.2     1  UNL1        0.0040
     26 C         -10.5523  -17.9538   22.3128 C.2     1  UNL1        0.0525
     27 C          -9.5433  -18.8495   22.9686 C.2     1  UNL1        0.1940
     28 O          -9.6020  -19.0881   24.4483 O.2     1  UNL1       -0.2868
@<TRIPOS>BOND
     1    17    18    1
     2    18    19    2
     3    19    16    1
     4    16     1    1
     5     1     2    1
     6     2     3   ar
     7     3     4   ar
     8     4     5   ar
     9     5     6   ar
    10     6     8    1
    11     8     9    1
    12     9    10    1
    13    10    11    1
    14    11    12    1
    15    12    13    1
    16    13    14    1
    17    14    15    1
    18     6     7   ar
    19    19    20    1
    20    20    21    2
    21    21    22    1
    22    22    23    1
    23    23    24    2
    24    24    25    1
    25    25    26    2
    26    26    27    1
    27    27    28    2
    28    27    18    1
    29     7     2   ar
    30    26    21    1
    31    15    10    1
@<TRIPOS>MOLECULE
*****
 28 31 0 0 0
SMALL
GASTEIGER

@<TRIPOS>ATOM
      1 O          -9.5931  -15.8221   24.5954 O.3     1  UNL1       -0.4535
      2 C          -8.1702  -15.7175   25.0584 C.ar    1  UNL1        0.2277
      3 C          -7.8696  -15.4316   26.4998 C.ar    1  UNL1        0.0579
      4 C          -6.4466  -15.3269   26.9628 C.ar    1  UNL1        0.0096
      5 C          -5.3243  -15.5082   25.9843 C.ar    1  UNL1        0.0579
      6 C          -5.6249  -15.7942   24.5427 C.ar    1  UNL1        0.2274
      7 N          -7.0478  -15.8988   24.0798 N.ar    1  UNL1       -0.1767
      8 O          -4.5026  -15.9755   23.5642 O.3     1  UNL1       -0.4602
      9 C          -3.8010  -17.2975   23.4642 C.3     1  UNL1        0.2072
     10 C          -2.9329  -17.5981   22.2784 C.3     1  UNL1        0.0488
     11 C          -2.9180  -18.9779   21.6903 C.3     1  UNL1        0.0359
     12 C          -2.0499  -19.2785   20.5045 C.3     1  UNL1        0.1423
     13 O          -1.1968  -18.1992   19.9068 O.3     1  UNL1       -0.3538
     14 C          -1.2117  -16.8193   20.4948 C.3     1  UNL1        0.1423
     15 C          -2.0798  -16.5187   21.6806 C.3     1  UNL1        0.0359
     16 C         -10.1683  -17.1599   24.2357 C.3     1  UNL1        0.2523
     17 C         -11.8411  -17.1630   21.7454 C.3     1  UNL1        0.0358
     18 C         -10.5235  -17.8797   21.7647 C.2     1  UNL1        0.0342
     19 C          -9.6870  -17.8781   23.0098 C.2     1  UNL1        0.1014
     20 N          -8.3694  -18.5946   23.0292 N.2     1  UNL1       -0.2501
     21 C          -7.8882  -19.3129   21.8033 C.2     1  UNL1        0.0661
     22 C          -6.5706  -20.0294   21.8226 C.3     1  UNL1        0.0718
     23 C          -6.0894  -20.7476   20.5968 C.2     1  UNL1       -0.0198
     24 C          -6.9258  -20.7492   19.3517 C.2     1  UNL1       -0.0040
     25 C          -8.2434  -20.0326   19.3323 C.2     1  UNL1        0.0040
     26 C          -8.7246  -19.3144   20.5581 C.2     1  UNL1        0.0525
     27 C         -10.0423  -18.5978   20.5388 C.2     1  UNL1        0.1940
     28 O         -10.8787  -18.5994   19.2937 O.2     1  UNL1       -0.2868
@<TRIPOS>BOND
     1    17    18    1
     2    18    19    2
     3    19    16    1
     4    16     1    1
     5     1     2    1
     6     2     3   ar
     7     3     4   ar
     8     4     5   ar
     9     5     6   ar
    10     6     8    1
    11     8     9    1
    12     9    10    1
    13    10    11    1
    14    11    12    1
    15    12    13    1
    16    13    14    1
    17    14    15    1
    18     6     7   ar
    19    19    20    1
    20    20    21    2
    21    21    22    1
    22    22    23    1
    23    23    24    2
    24    24    25    1
    25    25    26    2
    26    26    27    1
    27    27    28    2
    28    27    18    1
    29     7     2   ar
    30    26    21    1
    31    15    10    1
@<TRIPOS>MOLECULE
*****
 28 31 0 0 0
SMALL
GASTEIGER

@<TRIPOS>ATOM
      1 O          -5.6210  -20.3874   21.9484 O.3     1  UNL1       -0.4535
      2 C          -4.5796  -19.3270   22.1509 C.ar    1  UNL1        0.2277
      3 C          -3.1462  -19.6088   21.8103 C.ar    1  UNL1        0.0579
      4 C          -2.1048  -18.5484   22.0128 C.ar    1  UNL1        0.0096
      5 C          -2.4967  -17.2062   22.5559 C.ar    1  UNL1        0.0579
      6 C          -3.9301  -16.9245   22.8966 C.ar    1  UNL1        0.2274
      7 N          -4.9715  -17.9849   22.6941 N.ar    1  UNL1       -0.1767
      8 O          -4.3221  -15.5823   23.4397 O.3     1  UNL1       -0.4602
      9 C          -5.7712  -15.2075   23.5391 C.3     1  UNL1        0.2072
     10 C          -6.5292  -15.4725   24.8060 C.3     1  UNL1        0.0488
     11 C          -7.9646  -15.9037   24.7450 C.3     1  UNL1        0.0359
     12 C          -8.7226  -16.1686   26.0120 C.3     1  UNL1        0.1423
     13 O          -8.0453  -16.0024   27.3400 O.3     1  UNL1       -0.3538
     14 C          -6.6098  -15.5712   27.4010 C.3     1  UNL1        0.1423
     15 C          -5.8518  -15.3062   26.1341 C.3     1  UNL1        0.0359
     16 C          -6.6364  -20.2421   20.8540 C.3     1  UNL1        0.2523
     17 C          -8.5124  -19.4891   18.6373 C.3     1  UNL1        0.0358
     18 C          -8.9580  -19.3824   20.0656 C.2     1  UNL1        0.0342
     19 C          -8.0200  -19.7589   21.1740 C.2     1  UNL1        0.1014
     20 N          -8.4656  -19.6522   22.6023 N.2     1  UNL1       -0.2501
     21 C          -9.8491  -19.1690   22.9223 C.2     1  UNL1        0.0661
     22 C         -10.2947  -19.0623   24.3506 C.3     1  UNL1        0.0718
     23 C         -11.6782  -18.5791   24.6705 C.2     1  UNL1       -0.0198
     24 C         -12.6162  -18.2026   23.5621 C.2     1  UNL1       -0.0040
     25 C         -12.1706  -18.3093   22.1338 C.2     1  UNL1        0.0040
     26 C         -10.7871  -18.7925   21.8139 C.2     1  UNL1        0.0525
     27 C         -10.3415  -18.8992   20.3856 C.2     1  UNL1        0.1940
     28 O         -11.2795  -18.5228   19.2772 O.2     1  UNL1       -0.2868
@<TRIPOS>BOND
     1    17    18    1
     2    18    19    2
     3    19    16    1
     4    16     1    1
     5     1     2    1
     6     2     3   ar
     7     3     4   ar
     8     4     5   ar
     9     5     6   ar
    10     6     8    1
    11     8     9    1
    12     9    10    1
    13    10    11    1
    14    11    12    1
    15    12    13    1
    16    13    14    1
    17    14    15    1
    18     6     7   ar
    19    19    20    1
    20    20    21    2
    21    21    22    1
    22    22    23    1
    23    23    24    2
    24    24    25    1
    25    25    26    2
    26    26    27    1
    27    27    28    2
    28    27    18    1
    29     7     2   ar
    30    26    21    1
    31    15    10    1
@<TRIPOS>MOLECULE
*****
 28 31 0 0 0
SMALL
GASTEIGER

@<TRIPOS>ATOM
      1 O          -8.1086  -19.2093   19.2767 O.3     1  UNL1       -0.4535
      2 C          -9.2101  -18.8677   20.2359 C.ar    1  UNL1        0.2277
      3 C         -10.4773  -19.6704   20.2394 C.ar    1  UNL1        0.0579
      4 C         -11.5788  -19.3288   21.1986 C.ar    1  UNL1        0.0096
      5 C         -11.4131  -18.1846   22.1543 C.ar    1  UNL1        0.0579
      6 C         -10.1459  -17.3820   22.1508 C.ar    1  UNL1        0.2274
      7 N          -9.0444  -17.7235   21.1916 N.ar    1  UNL1       -0.1767
      8 O          -9.9802  -16.2378   23.1065 O.3     1  UNL1       -0.4602
      9 C          -9.3538  -16.4675   24.4500 C.3     1  UNL1        0.2072
     10 C          -7.9585  -15.9870   24.7189 C.3     1  UNL1        0.0488
     11 C          -6.9947  -15.8090   23.5834 C.3     1  UNL1        0.0359
     12 C          -5.5993  -15.3286   23.8523 C.3     1  UNL1        0.1423
     13 O          -5.1678  -15.0262   25.2567 O.3     1  UNL1       -0.3538
     14 C          -6.1317  -15.2042   26.3923 C.3     1  UNL1        0.1423
     15 C          -7.5270  -15.6846   26.1234 C.3     1  UNL1        0.0359
     16 C          -6.9981  -20.1224   19.7043 C.3     1  UNL1        0.2523
     17 C          -6.6330  -19.6581   22.6456 C.3     1  UNL1        0.0358
     18 C          -5.5288  -19.3163   21.6896 C.2     1  UNL1        0.0342
     19 C          -5.7113  -19.5484   20.2190 C.2     1  UNL1        0.1014
     20 N          -4.6071  -19.2067   19.2630 N.2     1  UNL1       -0.2501
     21 C          -3.3203  -18.6327   19.7776 C.2     1  UNL1        0.0661
     22 C          -2.2162  -18.2909   18.8217 C.3     1  UNL1        0.0718
     23 C          -0.9295  -17.7169   19.3363 C.2     1  UNL1       -0.0198
     24 C          -0.7469  -17.4848   20.8070 C.2     1  UNL1       -0.0040
     25 C          -1.8511  -17.8266   21.7629 C.2     1  UNL1        0.0040
     26 C          -3.1378  -18.4005   21.2483 C.2     1  UNL1        0.0525
     27 C          -4.2420  -18.7423   22.2043 C.2     1  UNL1        0.1940
     28 O          -4.0595  -18.5102   23.6749 O.2     1  UNL1       -0.2868
@<TRIPOS>BOND
     1    17    18    1
     2    18    19    2
     3    19    16    1
     4    16     1    1
     5     1     2    1
     6     2     3   ar
     7     3     4   ar
     8     4     5   ar
     9     5     6   ar
    10     6     8    1
    11     8     9    1
    12     9    10    1
    13    10    11    1
    14    11    12    1
    15    12    13    1
    16    13    14    1
    17    14    15    1
    18     6     7   ar
    19    19    20    1
    20    20    21    2
    21    21    22    1
    22    22    23    1
    23    23    24    2
    24    24    25    1
    25    25    26    2
    26    26    27    1
    27    27    28    2
    28    27    18    1
    29     7     2   ar
    30    26    21    1
    31    15    10    1
@<TRIPOS>MOLECULE
*****
 28 31 0 0 0
SMALL
GASTEIGER

@<TRIPOS>ATOM
      1 O          -6.5990  -14.7970   24.1320 O.3     1  UNL1       -0.4535
      2 C          -5.7303  -15.9983   23.9036 C.ar    1  UNL1        0.2277
      3 C          -4.5173  -16.2199   24.7577 C.ar    1  UNL1        0.0579
      4 C          -3.6486  -17.4213   24.5293 C.ar    1  UNL1        0.0096
      5 C          -3.9929  -18.4010   23.4469 C.ar    1  UNL1        0.0579
      6 C          -5.2060  -18.1793   22.5928 C.ar    1  UNL1        0.2274
      7 N          -6.0747  -16.9780   22.8212 N.ar    1  UNL1       -0.1767
      8 O          -5.5503  -19.1590   21.5103 O.3     1  UNL1       -0.4602
      9 C          -4.4587  -19.8809   20.7772 C.3     1  UNL1        0.2072
     10 C          -3.3094  -19.1116   20.1964 C.3     1  UNL1        0.0488
     11 C          -1.9314  -19.2789   20.7648 C.3     1  UNL1        0.0359
     12 C          -0.7821  -18.5097   20.1840 C.3     1  UNL1        0.1423
     13 O          -1.0107  -17.5730   19.0350 O.3     1  UNL1       -0.3538
     14 C          -2.3888  -17.4056   18.4666 C.3     1  UNL1        0.1423
     15 C          -3.5381  -18.1749   19.0473 C.3     1  UNL1        0.0359
     16 C          -8.0602  -14.9723   24.4223 C.3     1  UNL1        0.2523
     17 C          -8.6793  -17.1366   26.4054 C.3     1  UNL1        0.0358
     18 C          -9.0788  -17.2991   24.9687 C.2     1  UNL1        0.0342
     19 C          -8.7692  -16.2170   23.9771 C.2     1  UNL1        0.1014
     20 N          -9.1687  -16.3794   22.5405 N.2     1  UNL1       -0.2501
     21 C          -9.8778  -17.6241   22.0953 C.2     1  UNL1        0.0661
     22 C         -10.2773  -17.7865   20.6587 C.3     1  UNL1        0.0718
     23 C         -10.9863  -19.0311   20.2136 C.2     1  UNL1       -0.0198
     24 C         -11.2958  -20.1133   21.2051 C.2     1  UNL1       -0.0040
     25 C         -10.8964  -19.9509   22.6417 C.2     1  UNL1        0.0040
     26 C         -10.1873  -18.7062   23.0868 C.2     1  UNL1        0.0525
     27 C          -9.7878  -18.5437   24.5235 C.2     1  UNL1        0.1940
     28 O         -10.0974  -19.6259   25.5151 O.2     1  UNL1       -0.2868
@<TRIPOS>BOND
     1    17    18    1
     2    18    19    2
     3    19    16    1
     4    16     1    1
     5     1     2    1
     6     2     3   ar
     7     3     4   ar
     8     4     5   ar
     9     5     6   ar
    10     6     8    1
    11     8     9    1
    12     9    10    1
    13    10    11    1
    14    11    12    1
    15    12    13    1
    16    13    14    1
    17    14    15    1
    18     6     7   ar
    19    19    20    1
    20    20    21    2
    21    21    22    1
    22    22    23    1
    23    23    24    2
    24    24    25    1
    25    25    26    2
    26    26    27    1
    27    27    28    2
    28    27    18    1
    29     7     2   ar
    30    26    21    1
    31    15    10    1
@<TRIPOS>MOLECULE
*****
 28 31 0 0 0
SMALL
GASTEIGER

@<TRIPOS>ATOM
      1 O          -9.4302  -18.5252   19.7684 O.3     1  UNL1       -0.4535
      2 C         -10.4786  -18.0597   20.7349 C.ar    1  UNL1        0.2277
      3 C         -11.6062  -17.1931   20.2582 C.ar    1  UNL1        0.0579
      4 C         -12.6547  -16.7276   21.2247 C.ar    1  UNL1        0.0096
      5 C         -12.5754  -17.1287   22.6679 C.ar    1  UNL1        0.0579
      6 C         -11.4476  -17.9953   23.1446 C.ar    1  UNL1        0.2274
      7 N         -10.3992  -18.4608   22.1781 N.ar    1  UNL1       -0.1767
      8 O         -11.3683  -18.3964   24.5878 O.3     1  UNL1       -0.4602
      9 C         -10.0314  -18.5901   25.2400 C.3     1  UNL1        0.2072
     10 C          -9.1993  -17.3991   25.6130 C.3     1  UNL1        0.0488
     11 C          -8.7919  -17.1863   27.0408 C.3     1  UNL1        0.0359
     12 C          -7.9598  -15.9953   27.4138 C.3     1  UNL1        0.1423
     13 O          -7.5352  -15.0170   26.3590 O.3     1  UNL1       -0.3538
     14 C          -7.9426  -15.2297   24.9311 C.3     1  UNL1        0.1423
     15 C          -8.7747  -16.4207   24.5581 C.3     1  UNL1        0.0359
     16 C          -8.5631  -19.7003   20.1109 C.3     1  UNL1        0.2523
     17 C          -6.2904  -21.4498   19.2311 C.3     1  UNL1        0.0358
     18 C          -6.0516  -20.3552   20.2285 C.2     1  UNL1        0.0342
     19 C          -7.1879  -19.4804   20.6685 C.2     1  UNL1        0.1014
     20 N          -6.9492  -18.3858   21.6659 N.2     1  UNL1       -0.2501
     21 C          -5.5741  -18.1660   22.2234 C.2     1  UNL1        0.0661
     22 C          -5.3354  -17.0714   23.2208 C.3     1  UNL1        0.0718
     23 C          -3.9603  -16.8515   23.7783 C.2     1  UNL1       -0.0198
     24 C          -2.8240  -17.7263   23.3384 C.2     1  UNL1       -0.0040
     25 C          -3.0627  -18.8209   22.3410 C.2     1  UNL1        0.0040
     26 C          -4.4378  -19.0407   21.7835 C.2     1  UNL1        0.0525
     27 C          -4.6765  -20.1353   20.7860 C.2     1  UNL1        0.1940
     28 O          -3.5402  -21.0101   20.3461 O.2     1  UNL1       -0.2868
@<TRIPOS>BOND
     1    17    18    1
     2    18    19    2
     3    19    16    1
     4    16     1    1
     5     1     2    1
     6     2     3   ar
     7     3     4   ar
     8     4     5   ar
     9     5     6   ar
    10     6     8    1
    11     8     9    1
    12     9    10    1
    13    10    11    1
    14    11    12    1
    15    12    13    1
    16    13    14    1
    17    14    15    1
    18     6     7   ar
    19    19    20    1
    20    20    21    2
    21    21    22    1
    22    22    23    1
    23    23    24    2
    24    24    25    1
    25    25    26    2
    26    26    27    1
    27    27    28    2
    28    27    18    1
    29     7     2   ar
    30    26    21    1
    31    15    10    1
@<TRIPOS>MOLECULE
*****
 28 31 0 0 0
SMALL
GASTEIGER

@<TRIPOS>ATOM
      1 O          -8.8534  -18.5674   19.5895 O.3     1  UNL1       -0.4535
      2 C         -10.0267  -18.3001   20.4850 C.ar    1  UNL1        0.2277
      3 C         -11.2258  -17.5729   19.9528 C.ar    1  UNL1        0.0579
      4 C         -12.3992  -17.3055   20.8483 C.ar    1  UNL1        0.0096
      5 C         -12.3734  -17.7654   22.2758 C.ar    1  UNL1        0.0579
      6 C         -11.1742  -18.4926   22.8079 C.ar    1  UNL1        0.2274
      7 N         -10.0009  -18.7600   21.9125 N.ar    1  UNL1       -0.1767
      8 O         -11.1484  -18.9525   24.2354 O.3     1  UNL1       -0.4602
      9 C          -9.8563  -18.9610   24.9974 C.3     1  UNL1        0.2072
     10 C          -9.2376  -17.6678   25.4390 C.3     1  UNL1        0.0488
     11 C          -8.8992  -16.6140   24.4266 C.3     1  UNL1        0.0359
     12 C          -8.2805  -15.3209   24.8682 C.3     1  UNL1        0.1423
     13 O          -8.0001  -15.0816   26.3222 O.3     1  UNL1       -0.3538
     14 C          -8.3385  -16.1354   27.3347 C.3     1  UNL1        0.1423
     15 C          -8.9572  -17.4285   26.8931 C.3     1  UNL1        0.0359
     16 C          -7.9201  -19.7014   19.8946 C.3     1  UNL1        0.2523
     17 C          -6.8727  -20.3420   22.6318 C.3     1  UNL1        0.0358
     18 C          -5.9620  -19.7423   21.6017 C.2     1  UNL1        0.0342
     19 C          -6.4857  -19.4220   20.2331 C.2     1  UNL1        0.1014
     20 N          -5.5751  -18.8223   19.2030 N.2     1  UNL1       -0.2501
     21 C          -4.1407  -18.5429   19.5415 C.2     1  UNL1        0.0661
     22 C          -3.2302  -17.9432   18.5114 C.3     1  UNL1        0.0718
     23 C          -1.7959  -17.6638   18.8499 C.2     1  UNL1       -0.0198
     24 C          -1.2721  -17.9840   20.2185 C.2     1  UNL1       -0.0040
     25 C          -2.1827  -18.5837   21.2486 C.2     1  UNL1        0.0040
     26 C          -3.6170  -18.8631   20.9101 C.2     1  UNL1        0.0525
     27 C          -4.5277  -19.4629   21.9402 C.2     1  UNL1        0.1940
     28 O          -4.0040  -19.7831   23.3089 O.2     1  UNL1       -0.2868
@<TRIPOS>BOND
     1    17    18    1
     2    18    19    2
     3    19    16    1
     4    16     1    1
     5     1     2    1
     6     2     3   ar
     7     3     4   ar
     8     4     5   ar
     9     5     6   ar
    10     6     8    1
    11     8     9    1
    12     9    10    1
    13    10    11    1
    14    11    12    1
    15    12    13    1
    16    13    14    1
    17    14    15    1
    18     6     7   ar
    19    19    20    1
    20    20    21    2
    21    21    22    1
    22    22    23    1
    23    23    24    2
    24    24    25    1
    25    25    26    2
    26    26    27    1
    27    27    28    2
    28    27    18    1
    29     7     2   ar
    30    26    21    1
    31    15    10    1
@<TRIPOS>MOLECULE
*****
 28 31 0 0 0
SMALL
GASTEIGER

@<TRIPOS>ATOM
      1 O          -5.2372  -16.6493   24.0944 O.3     1  UNL1       -0.4535
      2 C          -4.3855  -17.4590   23.1622 C.ar    1  UNL1        0.2277
      3 C          -2.8914  -17.4220   23.2885 C.ar    1  UNL1        0.0579
      4 C          -2.0396  -18.2317   22.3562 C.ar    1  UNL1        0.0096
      5 C          -2.6821  -19.0784   21.2978 C.ar    1  UNL1        0.0579
      6 C          -4.1763  -19.1154   21.1716 C.ar    1  UNL1        0.2274
      7 N          -5.0280  -18.3057   22.1038 N.ar    1  UNL1       -0.1767
      8 O          -4.8188  -19.9621   20.1132 O.3     1  UNL1       -0.4602
      9 C          -6.0066  -20.8133   20.4522 C.3     1  UNL1        0.2072
     10 C          -7.3653  -20.4453   19.9341 C.3     1  UNL1        0.0488
     11 C          -8.1993  -19.4363   20.6664 C.3     1  UNL1        0.0359
     12 C          -9.5580  -19.0684   20.1483 C.3     1  UNL1        0.1423
     13 O         -10.0828  -19.7094   18.8979 O.3     1  UNL1       -0.3538
     14 C          -9.2488  -20.7184   18.1654 C.3     1  UNL1        0.1423
     15 C          -7.8901  -21.0864   18.6835 C.3     1  UNL1        0.0359
     16 C          -6.2274  -15.6667   23.5430 C.3     1  UNL1        0.2523
     17 C          -7.7084  -14.5929   21.1653 C.3     1  UNL1        0.0358
     18 C          -8.3833  -15.5552   22.0974 C.2     1  UNL1        0.0342
     19 C          -7.6428  -16.0921   23.2862 C.2     1  UNL1        0.1014
     20 N          -8.3175  -17.0543   24.2183 N.2     1  UNL1       -0.2501
     21 C          -9.7329  -17.4798   23.9615 C.2     1  UNL1        0.0661
     22 C         -10.4076  -18.4420   24.8935 C.3     1  UNL1        0.0718
     23 C         -11.8229  -18.8674   24.6367 C.2     1  UNL1       -0.0198
     24 C         -12.5634  -18.3305   23.4478 C.2     1  UNL1       -0.0040
     25 C         -11.8887  -17.3682   22.5158 C.2     1  UNL1        0.0040
     26 C         -10.4734  -16.9429   22.7726 C.2     1  UNL1        0.0525
     27 C          -9.7986  -15.9805   21.8406 C.2     1  UNL1        0.1940
     28 O         -10.5391  -15.4436   20.6517 O.2     1  UNL1       -0.2868
@<TRIPOS>BOND
     1    17    18    1
     2    18    19    2
     3    19    16    1
     4    16     1    1
     5     1     2    1
     6     2     3   ar
     7     3     4   ar
     8     4     5   ar
     9     5     6   ar
    10     6     8    1
    11     8     9    1
    12     9    10    1
    13    10    11    1
    14    11    12    1
    15    12    13    1
    16    13    14    1
    17    14    15    1
    18     6     7   ar
    19    19    20    1
    20    20    21    2
    21    21    22    1
    22    22    23    1
    23    23    24    2
    24    24    25    1
    25    25    26    2
    26    26    27    1
    27    27    28    2
    28    27    18    1
    29     7     2   ar
    30    26    21    1
    31    15    10    1
@<TRIPOS>MOLECULE
*****
 28 31 0 0 0
SMALL
GASTEIGER

@<TRIPOS>ATOM
      1 O          -9.5493  -18.8400   19.2507 O.3     1  UNL1       -0.4535
      2 C         -10.6546  -17.9752   19.7800 C.ar    1  UNL1        0.2277
      3 C         -10.8491  -16.5906   19.2370 C.ar    1  UNL1        0.0579
      4 C         -11.9545  -15.7257   19.7664 C.ar    1  UNL1        0.0096
      5 C         -12.8654  -16.2456   20.8388 C.ar    1  UNL1        0.0579
      6 C         -12.6708  -17.6303   21.3819 C.ar    1  UNL1        0.2274
      7 N         -11.5655  -18.4950   20.8525 N.ar    1  UNL1       -0.1767
      8 O         -13.5817  -18.1501   22.4543 O.3     1  UNL1       -0.4602
      9 C         -13.1077  -18.2113   23.8762 C.3     1  UNL1        0.2072
     10 C         -11.7277  -18.7108   24.1859 C.3     1  UNL1        0.0488
     11 C         -11.3206  -20.0942   23.7731 C.3     1  UNL1        0.0359
     12 C          -9.9406  -20.5938   24.0828 C.3     1  UNL1        0.1423
     13 O          -8.9676  -19.7099   24.8054 O.3     1  UNL1       -0.3538
     14 C          -9.3746  -18.3265   25.2182 C.3     1  UNL1        0.1423
     15 C         -10.7547  -17.8269   24.9085 C.3     1  UNL1        0.0359
     16 C          -8.7068  -19.6433   20.1967 C.3     1  UNL1        0.2523
     17 C          -5.9461  -20.7650   20.5435 C.3     1  UNL1        0.0358
     18 C          -6.3443  -19.5146   21.2701 C.2     1  UNL1        0.0342
     19 C          -7.7247  -18.9537   21.0968 C.2     1  UNL1        0.1014
     20 N          -8.1229  -17.7033   21.8233 N.2     1  UNL1       -0.2501
     21 C          -7.1407  -17.0138   22.7234 C.2     1  UNL1        0.0661
     22 C          -7.5390  -15.7634   23.4499 C.3     1  UNL1        0.0718
     23 C          -6.5568  -15.0739   24.3499 C.2     1  UNL1       -0.0198
     24 C          -5.1765  -15.6348   24.5233 C.2     1  UNL1       -0.0040
     25 C          -4.7783  -16.8851   23.7967 C.2     1  UNL1        0.0040
     26 C          -5.7604  -17.5746   22.8967 C.2     1  UNL1        0.0525
     27 C          -5.3622  -18.8251   22.1701 C.2     1  UNL1        0.1940
     28 O          -3.9818  -19.3859   22.3435 O.2     1  UNL1       -0.2868
@<TRIPOS>BOND
     1    17    18    1
     2    18    19    2
     3    19    16    1
     4    16     1    1
     5     1     2    1
     6     2     3   ar
     7     3     4   ar
     8     4     5   ar
     9     5     6   ar
    10     6     8    1
    11     8     9    1
    12     9    10    1
    13    10    11    1
    14    11    12    1
    15    12    13    1
    16    13    14    1
    17    14    15    1
    18     6     7   ar
    19    19    20    1
    20    20    21    2
    21    21    22    1
    22    22    23    1
    23    23    24    2
    24    24    25    1
    25    25    26    2
    26    26    27    1
    27    27    28    2
    28    27    18    1
    29     7     2   ar
    30    26    21    1
    31    15    10    1
