@<TRIPOS>MOLECULE
*****
 25 28 0 0 0
SMALL
GASTEIGER

@<TRIPOS>ATOM
      1 C          -7.9037  -17.5915   22.9395 C.3     1  UNL1        0.1270
      2 C          -7.6005  -16.7333   24.1319 C.ar    1  UNL1        0.0249
      3 C          -6.1983  -16.2616   24.3794 C.ar    1  UNL1       -0.0005
      4 C          -5.8952  -15.4035   25.5717 C.ar    1  UNL1       -0.0001
      5 C          -6.9943  -15.0171   26.5165 C.ar    1  UNL1        0.0031
      6 C          -8.3965  -15.4887   26.2690 C.ar    1  UNL1        0.0372
      7 C          -8.6996  -16.3468   25.0767 C.ar    1  UNL1        0.1420
      8 O         -10.1019  -16.8185   24.8291 O.3     1  UNL1       -0.4541
      9 C         -10.4050  -17.6767   23.6368 C.ar    1  UNL1        0.1420
     10 C         -11.8073  -18.1484   23.3893 C.ar    1  UNL1        0.0372
     11 C         -12.1104  -19.0065   22.1969 C.ar    1  UNL1        0.0031
     12 C         -11.0113  -19.3929   21.2521 C.ar    1  UNL1       -0.0001
     13 C          -9.6091  -18.9213   21.4996 C.ar    1  UNL1       -0.0005
     14 C          -9.3059  -18.0631   22.6920 C.ar    1  UNL1        0.0249
     15 N          -5.4970  -18.4804   22.5307 N.am    1  UNL1       -0.2636
     16 C          -6.8047  -17.9779   21.9947 C.2     1  UNL1        0.2355
     17 O          -7.0133  -17.8619   20.5137 O.2     1  UNL1       -0.2740
     18 H          -5.3600  -18.5566   23.5026 H       1  UNL1        0.1568
     19 C          -2.3166  -18.8548   20.3374 C.ar    1  UNL1        0.1576
     20 C          -3.0965  -20.0684   19.9265 C.ar    1  UNL1        0.0677
     21 S          -4.3828  -20.0759   20.6981 S.2     1  UNL1       -0.0501
     22 C          -4.3979  -18.8669   21.5859 C.ar    1  UNL1        0.1663
     23 N          -3.1209  -18.1122   21.3629 N.ar    1  UNL1       -0.2135
     24 N           0.3786  -18.0534   19.2917 N.1     1  UNL1       -0.1892
     25 C          -0.9690  -18.4541   19.8145 C.1     1  UNL1        0.1204
@<TRIPOS>BOND
     1    24    25    3
     2    25    19    1
     3    19    20   ar
     4    20    21   ar
     5    21    22   ar
     6    22    15    1
     7    15    16   am
     8    16    17    2
     9    16     1    1
    10     1     2    1
    11     2     3   ar
    12     3     4   ar
    13     4     5   ar
    14     5     6   ar
    15     6     7   ar
    16     7     8    1
    17     8     9    1
    18     9    10   ar
    19    10    11   ar
    20    11    12   ar
    21    12    13   ar
    22    13    14   ar
    23    22    23   ar
    24    23    19   ar
    25    14     1    1
    26     7     2   ar
    27    14     9   ar
    28    15    18    1
@<TRIPOS>MOLECULE
*****
 25 28 0 0 0
SMALL
GASTEIGER

@<TRIPOS>ATOM
      1 C          -7.9210  -17.5835   22.9447 C.3     1  UNL1        0.1270
      2 C          -9.3240  -18.0500   22.6916 C.ar    1  UNL1        0.0249
      3 C          -9.6264  -18.9034   21.4957 C.ar    1  UNL1       -0.0005
      4 C         -11.0293  -19.3699   21.2426 C.ar    1  UNL1       -0.0001
      5 C         -12.1299  -18.9830   22.1855 C.ar    1  UNL1        0.0031
      6 C         -11.8276  -18.1296   23.3814 C.ar    1  UNL1        0.0372
      7 C         -10.4246  -17.6631   23.6345 C.ar    1  UNL1        0.1420
      8 O         -10.1222  -16.8097   24.8304 O.3     1  UNL1       -0.4541
      9 C          -8.7192  -16.3432   25.0835 C.ar    1  UNL1        0.1420
     10 C          -8.4168  -15.4898   26.2795 C.ar    1  UNL1        0.0372
     11 C          -7.0139  -15.0233   26.5325 C.ar    1  UNL1        0.0031
     12 C          -5.9133  -15.4102   25.5896 C.ar    1  UNL1       -0.0001
     13 C          -6.2156  -16.2636   24.3937 C.ar    1  UNL1       -0.0005
     14 C          -7.6186  -16.7301   24.1406 C.ar    1  UNL1        0.0249
     15 N          -5.5155  -18.4777   22.5401 N.am    1  UNL1       -0.2636
     16 C          -6.8204  -17.9704   22.0018 C.2     1  UNL1        0.2355
     17 O          -7.0248  -17.8500   20.5207 O.2     1  UNL1       -0.2740
     18 H          -5.3813  -18.5568   23.5122 H       1  UNL1        0.1568
     19 C          -2.3291  -18.8561   20.3561 C.ar    1  UNL1        0.1576
     20 C          -3.1133  -20.0640   19.9365 C.ar    1  UNL1        0.0677
     21 S          -4.4023  -20.0693   20.7035 S.2     1  UNL1       -0.0501
     22 C          -4.4149  -18.8647   21.5972 C.ar    1  UNL1        0.1663
     23 N          -3.1336  -18.1149   21.3825 N.ar    1  UNL1       -0.2135
     24 N           0.3735  -18.0621   19.3239 N.1     1  UNL1       -0.1892
     25 C          -0.9778  -18.4591   19.8400 C.1     1  UNL1        0.1204
@<TRIPOS>BOND
     1    24    25    3
     2    25    19    1
     3    19    20   ar
     4    20    21   ar
     5    21    22   ar
     6    22    15    1
     7    15    16   am
     8    16    17    2
     9    16     1    1
    10     1     2    1
    11     2     3   ar
    12     3     4   ar
    13     4     5   ar
    14     5     6   ar
    15     6     7   ar
    16     7     8    1
    17     8     9    1
    18     9    10   ar
    19    10    11   ar
    20    11    12   ar
    21    12    13   ar
    22    13    14   ar
    23    22    23   ar
    24    23    19   ar
    25    14     1    1
    26     7     2   ar
    27    14     9   ar
    28    15    18    1
@<TRIPOS>MOLECULE
*****
 25 28 0 0 0
SMALL
GASTEIGER

@<TRIPOS>ATOM
      1 C          -7.0266  -18.1708   22.6559 C.3     1  UNL1        0.1270
      2 C          -6.1625  -19.0264   21.7775 C.ar    1  UNL1        0.0249
      3 C          -6.7794  -20.1142   20.9493 C.ar    1  UNL1       -0.0005
      4 C          -5.9153  -20.9696   20.0711 C.ar    1  UNL1       -0.0001
      5 C          -4.4342  -20.7373   20.0210 C.ar    1  UNL1        0.0031
      6 C          -3.8173  -19.6495   20.8493 C.ar    1  UNL1        0.0372
      7 C          -4.6814  -18.7940   21.7275 C.ar    1  UNL1        0.1420
      8 O          -4.0645  -17.7061   22.5558 O.3     1  UNL1       -0.4541
      9 C          -4.9287  -16.8507   23.4341 C.ar    1  UNL1        0.1420
     10 C          -4.3117  -15.7628   24.2624 C.ar    1  UNL1        0.0372
     11 C          -5.1759  -14.9073   25.1406 C.ar    1  UNL1        0.0031
     12 C          -6.6569  -15.1396   25.1906 C.ar    1  UNL1       -0.0001
     13 C          -7.2739  -16.2274   24.3624 C.ar    1  UNL1       -0.0005
     14 C          -6.4097  -17.0830   23.4841 C.ar    1  UNL1        0.0249
     15 N          -9.4521  -17.3142   22.2910 N.am    1  UNL1       -0.2636
     16 C          -8.5077  -18.4031   22.7059 C.2     1  UNL1        0.2355
     17 O          -9.0443  -19.7245   23.1708 O.2     1  UNL1       -0.2740
     18 H          -9.0999  -16.4469   21.9858 H       1  UNL1        0.1568
     19 C         -13.1695  -18.0179   23.1580 C.ar    1  UNL1        0.1576
     20 C         -13.2552  -17.7900   21.6779 C.ar    1  UNL1        0.0677
     21 S         -11.8731  -17.4987   21.1730 S.2     1  UNL1       -0.0501
     22 C         -10.9332  -17.5465   22.3410 C.ar    1  UNL1        0.1663
     23 N         -11.7344  -17.8674   23.5678 N.ar    1  UNL1       -0.2135
     24 N         -15.4650  -18.6618   24.9789 N.1     1  UNL1       -0.1892
     25 C         -14.3172  -18.3399   24.0685 C.1     1  UNL1        0.1204
@<TRIPOS>BOND
     1    24    25    3
     2    25    19    1
     3    19    20   ar
     4    20    21   ar
     5    21    22   ar
     6    22    15    1
     7    15    16   am
     8    16    17    2
     9    16     1    1
    10     1     2    1
    11     2     3   ar
    12     3     4   ar
    13     4     5   ar
    14     5     6   ar
    15     6     7   ar
    16     7     8    1
    17     8     9    1
    18     9    10   ar
    19    10    11   ar
    20    11    12   ar
    21    12    13   ar
    22    13    14   ar
    23    22    23   ar
    24    23    19   ar
    25    14     1    1
    26     7     2   ar
    27    14     9   ar
    28    15    18    1
@<TRIPOS>MOLECULE
*****
 25 28 0 0 0
SMALL
GASTEIGER

@<TRIPOS>ATOM
      1 C          -6.9924  -18.1737   22.6565 C.3     1  UNL1        0.1270
      2 C          -6.3758  -17.0875   23.4872 C.ar    1  UNL1        0.0249
      3 C          -7.2394  -16.2384   24.3722 C.ar    1  UNL1       -0.0005
      4 C          -6.6228  -15.1522   25.2028 C.ar    1  UNL1       -0.0001
      5 C          -5.1426  -14.9152   25.1485 C.ar    1  UNL1        0.0031
      6 C          -4.2790  -15.7643   24.2636 C.ar    1  UNL1        0.0372
      7 C          -4.8956  -16.8505   23.4329 C.ar    1  UNL1        0.1420
      8 O          -4.0320  -17.6997   22.5479 O.3     1  UNL1       -0.4541
      9 C          -4.6486  -18.7858   21.7172 C.ar    1  UNL1        0.1420
     10 C          -3.7851  -19.6350   20.8322 C.ar    1  UNL1        0.0372
     11 C          -4.4016  -20.7212   20.0015 C.ar    1  UNL1        0.0031
     12 C          -5.8818  -20.9582   20.0558 C.ar    1  UNL1       -0.0001
     13 C          -6.7454  -20.1091   20.9408 C.ar    1  UNL1       -0.0005
     14 C          -6.1288  -19.0229   21.7715 C.ar    1  UNL1        0.0249
     15 N          -9.4216  -17.3248   22.2987 N.am    1  UNL1       -0.2636
     16 C          -8.4725  -18.4108   22.7108 C.2     1  UNL1        0.2355
     17 O          -9.0036  -19.7339   23.1772 O.2     1  UNL1       -0.2740
     18 H          -9.0731  -16.4564   21.9927 H       1  UNL1        0.1568
     19 C         -13.1364  -18.0257   23.1788 C.ar    1  UNL1        0.1576
     20 C         -13.2226  -17.8275   21.6944 C.ar    1  UNL1        0.0677
     21 S         -11.8415  -17.5408   21.1841 S.2     1  UNL1       -0.0501
     22 C         -10.9018  -17.5618   22.3530 C.ar    1  UNL1        0.1663
     23 N         -11.7021  -17.8616   23.5858 N.ar    1  UNL1       -0.2135
     24 N         -15.4300  -18.6423   25.0116 N.1     1  UNL1       -0.1892
     25 C         -14.2832  -18.3340   24.0952 C.1     1  UNL1        0.1204
@<TRIPOS>BOND
     1    24    25    3
     2    25    19    1
     3    19    20   ar
     4    20    21   ar
     5    21    22   ar
     6    22    15    1
     7    15    16   am
     8    16    17    2
     9    16     1    1
    10     1     2    1
    11     2     3   ar
    12     3     4   ar
    13     4     5   ar
    14     5     6   ar
    15     6     7   ar
    16     7     8    1
    17     8     9    1
    18     9    10   ar
    19    10    11   ar
    20    11    12   ar
    21    12    13   ar
    22    13    14   ar
    23    22    23   ar
    24    23    19   ar
    25    14     1    1
    26     7     2   ar
    27    14     9   ar
    28    15    18    1
@<TRIPOS>MOLECULE
*****
 25 28 0 0 0
SMALL
GASTEIGER

@<TRIPOS>ATOM
      1 C           6.8567   -3.6130   24.2539 C.3     1  UNL1        0.1270
      2 C           7.2290   -3.2220   22.8544 C.ar    1  UNL1        0.0249
      3 C           6.9038   -1.8480   22.3479 C.ar    1  UNL1       -0.0005
      4 C           7.2760   -1.4570   20.9485 C.ar    1  UNL1       -0.0001
      5 C           7.9734   -2.4400   20.0555 C.ar    1  UNL1        0.0031
      6 C           8.2986   -3.8139   20.5619 C.ar    1  UNL1        0.0372
      7 C           7.9264   -4.2049   21.9614 C.ar    1  UNL1        0.1420
      8 O           8.2516   -5.5789   22.4679 O.3     1  UNL1       -0.4541
      9 C           7.8794   -5.9699   23.8674 C.ar    1  UNL1        0.1420
     10 C           8.2046   -7.3439   24.3739 C.ar    1  UNL1        0.0372
     11 C           7.8324   -7.7349   25.7733 C.ar    1  UNL1        0.0031
     12 C           7.1349   -6.7519   26.6663 C.ar    1  UNL1       -0.0001
     13 C           6.8097   -5.3780   26.1599 C.ar    1  UNL1       -0.0005
     14 C           7.1820   -4.9870   24.7604 C.ar    1  UNL1        0.0249
     15 N           4.6759   -2.4373   25.0360 N.am    1  UNL1       -0.2636
     16 C           6.1593   -2.6301   25.1469 C.2     1  UNL1        0.2355
     17 O           6.9454   -1.8400   26.1509 O.2     1  UNL1       -0.2740
     18 H           4.1601   -2.9559   24.3771 H       1  UNL1        0.1568
     19 C           2.9049   -0.4463   27.8582 C.ar    1  UNL1        0.1576
     20 C           2.9056    0.5626   26.7482 C.ar    1  UNL1        0.0677
     21 S           3.5691   -0.0604   25.5559 S.2     1  UNL1       -0.0501
     22 C           3.9785   -1.4544   25.9290 C.ar    1  UNL1        0.1663
     23 N           3.5680   -1.6928   27.3519 N.ar    1  UNL1       -0.2135
     24 N           1.7758   -0.0420   30.6080 N.1     1  UNL1       -0.1892
     25 C           2.3404   -0.2441   29.2331 C.1     1  UNL1        0.1204
@<TRIPOS>BOND
     1    24    25    3
     2    25    19    1
     3    19    20   ar
     4    20    21   ar
     5    21    22   ar
     6    22    15    1
     7    15    16   am
     8    16    17    2
     9    16     1    1
    10     1     2    1
    11     2     3   ar
    12     3     4   ar
    13     4     5   ar
    14     5     6   ar
    15     6     7   ar
    16     7     8    1
    17     8     9    1
    18     9    10   ar
    19    10    11   ar
    20    11    12   ar
    21    12    13   ar
    22    13    14   ar
    23    22    23   ar
    24    23    19   ar
    25    14     1    1
    26     7     2   ar
    27    14     9   ar
    28    15    18    1
@<TRIPOS>MOLECULE
*****
 25 28 0 0 0
SMALL
GASTEIGER

@<TRIPOS>ATOM
      1 C           6.8668   -3.6107   24.2532 C.3     1  UNL1        0.1270
      2 C           7.1872   -4.9863   24.7584 C.ar    1  UNL1        0.0249
      3 C           6.8080   -5.3794   26.1554 C.ar    1  UNL1       -0.0005
      4 C           7.1285   -6.7549   26.6605 C.ar    1  UNL1       -0.0001
      5 C           7.8280   -7.7374   25.7686 C.ar    1  UNL1        0.0031
      6 C           8.2072   -7.3442   24.3716 C.ar    1  UNL1        0.0372
      7 C           7.8868   -5.9687   23.8665 C.ar    1  UNL1        0.1420
      8 O           8.2660   -5.5755   22.4694 O.3     1  UNL1       -0.4541
      9 C           7.9456   -4.2000   21.9643 C.ar    1  UNL1        0.1420
     10 C           8.3247   -3.8068   20.5673 C.ar    1  UNL1        0.0372
     11 C           8.0043   -2.4312   20.0622 C.ar    1  UNL1        0.0031
     12 C           7.3047   -1.4488   20.9541 C.ar    1  UNL1       -0.0001
     13 C           6.9256   -1.8419   22.3510 C.ar    1  UNL1       -0.0005
     14 C           7.2460   -3.2175   22.8562 C.ar    1  UNL1        0.0249
     15 N           4.6824   -2.4443   25.0392 N.am    1  UNL1       -0.2636
     16 C           6.1672   -2.6283   25.1451 C.2     1  UNL1        0.2355
     17 O           6.9526   -1.8297   26.1430 O.2     1  UNL1       -0.2740
     18 H           4.1669   -2.9684   24.3843 H       1  UNL1        0.1568
     19 C           2.9041   -0.4551   27.8581 C.ar    1  UNL1        0.1576
     20 C           2.9084    0.5548   26.7490 C.ar    1  UNL1        0.0677
     21 S           3.5751   -0.0674   25.5581 S.2     1  UNL1       -0.0501
     22 C           3.9828   -1.4619   25.9311 C.ar    1  UNL1        0.1663
     23 N           3.5681   -1.7015   27.3525 N.ar    1  UNL1       -0.2135
     24 N           1.7671   -0.0528   30.6050 N.1     1  UNL1       -0.1892
     25 C           2.3356   -0.2540   29.2315 C.1     1  UNL1        0.1204
@<TRIPOS>BOND
     1    24    25    3
     2    25    19    1
     3    19    20   ar
     4    20    21   ar
     5    21    22   ar
     6    22    15    1
     7    15    16   am
     8    16    17    2
     9    16     1    1
    10     1     2    1
    11     2     3   ar
    12     3     4   ar
    13     4     5   ar
    14     5     6   ar
    15     6     7   ar
    16     7     8    1
    17     8     9    1
    18     9    10   ar
    19    10    11   ar
    20    11    12   ar
    21    12    13   ar
    22    13    14   ar
    23    22    23   ar
    24    23    19   ar
    25    14     1    1
    26     7     2   ar
    27    14     9   ar
    28    15    18    1
@<TRIPOS>MOLECULE
*****
 25 28 0 0 0
SMALL
GASTEIGER

@<TRIPOS>ATOM
      1 C          -7.5200  -18.2321   21.7453 C.3     1  UNL1        0.1270
      2 C          -8.0367  -17.3196   22.8180 C.ar    1  UNL1        0.0249
      3 C          -7.0864  -16.7079   23.8042 C.ar    1  UNL1       -0.0005
      4 C          -7.6031  -15.7955   24.8768 C.ar    1  UNL1       -0.0001
      5 C          -9.0702  -15.4949   24.9632 C.ar    1  UNL1        0.0031
      6 C         -10.0205  -16.1066   23.9770 C.ar    1  UNL1        0.0372
      7 C          -9.5037  -17.0190   22.9044 C.ar    1  UNL1        0.1420
      8 O         -10.4540  -17.6308   21.9181 O.3     1  UNL1       -0.4541
      9 C          -9.9373  -18.5432   20.8455 C.ar    1  UNL1        0.1420
     10 C         -10.8876  -19.1551   19.8593 C.ar    1  UNL1        0.0372
     11 C         -10.3709  -20.0674   18.7867 C.ar    1  UNL1        0.0031
     12 C          -8.9038  -20.3680   18.7003 C.ar    1  UNL1       -0.0001
     13 C          -7.9535  -19.7563   19.6865 C.ar    1  UNL1       -0.0005
     14 C          -8.4703  -18.8438   20.7591 C.ar    1  UNL1        0.0249
     15 N          -5.3354  -18.3966   20.3488 N.am    1  UNL1       -0.2636
     16 C          -6.0529  -18.5327   21.6589 C.2     1  UNL1        0.2355
     17 O          -5.3035  -18.9694   22.8828 O.2     1  UNL1       -0.2740
     18 H          -5.8272  -18.1100   19.5456 H       1  UNL1        0.1568
     19 C          -1.4596  -18.4253   20.1405 C.ar    1  UNL1        0.1576
     20 C          -1.7619  -19.8943   20.1185 C.ar    1  UNL1        0.0677
     21 S          -3.2506  -20.0624   20.1939 S.2     1  UNL1       -0.0501
     22 C          -3.8683  -18.6972   20.2624 C.ar    1  UNL1        0.1663
     23 N          -2.7614  -17.6855   20.2294 N.ar    1  UNL1       -0.2135
     24 N           1.2694  -17.1847   20.0265 N.1     1  UNL1       -0.1892
     25 C          -0.0951  -17.8050   20.0835 C.1     1  UNL1        0.1204
@<TRIPOS>BOND
     1    24    25    3
     2    25    19    1
     3    19    20   ar
     4    20    21   ar
     5    21    22   ar
     6    22    15    1
     7    15    16   am
     8    16    17    2
     9    16     1    1
    10     1     2    1
    11     2     3   ar
    12     3     4   ar
    13     4     5   ar
    14     5     6   ar
    15     6     7   ar
    16     7     8    1
    17     8     9    1
    18     9    10   ar
    19    10    11   ar
    20    11    12   ar
    21    12    13   ar
    22    13    14   ar
    23    22    23   ar
    24    23    19   ar
    25    14     1    1
    26     7     2   ar
    27    14     9   ar
    28    15    18    1
@<TRIPOS>MOLECULE
*****
 25 28 0 0 0
SMALL
GASTEIGER

@<TRIPOS>ATOM
      1 C           2.1013    3.4023   34.7783 C.3     1  UNL1        0.1270
      2 C           1.2818    4.6142   35.1097 C.ar    1  UNL1        0.0249
      3 C           0.5782    5.3652   34.0184 C.ar    1  UNL1       -0.0005
      4 C          -0.2412    6.5770   34.3498 C.ar    1  UNL1       -0.0001
      5 C          -0.3572    7.0379   35.7725 C.ar    1  UNL1        0.0031
      6 C           0.3463    6.2869   36.8639 C.ar    1  UNL1        0.0372
      7 C           1.1658    5.0751   36.5325 C.ar    1  UNL1        0.1420
      8 O           1.8693    4.3240   37.6238 O.3     1  UNL1       -0.4541
      9 C           2.6888    3.1122   37.2924 C.ar    1  UNL1        0.1420
     10 C           3.3924    2.3611   38.3838 C.ar    1  UNL1        0.0372
     11 C           4.2119    1.1493   38.0523 C.ar    1  UNL1        0.0031
     12 C           4.3279    0.6885   36.6296 C.ar    1  UNL1       -0.0001
     13 C           3.6243    1.4395   35.5383 C.ar    1  UNL1       -0.0005
     14 C           2.8048    2.6514   35.8697 C.ar    1  UNL1        0.0249
     15 N           1.2160    1.9747   32.7964 N.am    1  UNL1       -0.2636
     16 C           2.2173    2.9415   33.3556 C.2     1  UNL1        0.2355
     17 O           3.3346    3.4475   32.4921 O.2     1  UNL1       -0.2740
     18 H           0.4827    1.6427   33.3632 H       1  UNL1        0.1568
     19 C           2.0123    0.2878   29.3926 C.ar    1  UNL1        0.1576
     20 C           1.0085    1.3217   28.9759 C.ar    1  UNL1        0.0677
     21 S           0.5881    2.0794   30.2003 S.2     1  UNL1       -0.0501
     22 C           1.3320    1.5139   31.3737 C.ar    1  UNL1        0.1663
     23 N           2.2122    0.4067   30.8745 N.ar    1  UNL1       -0.2135
     24 N           3.3800   -1.6732   27.5805 N.1     1  UNL1       -0.1892
     25 C           2.6962   -0.6927   28.4865 C.1     1  UNL1        0.1204
@<TRIPOS>BOND
     1    24    25    3
     2    25    19    1
     3    19    20   ar
     4    20    21   ar
     5    21    22   ar
     6    22    15    1
     7    15    16   am
     8    16    17    2
     9    16     1    1
    10     1     2    1
    11     2     3   ar
    12     3     4   ar
    13     4     5   ar
    14     5     6   ar
    15     6     7   ar
    16     7     8    1
    17     8     9    1
    18     9    10   ar
    19    10    11   ar
    20    11    12   ar
    21    12    13   ar
    22    13    14   ar
    23    22    23   ar
    24    23    19   ar
    25    14     1    1
    26     7     2   ar
    27    14     9   ar
    28    15    18    1
@<TRIPOS>MOLECULE
*****
 25 28 0 0 0
SMALL
GASTEIGER

@<TRIPOS>ATOM
      1 C           5.1896   -2.3389   24.3907 C.3     1  UNL1        0.1270
      2 C           6.2294   -3.3936   24.6289 C.ar    1  UNL1        0.0249
      3 C           6.8790   -3.5158   25.9753 C.ar    1  UNL1       -0.0005
      4 C           7.9187   -4.5704   26.2134 C.ar    1  UNL1       -0.0001
      5 C           8.3087   -5.5028   25.1051 C.ar    1  UNL1        0.0031
      6 C           7.6591   -5.3806   23.7586 C.ar    1  UNL1        0.0372
      7 C           6.6194   -4.3260   23.5205 C.ar    1  UNL1        0.1420
      8 O           5.9697   -4.2037   22.1740 O.3     1  UNL1       -0.4541
      9 C           4.9300   -3.1491   21.9359 C.ar    1  UNL1        0.1420
     10 C           4.2803   -3.0268   20.5894 C.ar    1  UNL1        0.0372
     11 C           3.2406   -1.9722   20.3513 C.ar    1  UNL1        0.0031
     12 C           2.8506   -1.0398   21.4596 C.ar    1  UNL1       -0.0001
     13 C           3.5002   -1.1620   22.8061 C.ar    1  UNL1       -0.0005
     14 C           4.5400   -2.2167   23.0442 C.ar    1  UNL1        0.0249
     15 N           3.6100   -1.7185   26.3579 N.am    1  UNL1       -0.2636
     16 C           4.7995   -1.4065   25.4991 C.2     1  UNL1        0.2355
     17 O           5.5991   -0.1620   25.7485 O.2     1  UNL1       -0.2740
     18 H           3.0853   -2.5352   26.1941 H       1  UNL1        0.1568
     19 C           2.9439    0.1918   29.6704 C.ar    1  UNL1        0.1576
     20 C           2.2955    1.1058   28.6733 C.ar    1  UNL1        0.0677
     21 S           2.4661    0.5014   27.3111 S.2     1  UNL1       -0.0501
     22 C           3.2200   -0.7860   27.4663 C.ar    1  UNL1        0.1663
     23 N           3.5152   -0.9774   28.9244 N.ar    1  UNL1       -0.2135
     24 N           3.0751    0.6260   32.6359 N.1     1  UNL1       -0.1892
     25 C           3.0095    0.4089   31.1532 C.1     1  UNL1        0.1204
@<TRIPOS>BOND
     1    24    25    3
     2    25    19    1
     3    19    20   ar
     4    20    21   ar
     5    21    22   ar
     6    22    15    1
     7    15    16   am
     8    16    17    2
     9    16     1    1
    10     1     2    1
    11     2     3   ar
    12     3     4   ar
    13     4     5   ar
    14     5     6   ar
    15     6     7   ar
    16     7     8    1
    17     8     9    1
    18     9    10   ar
    19    10    11   ar
    20    11    12   ar
    21    12    13   ar
    22    13    14   ar
    23    22    23   ar
    24    23    19   ar
    25    14     1    1
    26     7     2   ar
    27    14     9   ar
    28    15    18    1
