@<TRIPOS>MOLECULE
*****
 21 23 0 0 0
SMALL
GASTEIGER

@<TRIPOS>ATOM
      1 C          -7.8304  -19.1787   21.7277 C.2     1  UNL1       -0.0242
      2 C          -8.4654  -19.5342   20.4160 C.2     1  UNL1       -0.0420
      3 C          -7.3741  -19.9226   19.4630 C.3     1  UNL1        0.0480
      4 C          -6.0647  -19.8072   20.1857 C.ar    1  UNL1       -0.0184
      5 C          -4.6520  -20.0613   19.7501 C.ar    1  UNL1       -0.0040
      6 C          -3.5215  -19.8557   20.7141 C.ar    1  UNL1       -0.0003
      7 C          -3.8035  -19.3959   22.1138 C.ar    1  UNL1       -0.0000
      8 C          -5.2162  -19.1418   22.5494 C.ar    1  UNL1       -0.0006
      9 C          -6.3468  -19.3474   21.5853 C.ar    1  UNL1       -0.0078
     10 C          -9.4758  -19.6772   23.6756 C.3     1  UNL1        0.0116
     11 C          -8.5524  -18.7328   22.9646 C.3     1  UNL1        0.0681
     12 C          -8.3511  -17.3426   23.4904 C.ar    1  UNL1        0.0919
     13 N          -7.4259  -16.3092   22.9195 N.ar    1  UNL1       -0.2408
     14 C          -7.5427  -15.0696   23.7559 C.ar    1  UNL1        0.1061
     15 C          -8.5401  -15.3367   24.8438 C.ar    1  UNL1        0.0572
     16 S          -9.0398  -16.7415   24.6798 S.2     1  UNL1       -0.0699
     17 C          -9.9337  -19.5062   20.1109 C.3     1  UNL1        0.0394
     18 C         -10.6067  -18.2067   19.7816 C.3     1  UNL1        0.0765
     19 N         -11.1986  -17.3700   20.8768 N.3     1  UNL1       -0.2700
     20 C         -12.2691  -17.9390   21.7602 C.3     1  UNL1        0.0897
     21 C         -10.7201  -15.9643   21.0887 C.3     1  UNL1        0.0897
@<TRIPOS>BOND
     1    11    10    1
     2    11     1    1
     3     1     2    2
     4     2    17    1
     5    17    18    1
     6    18    19    1
     7    19    20    1
     8    19    21    1
     9     2     3    1
    10     3     4    1
    11     4     5   ar
    12     5     6   ar
    13     6     7   ar
    14     7     8   ar
    15     8     9   ar
    16    11    12    1
    17    12    13   ar
    18    13    14   ar
    19    14    15   ar
    20    15    16   ar
    21     9     1    1
    22    16    12   ar
    23     9     4   ar
@<TRIPOS>MOLECULE
*****
 21 23 0 0 0
SMALL
GASTEIGER

@<TRIPOS>ATOM
      1 C          -8.2694  -18.3583   22.3716 C.2     1  UNL1       -0.0242
      2 C          -7.7507  -17.2436   23.2309 C.2     1  UNL1       -0.0420
      3 C          -6.2529  -17.2545   23.1501 C.3     1  UNL1        0.0480
      4 C          -5.8459  -18.3759   22.2408 C.ar    1  UNL1       -0.0184
      5 C          -4.5015  -18.8640   21.7887 C.ar    1  UNL1       -0.0040
      6 C          -4.4034  -20.0342   20.8555 C.ar    1  UNL1       -0.0003
      7 C          -5.6497  -20.7164   20.3744 C.ar    1  UNL1       -0.0000
      8 C          -6.9940  -20.2283   20.8264 C.ar    1  UNL1       -0.0006
      9 C          -7.0922  -19.0581   21.7596 C.ar    1  UNL1       -0.0078
     10 C         -10.2501  -20.0105   22.6832 C.3     1  UNL1        0.0116
     11 C          -9.7120  -18.7112   22.1611 C.3     1  UNL1        0.0681
     12 C         -10.6165  -17.7651   21.4287 C.ar    1  UNL1        0.0919
     13 N         -10.3306  -17.1177   20.1061 N.ar    1  UNL1       -0.2408
     14 C         -11.5032  -16.2527   19.7503 C.ar    1  UNL1        0.1061
     15 C         -12.5138  -16.3654   20.8529 C.ar    1  UNL1        0.0572
     16 S         -11.9659  -17.3001   21.8902 S.2     1  UNL1       -0.0699
     17 C          -8.5836  -16.2862   24.0307 C.3     1  UNL1        0.0394
     18 C          -7.9224  -15.1958   24.8205 C.3     1  UNL1        0.0765
     19 N          -7.2838  -15.5080   26.1414 N.3     1  UNL1       -0.2700
     20 C          -8.1199  -16.0217   27.2759 C.3     1  UNL1        0.0897
     21 C          -5.8091  -15.3066   26.3277 C.3     1  UNL1        0.0897
@<TRIPOS>BOND
     1    11    10    1
     2    11     1    1
     3     1     2    2
     4     2    17    1
     5    17    18    1
     6    18    19    1
     7    19    20    1
     8    19    21    1
     9     2     3    1
    10     3     4    1
    11     4     5   ar
    12     5     6   ar
    13     6     7   ar
    14     7     8   ar
    15     8     9   ar
    16    11    12    1
    17    12    13   ar
    18    13    14   ar
    19    14    15   ar
    20    15    16   ar
    21     9     1    1
    22    16    12   ar
    23     9     4   ar
@<TRIPOS>MOLECULE
*****
 21 23 0 0 0
SMALL
GASTEIGER

@<TRIPOS>ATOM
      1 C          -8.5225  -17.2208   24.0582 C.2     1  UNL1       -0.0242
      2 C          -7.4523  -17.1731   23.0082 C.2     1  UNL1       -0.0420
      3 C          -6.3113  -16.3615   23.5459 C.3     1  UNL1        0.0480
      4 C          -6.6762  -15.9076   24.9283 C.ar    1  UNL1       -0.0184
      5 C          -5.9406  -15.0792   25.9396 C.ar    1  UNL1       -0.0040
      6 C          -6.5717  -14.7820   27.2675 C.ar    1  UNL1       -0.0003
      7 C          -7.9383  -15.3131   27.5841 C.ar    1  UNL1       -0.0000
      8 C          -8.6739  -16.1414   26.5727 C.ar    1  UNL1       -0.0006
      9 C          -8.0428  -16.4387   25.2448 C.ar    1  UNL1       -0.0078
     10 C         -10.1687  -19.0606   24.8677 C.3     1  UNL1        0.0116
     11 C          -9.8409  -17.9267   23.9420 C.3     1  UNL1        0.0681
     12 C         -10.8315  -17.4989   22.9001 C.ar    1  UNL1        0.0919
     13 N         -10.7725  -16.2358   22.0932 N.ar    1  UNL1       -0.2408
     14 C         -11.9596  -16.2153   21.1766 C.ar    1  UNL1        0.1061
     15 C         -12.7523  -17.4658   21.4169 C.ar    1  UNL1        0.0572
     16 S         -12.0551  -18.2591   22.4821 S.2     1  UNL1       -0.0699
     17 C          -7.5127  -17.8230   21.6576 C.3     1  UNL1        0.0394
     18 C          -6.7697  -19.1016   21.4067 C.3     1  UNL1        0.0765
     19 N          -5.2842  -19.0778   21.2001 N.3     1  UNL1       -0.2700
     20 C          -4.3614  -19.1748   22.3787 C.3     1  UNL1        0.0897
     21 C          -4.7215  -18.9569   19.8149 C.3     1  UNL1        0.0897
@<TRIPOS>BOND
     1    11    10    1
     2    11     1    1
     3     1     2    2
     4     2    17    1
     5    17    18    1
     6    18    19    1
     7    19    20    1
     8    19    21    1
     9     2     3    1
    10     3     4    1
    11     4     5   ar
    12     5     6   ar
    13     6     7   ar
    14     7     8   ar
    15     8     9   ar
    16    11    12    1
    17    12    13   ar
    18    13    14   ar
    19    14    15   ar
    20    15    16   ar
    21     9     1    1
    22    16    12   ar
    23     9     4   ar
@<TRIPOS>MOLECULE
*****
 21 23 0 0 0
SMALL
GASTEIGER

@<TRIPOS>ATOM
      1 C          -8.5054  -17.0969   22.8137 C.2     1  UNL1       -0.0242
      2 C          -7.8334  -18.3266   22.2787 C.2     1  UNL1       -0.0420
      3 C          -8.8863  -19.1987   21.6613 C.3     1  UNL1        0.0480
      4 C         -10.2089  -18.5079   21.8149 C.ar    1  UNL1       -0.0184
      5 C         -11.5971  -18.8939   21.3981 C.ar    1  UNL1       -0.0040
      6 C         -12.7500  -17.9809   21.6936 C.ar    1  UNL1       -0.0003
      7 C         -12.5146  -16.6820   22.4059 C.ar    1  UNL1       -0.0000
      8 C         -11.1263  -16.2960   22.8226 C.ar    1  UNL1       -0.0006
      9 C          -9.9735  -17.2089   22.5271 C.ar    1  UNL1       -0.0078
     10 C          -7.2951  -14.7999   22.7187 C.3     1  UNL1        0.0116
     11 C          -7.8281  -15.9555   23.5127 C.3     1  UNL1        0.0681
     12 C          -7.6839  -15.9697   25.0056 C.ar    1  UNL1        0.0919
     13 N          -8.7201  -16.4308   25.9873 N.ar    1  UNL1       -0.2408
     14 C          -8.1547  -16.2713   27.3674 C.ar    1  UNL1        0.1061
     15 C          -6.7691  -15.7116   27.2388 C.ar    1  UNL1        0.0572
     16 S          -6.4780  -15.5252   25.7791 S.2     1  UNL1       -0.0699
     17 C          -6.3663  -18.6309   22.3486 C.3     1  UNL1        0.0394
     18 C          -5.8123  -19.8231   21.6264 C.3     1  UNL1        0.0765
     19 N          -4.3686  -19.8497   21.2200 N.3     1  UNL1       -0.2700
     20 C          -3.3351  -19.1843   22.0798 C.3     1  UNL1        0.0897
     21 C          -3.9585  -20.5416   19.9540 C.3     1  UNL1        0.0897
@<TRIPOS>BOND
     1    11    10    1
     2    11     1    1
     3     1     2    2
     4     2    17    1
     5    17    18    1
     6    18    19    1
     7    19    20    1
     8    19    21    1
     9     2     3    1
    10     3     4    1
    11     4     5   ar
    12     5     6   ar
    13     6     7   ar
    14     7     8   ar
    15     8     9   ar
    16    11    12    1
    17    12    13   ar
    18    13    14   ar
    19    14    15   ar
    20    15    16   ar
    21     9     1    1
    22    16    12   ar
    23     9     4   ar
@<TRIPOS>MOLECULE
*****
 21 23 0 0 0
SMALL
GASTEIGER

@<TRIPOS>ATOM
      1 C          -9.6951  -18.4966   22.9797 C.2     1  UNL1       -0.0242
      2 C          -8.7546  -19.0992   21.9786 C.2     1  UNL1       -0.0420
      3 C          -9.2058  -18.6830   20.6099 C.3     1  UNL1        0.0480
      4 C         -10.4250  -17.8232   20.7652 C.ar    1  UNL1       -0.0184
      5 C         -11.2989  -17.1303   19.7621 C.ar    1  UNL1       -0.0040
      6 C         -12.4752  -16.3222   20.2238 C.ar    1  UNL1       -0.0003
      7 C         -12.7777  -16.2070   21.6884 C.ar    1  UNL1       -0.0000
      8 C         -11.9038  -16.8999   22.6915 C.ar    1  UNL1       -0.0006
      9 C         -10.7275  -17.7080   22.2298 C.ar    1  UNL1       -0.0078
     10 C         -10.1005  -19.9192   25.1156 C.3     1  UNL1        0.0116
     11 C          -9.6170  -18.6548   24.4693 C.3     1  UNL1        0.0681
     12 C          -9.0554  -17.5488   25.3126 C.ar    1  UNL1        0.0919
     13 N          -8.8964  -17.5709   26.8040 N.ar    1  UNL1       -0.2408
     14 C          -8.2969  -16.2622   27.2257 C.ar    1  UNL1        0.1061
     15 C          -8.0854  -15.4312   25.9950 C.ar    1  UNL1        0.0572
     16 S          -8.5542  -16.2264   24.8126 S.2     1  UNL1       -0.0699
     17 C          -7.5709  -19.9659   22.2911 C.3     1  UNL1        0.0394
     18 C          -6.1841  -19.4006   22.2057 C.3     1  UNL1        0.0765
     19 N          -5.2193  -19.9313   21.1871 N.3     1  UNL1       -0.2700
     20 C          -5.6473  -21.0142   20.2415 C.3     1  UNL1        0.0897
     21 C          -3.8266  -19.3792   21.1142 C.3     1  UNL1        0.0897
@<TRIPOS>BOND
     1    11    10    1
     2    11     1    1
     3     1     2    2
     4     2    17    1
     5    17    18    1
     6    18    19    1
     7    19    20    1
     8    19    21    1
     9     2     3    1
    10     3     4    1
    11     4     5   ar
    12     5     6   ar
    13     6     7   ar
    14     7     8   ar
    15     8     9   ar
    16    11    12    1
    17    12    13   ar
    18    13    14   ar
    19    14    15   ar
    20    15    16   ar
    21     9     1    1
    22    16    12   ar
    23     9     4   ar
@<TRIPOS>MOLECULE
*****
 21 23 0 0 0
SMALL
GASTEIGER

@<TRIPOS>ATOM
      1 C         -13.2346   -4.8054   19.4592 C.2     1  UNL1       -0.0242
      2 C         -14.2838   -5.8560   19.2463 C.2     1  UNL1       -0.0420
      3 C         -13.6010   -7.1023   18.7662 C.3     1  UNL1        0.0480
      4 C         -12.1298   -6.8219   18.6823 C.ar    1  UNL1       -0.0184
      5 C         -10.9672   -7.6758   18.2713 C.ar    1  UNL1       -0.0040
      6 C          -9.5781   -7.1101   18.2886 C.ar    1  UNL1       -0.0003
      7 C          -9.3516   -5.6905   18.7169 C.ar    1  UNL1       -0.0000
      8 C         -10.5143   -4.8366   19.1279 C.ar    1  UNL1       -0.0006
      9 C         -11.9034   -5.4023   19.1106 C.ar    1  UNL1       -0.0078
     10 C         -13.9809   -3.1618   21.3279 C.3     1  UNL1        0.0116
     11 C         -13.4745   -3.4038   19.9368 C.3     1  UNL1        0.0681
     12 C         -13.2082   -2.2443   19.0234 C.ar    1  UNL1        0.0919
     13 N         -11.9342   -1.4562   18.9474 N.ar    1  UNL1       -0.2408
     14 C         -12.1077   -0.3940   17.9027 C.ar    1  UNL1        0.1061
     15 C         -13.4889   -0.5256   17.3329 C.ar    1  UNL1        0.0572
     16 S         -14.1691   -1.6691   18.0255 S.2     1  UNL1       -0.0699
     17 C         -15.7571   -5.6896   19.4737 C.3     1  UNL1        0.0394
     18 C         -16.7261   -6.6441   18.8412 C.3     1  UNL1        0.0765
     19 N         -17.3741   -7.7137   19.6695 N.3     1  UNL1       -0.2700
     20 C         -18.8145   -7.5844   20.0679 C.3     1  UNL1        0.0897
     21 C         -16.5818   -8.9127   20.0992 C.3     1  UNL1        0.0897
@<TRIPOS>BOND
     1    11    10    1
     2    11     1    1
     3     1     2    2
     4     2    17    1
     5    17    18    1
     6    18    19    1
     7    19    20    1
     8    19    21    1
     9     2     3    1
    10     3     4    1
    11     4     5   ar
    12     5     6   ar
    13     6     7   ar
    14     7     8   ar
    15     8     9   ar
    16    11    12    1
    17    12    13   ar
    18    13    14   ar
    19    14    15   ar
    20    15    16   ar
    21     9     1    1
    22    16    12   ar
    23     9     4   ar
@<TRIPOS>MOLECULE
*****
 21 23 0 0 0
SMALL
GASTEIGER

@<TRIPOS>ATOM
      1 C           4.2103   -2.2497   19.2481 C.2     1  UNL1       -0.0242
      2 C           5.2498   -1.7302   18.2997 C.2     1  UNL1       -0.0420
      3 C           4.7810   -0.4036   17.7796 C.3     1  UNL1        0.0480
      4 C           3.4518   -0.1034   18.4066 C.ar    1  UNL1       -0.0184
      5 C           2.5170    1.0616   18.2683 C.ar    1  UNL1       -0.0040
      6 C           1.2296    1.0855   19.0376 C.ar    1  UNL1       -0.0003
      7 C           0.8769   -0.0555   19.9453 C.ar    1  UNL1       -0.0000
      8 C           1.8117   -1.2204   20.0835 C.ar    1  UNL1       -0.0006
      9 C           3.0991   -1.2443   19.3142 C.ar    1  UNL1       -0.0078
     10 C           3.5769   -4.7609   19.4561 C.3     1  UNL1        0.0116
     11 C           4.2713   -3.5470   19.9987 C.3     1  UNL1        0.0681
     12 C           5.0267   -3.6305   21.2919 C.ar    1  UNL1        0.0919
     13 N           6.3739   -4.2605   21.4870 N.ar    1  UNL1       -0.2408
     14 C           6.7473   -4.1180   22.9327 C.ar    1  UNL1        0.1061
     15 C           5.6310   -3.3999   23.6312 C.ar    1  UNL1        0.0572
     16 S           4.5675   -3.0986   22.6171 S.2     1  UNL1       -0.0699
     17 C           6.5328   -2.4166   17.9353 C.3     1  UNL1        0.0394
     18 C           7.7549   -2.2210   18.7827 C.3     1  UNL1        0.0765
     19 N           7.9438   -0.9416   19.5427 N.3     1  UNL1       -0.2700
     20 C           8.4087    0.2931   18.8289 C.3     1  UNL1        0.0897
     21 C           7.6677   -0.8970   21.0163 C.3     1  UNL1        0.0897
@<TRIPOS>BOND
     1    11    10    1
     2    11     1    1
     3     1     2    2
     4     2    17    1
     5    17    18    1
     6    18    19    1
     7    19    20    1
     8    19    21    1
     9     2     3    1
    10     3     4    1
    11     4     5   ar
    12     5     6   ar
    13     6     7   ar
    14     7     8   ar
    15     8     9   ar
    16    11    12    1
    17    12    13   ar
    18    13    14   ar
    19    14    15   ar
    20    15    16   ar
    21     9     1    1
    22    16    12   ar
    23     9     4   ar
@<TRIPOS>MOLECULE
*****
 21 23 0 0 0
SMALL
GASTEIGER

@<TRIPOS>ATOM
      1 C           3.1287   -1.2690   21.1025 C.2     1  UNL1       -0.0242
      2 C           3.8524   -2.4570   20.5414 C.2     1  UNL1       -0.0420
      3 C           4.5980   -3.1177   21.6628 C.3     1  UNL1        0.0480
      4 C           4.3350   -2.3379   22.9170 C.ar    1  UNL1       -0.0184
      5 C           4.8052   -2.5207   24.3296 C.ar    1  UNL1       -0.0040
      6 C           4.3672   -1.5609   25.3959 C.ar    1  UNL1       -0.0003
      7 C           3.4591   -0.4184   25.0495 C.ar    1  UNL1       -0.0000
      8 C           2.9890   -0.2356   23.6369 C.ar    1  UNL1       -0.0006
      9 C           3.4269   -1.1954   22.5707 C.ar    1  UNL1       -0.0078
     10 C           0.7896   -0.5906   20.1974 C.3     1  UNL1        0.0116
     11 C           2.2593   -0.3210   20.3308 C.3     1  UNL1        0.0681
     12 C           2.8593    0.8965   19.6925 C.ar    1  UNL1        0.0919
     13 N           2.1934    1.7799   18.6796 N.ar    1  UNL1       -0.2408
     14 C           3.1532    2.8738   18.3162 C.ar    1  UNL1        0.1061
     15 C           4.4124    2.6665   19.1045 C.ar    1  UNL1        0.0572
     16 S           4.2307    1.4444   19.9552 S.2     1  UNL1       -0.0699
     17 C           3.8338   -2.9057   19.1102 C.3     1  UNL1        0.0394
     18 C           5.0021   -2.6112   18.2166 C.3     1  UNL1        0.0765
     19 N           5.0625   -1.3153   17.4637 N.3     1  UNL1       -0.2700
     20 C           6.3277   -0.5094   17.4581 C.3     1  UNL1        0.0897
     21 C           3.8578   -0.8252   16.7164 C.3     1  UNL1        0.0897
@<TRIPOS>BOND
     1    11    10    1
     2    11     1    1
     3     1     2    2
     4     2    17    1
     5    17    18    1
     6    18    19    1
     7    19    20    1
     8    19    21    1
     9     2     3    1
    10     3     4    1
    11     4     5   ar
    12     5     6   ar
    13     6     7   ar
    14     7     8   ar
    15     8     9   ar
    16    11    12    1
    17    12    13   ar
    18    13    14   ar
    19    14    15   ar
    20    15    16   ar
    21     9     1    1
    22    16    12   ar
    23     9     4   ar
@<TRIPOS>MOLECULE
*****
 21 23 0 0 0
SMALL
GASTEIGER

@<TRIPOS>ATOM
      1 C           3.7667   -1.7753   21.3671 C.2     1  UNL1       -0.0242
      2 C           3.1921   -2.0520   20.0094 C.2     1  UNL1       -0.0420
      3 C           1.9729   -1.1950   19.8387 C.3     1  UNL1        0.0480
      4 C           1.7941   -0.3886   21.0908 C.ar    1  UNL1       -0.0184
      5 C           0.7650    0.6260   21.4929 C.ar    1  UNL1       -0.0040
      6 C           0.8446    1.2818   22.8395 C.ar    1  UNL1       -0.0003
      7 C           1.9533    0.9232   23.7841 C.ar    1  UNL1       -0.0000
      8 C           2.9823   -0.0914   23.3820 C.ar    1  UNL1       -0.0006
      9 C           2.9028   -0.7472   22.0354 C.ar    1  UNL1       -0.0078
     10 C           4.8513   -3.5173   22.9606 C.3     1  UNL1        0.0116
     11 C           4.9906   -2.4144   21.9534 C.3     1  UNL1        0.0681
     12 C           6.3536   -1.9507   21.5328 C.ar    1  UNL1        0.0919
     13 N           6.8084   -0.5248   21.4340 N.ar    1  UNL1       -0.2408
     14 C           8.2371   -0.5244   20.9772 C.ar    1  UNL1        0.1061
     15 C           8.6654   -1.9501   20.7935 C.ar    1  UNL1        0.0572
     16 S           7.5013   -2.8317   21.1369 S.2     1  UNL1       -0.0699
     17 C           3.7403   -3.0164   18.9998 C.3     1  UNL1        0.0394
     18 C           4.9801   -2.6714   18.2292 C.3     1  UNL1        0.0765
     19 N           5.0864   -1.3469   17.5333 N.3     1  UNL1       -0.2700
     20 C           6.3402   -0.5328   17.6577 C.3     1  UNL1        0.0897
     21 C           3.9390   -0.8363   16.7131 C.3     1  UNL1        0.0897
@<TRIPOS>BOND
     1    11    10    1
     2    11     1    1
     3     1     2    2
     4     2    17    1
     5    17    18    1
     6    18    19    1
     7    19    20    1
     8    19    21    1
     9     2     3    1
    10     3     4    1
    11     4     5   ar
    12     5     6   ar
    13     6     7   ar
    14     7     8   ar
    15     8     9   ar
    16    11    12    1
    17    12    13   ar
    18    13    14   ar
    19    14    15   ar
    20    15    16   ar
    21     9     1    1
    22    16    12   ar
    23     9     4   ar
