@<TRIPOS>MOLECULE
*****
 41 45 0 0 0
SMALL
GASTEIGER

@<TRIPOS>ATOM
      1 C           1.6830    1.5443   19.9827 C.ar    1  UNL1        0.0014
      2 C           0.5830    2.1405   19.1554 C.ar    1  UNL1        0.0032
      3 C          -0.3719    3.1199   19.7711 C.ar    1  UNL1        0.0388
      4 C          -0.2267    3.5031   21.2141 C.ar    1  UNL1        0.1586
      5 C           0.8735    2.9069   22.0413 C.ar    1  UNL1        0.0865
      6 C           1.8283    1.9275   21.4256 C.ar    1  UNL1        0.0178
      7 C           4.5475   -1.3938   18.1355 C.ar    1  UNL1        0.1397
      8 C           4.4788    0.0127   17.6188 C.ar    1  UNL1        0.0369
      9 C           3.5240    0.9921   18.2345 C.ar    1  UNL1        0.0031
     10 C           2.6379    0.5650   19.3670 C.ar    1  UNL1        0.0003
     11 C           2.7066   -0.8415   19.8837 C.ar    1  UNL1        0.0042
     12 C           3.6615   -1.8209   19.2679 C.ar    1  UNL1        0.0479
     13 C           3.7303   -3.2274   19.7846 C.2     1  UNL1        0.0758
     14 O           4.3994   -3.5127   21.0964 O.co2   1  UNL1       -0.5445
     15 O           3.1298   -4.3488   18.9895 O.co2   1  UNL1       -0.5445
     16 C           6.9190   -2.4472   18.0073 C.3     1  UNL1        0.2525
     17 O           5.5024   -2.3731   17.5198 O.3     1  UNL1       -0.4714
     18 N           1.0187    3.2900   23.4843 N.am    1  UNL1       -0.2656
     19 C           0.6774    2.3025   24.5605 C.2     1  UNL1        0.3082
     20 O           0.1908    0.9319   24.1938 O.2     1  UNL1       -0.2521
     21 N           0.8227    2.6857   26.0035 N.am    1  UNL1       -0.2683
     22 H           1.3381    4.1897   23.7249 H       1  UNL1        0.1565
     23 H           1.1420    3.5853   26.2441 H       1  UNL1        0.1564
     24 C           0.4813    1.6982   27.0797 C.ar    1  UNL1        0.0476
     25 C          -0.9370    1.5592   27.5476 C.ar    1  UNL1        0.0144
     26 C          -1.2783    0.5716   28.6239 C.ar    1  UNL1        0.0013
     27 C          -0.2013   -0.2768   29.2322 C.ar    1  UNL1       -0.0002
     28 C           1.2171   -0.1377   28.7643 C.ar    1  UNL1       -0.0030
     29 C           1.5584    0.8497   27.6881 C.ar    1  UNL1       -0.0083
     30 C           2.9768    0.9888   27.2202 C.3     1  UNL1        0.0323
     31 O          -1.1815    4.4825   21.8298 O.3     1  UNL1       -0.4526
     32 C          -2.5809    4.0574   22.1629 C.ar    1  UNL1        0.1410
     33 C          -3.5094    3.6129   21.0719 C.ar    1  UNL1        0.0371
     34 C          -4.9088    3.1878   21.4050 C.ar    1  UNL1        0.0028
     35 C          -5.3797    3.2074   22.8290 C.ar    1  UNL1       -0.0044
     36 C          -4.4512    3.6519   23.9200 C.ar    1  UNL1       -0.0232
     37 C          -3.0518    4.0770   23.5870 C.ar    1  UNL1        0.0084
     38 C          -2.1233    4.5215   24.6779 C.3     1  UNL1        0.0291
     39 C          -2.5942    4.5411   26.1019 C.3     1  UNL1        0.0051
     40 C          -3.9936    4.1160   26.4350 C.3     1  UNL1        0.0050
     41 C          -4.9221    3.6715   25.3440 C.3     1  UNL1        0.0261
@<TRIPOS>UNITY_ATOM_ATTR
14 1
charge -1
@<TRIPOS>BOND
     1    16    17    1
     2    17     7    1
     3     7     8   ar
     4     8     9   ar
     5     9    10   ar
     6    10     1    1
     7     1     2   ar
     8     2     3   ar
     9     3     4   ar
    10     4    31    1
    11    31    32    1
    12    32    33   ar
    13    33    34   ar
    14    34    35   ar
    15    35    36   ar
    16    36    37   ar
    17    37    38    1
    18    38    39    1
    19    39    40    1
    20    40    41    1
    21     4     5   ar
    22     5    18    1
    23    18    19   am
    24    19    20    2
    25    19    21   am
    26    21    24    1
    27    24    25   ar
    28    25    26   ar
    29    26    27   ar
    30    27    28   ar
    31    28    29   ar
    32    29    30    1
    33     5     6   ar
    34    10    11   ar
    35    11    12   ar
    36    12    13    1
    37    13    14   ar
    38    13    15   ar
    39    12     7   ar
    40     6     1   ar
    41    37    32   ar
    42    29    24   ar
    43    41    36    1
    44    18    22    1
    45    21    23    1
@<TRIPOS>MOLECULE
*****
 41 45 0 0 0
SMALL
GASTEIGER

@<TRIPOS>ATOM
      1 C           5.6252    0.3553   34.7822 C.ar    1  UNL1        0.0014
      2 C           7.0253    0.2050   34.2654 C.ar    1  UNL1        0.0032
      3 C           7.2651   -0.4018   32.9147 C.ar    1  UNL1        0.0388
      4 C           6.1047   -0.8583   32.0809 C.ar    1  UNL1        0.1586
      5 C           4.7046   -0.7080   32.5978 C.ar    1  UNL1        0.0865
      6 C           4.4649   -0.1012   33.9484 C.ar    1  UNL1        0.0178
      7 C           4.9061    2.1757   38.8343 C.ar    1  UNL1        0.1397
      8 C           6.2589    2.2800   38.1946 C.ar    1  UNL1        0.0369
      9 C           6.4986    1.6732   36.8439 C.ar    1  UNL1        0.0031
     10 C           5.3855    0.9621   36.1329 C.ar    1  UNL1        0.0003
     11 C           4.0328    0.8578   36.7726 C.ar    1  UNL1        0.0042
     12 C           3.7931    1.4647   38.1233 C.ar    1  UNL1        0.0479
     13 C           2.4403    1.3604   38.7630 C.2     1  UNL1        0.0758
     14 O           1.3083    2.2100   38.2663 O.co2   1  UNL1       -0.5445
     15 O           2.2196    0.4065   39.8994 O.co2   1  UNL1       -0.5445
     16 C           4.4174    4.2563   40.3116 C.3     1  UNL1        0.2525
     17 O           4.6664    2.7825   40.1849 O.3     1  UNL1       -0.4714
     18 N           3.5443   -1.1644   31.7640 N.am    1  UNL1       -0.2656
     19 C           2.9963   -0.2730   30.6893 C.2     1  UNL1        0.3082
     20 O           3.6087    1.0749   30.4484 O.2     1  UNL1       -0.2521
     21 N           1.8359   -0.7295   29.8555 N.am    1  UNL1       -0.2683
     22 H           3.1423   -2.0491   31.9221 H       1  UNL1        0.1565
     23 H           1.4340   -1.6142   30.0136 H       1  UNL1        0.1564
     24 C           1.2880    0.1619   28.7808 C.ar    1  UNL1        0.0476
     25 C           0.0153    0.9212   29.0127 C.ar    1  UNL1        0.0144
     26 C          -0.5327    1.8126   27.9379 C.ar    1  UNL1        0.0013
     27 C           0.1920    1.9448   26.6313 C.ar    1  UNL1       -0.0002
     28 C           1.4647    1.1856   26.3994 C.ar    1  UNL1       -0.0030
     29 C           2.0127    0.2942   27.4741 C.ar    1  UNL1       -0.0083
     30 C           3.2854   -0.4651   27.2422 C.3     1  UNL1        0.0323
     31 O           6.3444   -1.4651   30.7302 O.3     1  UNL1       -0.4526
     32 C           6.5843   -2.9403   30.6026 C.ar    1  UNL1        0.1410
     33 C           6.7552   -3.7815   31.8326 C.ar    1  UNL1        0.0371
     34 C           6.9950   -5.2567   31.7050 C.ar    1  UNL1        0.0028
     35 C           7.0639   -5.8906   30.3473 C.ar    1  UNL1       -0.0044
     36 C           6.8930   -5.0494   29.1172 C.ar    1  UNL1       -0.0232
     37 C           6.6531   -3.5742   29.2448 C.ar    1  UNL1        0.0084
     38 C           6.4822   -2.7329   28.0148 C.3     1  UNL1        0.0291
     39 C           6.5511   -3.3669   26.6571 C.3     1  UNL1        0.0051
     40 C           6.7909   -4.8421   26.5295 C.3     1  UNL1        0.0050
     41 C           6.9619   -5.6833   27.7595 C.3     1  UNL1        0.0261
@<TRIPOS>UNITY_ATOM_ATTR
14 1
charge -1
@<TRIPOS>BOND
     1    16    17    1
     2    17     7    1
     3     7     8   ar
     4     8     9   ar
     5     9    10   ar
     6    10     1    1
     7     1     2   ar
     8     2     3   ar
     9     3     4   ar
    10     4    31    1
    11    31    32    1
    12    32    33   ar
    13    33    34   ar
    14    34    35   ar
    15    35    36   ar
    16    36    37   ar
    17    37    38    1
    18    38    39    1
    19    39    40    1
    20    40    41    1
    21     4     5   ar
    22     5    18    1
    23    18    19   am
    24    19    20    2
    25    19    21   am
    26    21    24    1
    27    24    25   ar
    28    25    26   ar
    29    26    27   ar
    30    27    28   ar
    31    28    29   ar
    32    29    30    1
    33     5     6   ar
    34    10    11   ar
    35    11    12   ar
    36    12    13    1
    37    13    14   ar
    38    13    15   ar
    39    12     7   ar
    40     6     1   ar
    41    37    32   ar
    42    29    24   ar
    43    41    36    1
    44    18    22    1
    45    21    23    1
@<TRIPOS>MOLECULE
*****
 41 45 0 0 0
SMALL
GASTEIGER

@<TRIPOS>ATOM
      1 C           2.0426    0.7750   21.3218 C.ar    1  UNL1        0.0014
      2 C           1.8533    2.0549   20.5629 C.ar    1  UNL1        0.0032
      3 C           0.9829    3.1390   21.1262 C.ar    1  UNL1        0.0388
      4 C           0.3018    2.9431   22.4482 C.ar    1  UNL1        0.1586
      5 C           0.4912    1.6631   23.2070 C.ar    1  UNL1        0.0865
      6 C           1.3615    0.5790   22.6438 C.ar    1  UNL1        0.0178
      7 C           4.6537   -2.4773   19.6321 C.ar    1  UNL1        0.1397
      8 C           4.1165   -2.5958   21.0276 C.ar    1  UNL1        0.0369
      9 C           3.2461   -1.5118   21.5908 C.ar    1  UNL1        0.0031
     10 C           2.9130   -0.3091   20.7586 C.ar    1  UNL1        0.0003
     11 C           3.4502   -0.1905   19.3631 C.ar    1  UNL1        0.0042
     12 C           4.3206   -1.2747   18.7999 C.ar    1  UNL1        0.0479
     13 C           4.8578   -1.1561   17.4044 C.2     1  UNL1        0.0758
     14 O           3.9137   -1.0715   16.2419 O.co2   1  UNL1       -0.5445
     15 O           6.3393   -1.1221   17.1715 O.co2   1  UNL1       -0.5445
     16 C           4.9309   -4.8943   18.7204 C.3     1  UNL1        0.2525
     17 O           5.5241   -3.5613   19.0689 O.3     1  UNL1       -0.4714
     18 N          -0.1899    1.4672   24.5290 N.am    1  UNL1       -0.2656
     19 C           0.6238    1.3771   25.7859 C.2     1  UNL1        0.3082
     20 O           2.1186    1.4829   25.7207 O.2     1  UNL1       -0.2521
     21 N          -0.0572    1.1812   27.1079 N.am    1  UNL1       -0.2683
     22 H          -1.1710    1.3978   24.5718 H       1  UNL1        0.1565
     23 H          -1.0384    1.1117   27.1507 H       1  UNL1        0.1564
     24 C           0.7565    1.0911   28.3647 C.ar    1  UNL1        0.0476
     25 C           1.3203   -0.2290   28.8001 C.ar    1  UNL1        0.0144
     26 C           2.1341   -0.3190   30.0570 C.ar    1  UNL1        0.0013
     27 C           2.3840    0.9109   30.8785 C.ar    1  UNL1       -0.0002
     28 C           1.8202    2.2309   30.4430 C.ar    1  UNL1       -0.0030
     29 C           1.0064    2.3211   29.1862 C.ar    1  UNL1       -0.0083
     30 C           0.4426    3.6411   28.7508 C.3     1  UNL1        0.0323
     31 O          -0.5685    4.0272   23.0114 O.3     1  UNL1       -0.4526
     32 C          -2.0594    3.8624   23.0220 C.ar    1  UNL1        0.1410
     33 C          -2.7881    3.5457   21.7498 C.ar    1  UNL1        0.0371
     34 C          -4.2790    3.3810   21.7604 C.ar    1  UNL1        0.0028
     35 C          -5.0412    3.5329   23.0433 C.ar    1  UNL1       -0.0044
     36 C          -4.3125    3.8496   24.3157 C.ar    1  UNL1       -0.0232
     37 C          -2.8217    4.0144   24.3050 C.ar    1  UNL1        0.0084
     38 C          -2.0930    4.3311   25.5773 C.3     1  UNL1        0.0291
     39 C          -2.8552    4.4830   26.8602 C.3     1  UNL1        0.0051
     40 C          -4.3461    4.3183   26.8708 C.3     1  UNL1        0.0050
     41 C          -5.0748    4.0016   25.5986 C.3     1  UNL1        0.0261
@<TRIPOS>UNITY_ATOM_ATTR
14 1
charge -1
@<TRIPOS>BOND
     1    16    17    1
     2    17     7    1
     3     7     8   ar
     4     8     9   ar
     5     9    10   ar
     6    10     1    1
     7     1     2   ar
     8     2     3   ar
     9     3     4   ar
    10     4    31    1
    11    31    32    1
    12    32    33   ar
    13    33    34   ar
    14    34    35   ar
    15    35    36   ar
    16    36    37   ar
    17    37    38    1
    18    38    39    1
    19    39    40    1
    20    40    41    1
    21     4     5   ar
    22     5    18    1
    23    18    19   am
    24    19    20    2
    25    19    21   am
    26    21    24    1
    27    24    25   ar
    28    25    26   ar
    29    26    27   ar
    30    27    28   ar
    31    28    29   ar
    32    29    30    1
    33     5     6   ar
    34    10    11   ar
    35    11    12   ar
    36    12    13    1
    37    13    14   ar
    38    13    15   ar
    39    12     7   ar
    40     6     1   ar
    41    37    32   ar
    42    29    24   ar
    43    41    36    1
    44    18    22    1
    45    21    23    1
@<TRIPOS>MOLECULE
*****
 41 45 0 0 0
SMALL
GASTEIGER

@<TRIPOS>ATOM
      1 C           1.9461    1.4708   19.6533 C.ar    1  UNL1        0.0014
      2 C           0.8955    2.0018   18.7237 C.ar    1  UNL1        0.0032
      3 C          -0.1007    3.0099   19.2152 C.ar    1  UNL1        0.0388
      4 C          -0.0462    3.4869   20.6362 C.ar    1  UNL1        0.1586
      5 C           1.0044    2.9558   21.5659 C.ar    1  UNL1        0.0865
      6 C           2.0005    1.9478   21.0744 C.ar    1  UNL1        0.0178
      7 C           4.9344   -1.5534   18.1789 C.ar    1  UNL1        0.1397
      8 C           4.9730   -0.1464   17.6602 C.ar    1  UNL1        0.0369
      9 C           3.9769    0.8616   18.1517 C.ar    1  UNL1        0.0031
     10 C           2.9422    0.4627   19.1619 C.ar    1  UNL1        0.0003
     11 C           2.9036   -0.9442   19.6805 C.ar    1  UNL1        0.0042
     12 C           3.8998   -1.9523   19.1890 C.ar    1  UNL1        0.0479
     13 C           3.8613   -3.3593   19.7076 C.2     1  UNL1        0.0758
     14 O           4.5848   -3.7121   20.9734 O.co2   1  UNL1       -0.5445
     15 O           3.0992   -4.4134   18.9605 O.co2   1  UNL1       -0.5445
     16 C           7.3180   -2.5843   18.2573 C.3     1  UNL1        0.2525
     17 O           5.9305   -2.5614   17.6874 O.3     1  UNL1       -0.4714
     18 N           1.0589    3.4328   22.9870 N.am    1  UNL1       -0.2656
     19 C           0.7743    2.4795   24.1095 C.2     1  UNL1        0.3082
     20 O           0.4352    1.0492   23.8110 O.2     1  UNL1       -0.2521
     21 N           0.8288    2.9565   25.5306 N.am    1  UNL1       -0.2683
     22 H           1.2815    4.3716   23.1829 H       1  UNL1        0.1565
     23 H           1.0513    3.8953   25.7265 H       1  UNL1        0.1564
     24 C           0.5441    2.0032   26.6532 C.ar    1  UNL1        0.0476
     25 C           1.6423    1.1411   27.2016 C.ar    1  UNL1        0.0144
     26 C           1.3576    0.1877   28.3242 C.ar    1  UNL1        0.0013
     27 C          -0.0252    0.0966   28.8983 C.ar    1  UNL1       -0.0002
     28 C          -1.1233    0.9587   28.3498 C.ar    1  UNL1       -0.0030
     29 C          -0.8387    1.9120   27.2273 C.ar    1  UNL1       -0.0083
     30 C          -1.9368    2.7741   26.6788 C.3     1  UNL1        0.0323
     31 O          -1.0423    4.4949   21.1277 O.3     1  UNL1       -0.4526
     32 C          -2.3999    4.0477   21.5825 C.ar    1  UNL1        0.1410
     33 C          -2.6526    3.7777   23.0362 C.ar    1  UNL1        0.0371
     34 C          -4.0102    3.3304   23.4910 C.ar    1  UNL1        0.0028
     35 C          -5.1151    3.1532   22.4922 C.ar    1  UNL1       -0.0044
     36 C          -4.8625    3.4232   21.0385 C.ar    1  UNL1       -0.0232
     37 C          -3.5049    3.8705   20.5836 C.ar    1  UNL1        0.0084
     38 C          -3.2522    4.1405   19.1300 C.3     1  UNL1        0.0291
     39 C          -4.3571    3.9633   18.1311 C.3     1  UNL1        0.0051
     40 C          -5.7147    3.5161   18.5860 C.3     1  UNL1        0.0050
     41 C          -5.9674    3.2460   20.0396 C.3     1  UNL1        0.0261
@<TRIPOS>UNITY_ATOM_ATTR
14 1
charge -1
@<TRIPOS>BOND
     1    16    17    1
     2    17     7    1
     3     7     8   ar
     4     8     9   ar
     5     9    10   ar
     6    10     1    1
     7     1     2   ar
     8     2     3   ar
     9     3     4   ar
    10     4    31    1
    11    31    32    1
    12    32    33   ar
    13    33    34   ar
    14    34    35   ar
    15    35    36   ar
    16    36    37   ar
    17    37    38    1
    18    38    39    1
    19    39    40    1
    20    40    41    1
    21     4     5   ar
    22     5    18    1
    23    18    19   am
    24    19    20    2
    25    19    21   am
    26    21    24    1
    27    24    25   ar
    28    25    26   ar
    29    26    27   ar
    30    27    28   ar
    31    28    29   ar
    32    29    30    1
    33     5     6   ar
    34    10    11   ar
    35    11    12   ar
    36    12    13    1
    37    13    14   ar
    38    13    15   ar
    39    12     7   ar
    40     6     1   ar
    41    37    32   ar
    42    29    24   ar
    43    41    36    1
    44    18    22    1
    45    21    23    1
@<TRIPOS>MOLECULE
*****
 41 45 0 0 0
SMALL
GASTEIGER

@<TRIPOS>ATOM
      1 C           3.9854   -0.6121   23.1118 C.ar    1  UNL1        0.0014
      2 C           5.4827   -0.6719   23.0460 C.ar    1  UNL1        0.0032
      3 C           6.2719   -1.0613   24.2608 C.ar    1  UNL1        0.0388
      4 C           5.5636   -1.3909   25.5413 C.ar    1  UNL1        0.1586
      5 C           4.0662   -1.3311   25.6070 C.ar    1  UNL1        0.0865
      6 C           3.2771   -0.9417   24.3923 C.ar    1  UNL1        0.0178
      7 C           1.6180    0.5561   19.4675 C.ar    1  UNL1        0.1397
      8 C           0.9418    0.4639   20.8032 C.ar    1  UNL1        0.0369
      9 C           1.7309    0.0745   22.0180 C.ar    1  UNL1        0.0031
     10 C           3.1963   -0.2227   21.8970 C.ar    1  UNL1        0.0003
     11 C           3.8724   -0.1305   20.5612 C.ar    1  UNL1        0.0042
     12 C           3.0833    0.2590   19.3465 C.ar    1  UNL1        0.0479
     13 C           3.7594    0.3512   18.0107 C.2     1  UNL1        0.0758
     14 O           3.4610   -0.6637   16.9473 O.co2   1  UNL1       -0.5445
     15 O           4.7341    1.4585   17.7383 O.co2   1  UNL1       -0.5445
     16 C           0.3362    2.3539   18.0981 C.3     1  UNL1        0.2525
     17 O           0.8289    0.9455   18.2527 O.3     1  UNL1       -0.4714
     18 N           3.3579   -1.6608   26.8876 N.am    1  UNL1       -0.2656
     19 C           3.0272   -0.5710   27.8637 C.2     1  UNL1        0.3082
     20 O           3.4047    0.8484   27.5593 O.2     1  UNL1       -0.2521
     21 N           2.3189   -0.9006   29.1442 N.am    1  UNL1       -0.2683
     22 H           3.1102   -2.5924   27.0873 H       1  UNL1        0.1565
     23 H           2.0712   -1.8323   29.3440 H       1  UNL1        0.1564
     24 C           1.9882    0.1891   30.1204 C.ar    1  UNL1        0.0476
     25 C           0.8928    1.1661   29.8110 C.ar    1  UNL1        0.0144
     26 C           0.5621    2.2560   30.7872 C.ar    1  UNL1        0.0013
     27 C           1.3266    2.3688   32.0727 C.ar    1  UNL1       -0.0002
     28 C           2.4220    1.3918   32.3821 C.ar    1  UNL1       -0.0030
     29 C           2.7527    0.3020   31.4060 C.ar    1  UNL1       -0.0083
     30 C           3.8481   -0.6750   31.7154 C.3     1  UNL1        0.0323
     31 O           6.3527   -1.7803   26.7561 O.3     1  UNL1       -0.4526
     32 C           6.5813   -3.2293   27.0692 C.ar    1  UNL1        0.1410
     33 C           6.7346   -4.2222   25.9554 C.ar    1  UNL1        0.0371
     34 C           6.9632   -5.6713   26.2685 C.ar    1  UNL1        0.0028
     35 C           7.0385   -6.1274   27.6954 C.ar    1  UNL1       -0.0044
     36 C           6.8852   -5.1345   28.8093 C.ar    1  UNL1       -0.0232
     37 C           6.6566   -3.6855   28.4962 C.ar    1  UNL1        0.0084
     38 C           6.5034   -2.6926   29.6100 C.3     1  UNL1        0.0291
     39 C           6.5787   -3.1487   31.0370 C.3     1  UNL1        0.0051
     40 C           6.8073   -4.5978   31.3501 C.3     1  UNL1        0.0050
     41 C           6.9606   -5.5907   30.2363 C.3     1  UNL1        0.0261
@<TRIPOS>UNITY_ATOM_ATTR
14 1
charge -1
@<TRIPOS>BOND
     1    16    17    1
     2    17     7    1
     3     7     8   ar
     4     8     9   ar
     5     9    10   ar
     6    10     1    1
     7     1     2   ar
     8     2     3   ar
     9     3     4   ar
    10     4    31    1
    11    31    32    1
    12    32    33   ar
    13    33    34   ar
    14    34    35   ar
    15    35    36   ar
    16    36    37   ar
    17    37    38    1
    18    38    39    1
    19    39    40    1
    20    40    41    1
    21     4     5   ar
    22     5    18    1
    23    18    19   am
    24    19    20    2
    25    19    21   am
    26    21    24    1
    27    24    25   ar
    28    25    26   ar
    29    26    27   ar
    30    27    28   ar
    31    28    29   ar
    32    29    30    1
    33     5     6   ar
    34    10    11   ar
    35    11    12   ar
    36    12    13    1
    37    13    14   ar
    38    13    15   ar
    39    12     7   ar
    40     6     1   ar
    41    37    32   ar
    42    29    24   ar
    43    41    36    1
    44    18    22    1
    45    21    23    1
@<TRIPOS>MOLECULE
*****
 41 45 0 0 0
SMALL
GASTEIGER

@<TRIPOS>ATOM
      1 C           3.8266   -0.5189   26.8636 C.ar    1  UNL1        0.0014
      2 C           4.9184   -0.2947   27.8675 C.ar    1  UNL1        0.0032
      3 C           6.2094   -1.0498   27.7527 C.ar    1  UNL1        0.0388
      4 C           6.4086   -2.0291   26.6340 C.ar    1  UNL1        0.1586
      5 C           5.3167   -2.2532   25.6302 C.ar    1  UNL1        0.0865
      6 C           4.0258   -1.4981   25.7450 C.ar    1  UNL1        0.0178
      7 C          -0.0463    1.7464   27.2081 C.ar    1  UNL1        0.1397
      8 C           0.7711    1.8448   25.9543 C.ar    1  UNL1        0.0369
      9 C           2.0621    1.0897   25.8394 C.ar    1  UNL1        0.0031
     10 C           2.5357    0.2362   26.9785 C.ar    1  UNL1        0.0003
     11 C           1.7182    0.1378   28.2323 C.ar    1  UNL1        0.0042
     12 C           0.4272    0.8930   28.3471 C.ar    1  UNL1        0.0479
     13 C          -0.3903    0.7946   29.6009 C.2     1  UNL1        0.0758
     14 O           0.0262    1.5487   30.8289 O.co2   1  UNL1       -0.5445
     15 O          -1.6243   -0.0579   29.6268 O.co2   1  UNL1       -0.5445
     16 C          -1.7617    3.4326   26.2261 C.3     1  UNL1        0.2525
     17 O          -1.3373    2.5015   27.3229 O.3     1  UNL1       -0.4714
     18 N           5.5159   -3.2325   24.5115 N.am    1  UNL1       -0.2656
     19 C           5.7952   -2.7384   23.1231 C.2     1  UNL1        0.3082
     20 O           5.8753   -1.2651   22.8533 O.2     1  UNL1       -0.2521
     21 N           5.9943   -3.7177   22.0044 N.am    1  UNL1       -0.2683
     22 H           5.4633   -4.1995   24.6886 H       1  UNL1        0.1565
     23 H           5.9418   -4.6847   22.1815 H       1  UNL1        0.1564
     24 C           6.2736   -3.2236   20.6160 C.ar    1  UNL1        0.0476
     25 C           7.6251   -2.6694   20.2747 C.ar    1  UNL1        0.0144
     26 C           7.9043   -2.1753   18.8862 C.ar    1  UNL1        0.0013
     27 C           6.8321   -2.2355   17.8389 C.ar    1  UNL1       -0.0002
     28 C           5.4807   -2.7897   18.1802 C.ar    1  UNL1       -0.0030
     29 C           5.2014   -3.2838   19.5686 C.ar    1  UNL1       -0.0083
     30 C           3.8499   -3.8380   19.9098 C.3     1  UNL1        0.0323
     31 O           7.6996   -2.7842   26.5192 O.3     1  UNL1       -0.4526
     32 C           7.7971   -4.1867   27.0419 C.ar    1  UNL1        0.1410
     33 C           7.6072   -4.4568   28.5051 C.ar    1  UNL1        0.0371
     34 C           7.7048   -5.8593   29.0278 C.ar    1  UNL1        0.0028
     35 C           7.9922   -6.9919   28.0873 C.ar    1  UNL1       -0.0044
     36 C           8.1822   -6.7220   26.6240 C.ar    1  UNL1       -0.0232
     37 C           8.0846   -5.3194   26.1013 C.ar    1  UNL1        0.0084
     38 C           8.2745   -5.0493   24.6381 C.3     1  UNL1        0.0291
     39 C           8.5620   -6.1819   23.6976 C.3     1  UNL1        0.0051
     40 C           8.6596   -7.5845   24.2203 C.3     1  UNL1        0.0050
     41 C           8.4697   -7.8545   25.6835 C.3     1  UNL1        0.0261
@<TRIPOS>UNITY_ATOM_ATTR
14 1
charge -1
@<TRIPOS>BOND
     1    16    17    1
     2    17     7    1
     3     7     8   ar
     4     8     9   ar
     5     9    10   ar
     6    10     1    1
     7     1     2   ar
     8     2     3   ar
     9     3     4   ar
    10     4    31    1
    11    31    32    1
    12    32    33   ar
    13    33    34   ar
    14    34    35   ar
    15    35    36   ar
    16    36    37   ar
    17    37    38    1
    18    38    39    1
    19    39    40    1
    20    40    41    1
    21     4     5   ar
    22     5    18    1
    23    18    19   am
    24    19    20    2
    25    19    21   am
    26    21    24    1
    27    24    25   ar
    28    25    26   ar
    29    26    27   ar
    30    27    28   ar
    31    28    29   ar
    32    29    30    1
    33     5     6   ar
    34    10    11   ar
    35    11    12   ar
    36    12    13    1
    37    13    14   ar
    38    13    15   ar
    39    12     7   ar
    40     6     1   ar
    41    37    32   ar
    42    29    24   ar
    43    41    36    1
    44    18    22    1
    45    21    23    1
@<TRIPOS>MOLECULE
*****
 41 45 0 0 0
SMALL
GASTEIGER

@<TRIPOS>ATOM
      1 C           5.2063   -1.1078   28.2192 C.ar    1  UNL1        0.0014
      2 C           6.1715   -2.0253   28.9094 C.ar    1  UNL1        0.0032
      3 C           7.3019   -2.6416   28.1395 C.ar    1  UNL1        0.0388
      4 C           7.4669   -2.3402   26.6794 C.ar    1  UNL1        0.1586
      5 C           6.5016   -1.4226   25.9892 C.ar    1  UNL1        0.0865
      6 C           5.3713   -0.8065   26.7591 C.ar    1  UNL1        0.0178
      7 C           1.8156    0.7408   30.5291 C.ar    1  UNL1        0.1397
      8 C           3.2095    0.7814   31.0817 C.ar    1  UNL1        0.0369
      9 C           4.3397    0.1652   30.3117 C.ar    1  UNL1        0.0031
     10 C           4.0761   -0.4916   28.9892 C.ar    1  UNL1        0.0003
     11 C           2.6822   -0.5322   28.4366 C.ar    1  UNL1        0.0042
     12 C           1.5519    0.0840   29.2066 C.ar    1  UNL1        0.0479
     13 C           0.1580    0.0434   28.6540 C.2     1  UNL1        0.0758
     14 O          -0.8993   -0.7662   29.3445 O.co2   1  UNL1       -0.5445
     15 O          -0.1787    0.8123   27.4108 O.co2   1  UNL1       -0.5445
     16 C           0.9511    2.4947   32.2398 C.3     1  UNL1        0.2525
     17 O           0.6853    1.3569   31.2990 O.3     1  UNL1       -0.4714
     18 N           6.6666   -1.1213   24.5291 N.am    1  UNL1       -0.2656
     19 C           5.8949   -1.9054   23.5095 C.2     1  UNL1        0.3082
     20 O           4.9582   -2.9909   23.9501 O.2     1  UNL1       -0.2521
     21 N           6.0599   -1.6041   22.0494 N.am    1  UNL1       -0.2683
     22 H           7.2814   -0.4088   24.2399 H       1  UNL1        0.1565
     23 H           6.6747   -0.8916   21.7603 H       1  UNL1        0.1564
     24 C           5.2882   -2.3882   21.0299 C.ar    1  UNL1        0.0476
     25 C           5.8673   -3.6477   20.4568 C.ar    1  UNL1        0.0144
     26 C           5.0955   -4.4319   19.4372 C.ar    1  UNL1        0.0013
     27 C           3.7447   -3.9565   18.9907 C.ar    1  UNL1       -0.0002
     28 C           3.1656   -2.6970   19.5638 C.ar    1  UNL1       -0.0030
     29 C           3.9373   -1.9129   20.5833 C.ar    1  UNL1       -0.0083
     30 C           3.3583   -0.6534   21.1564 C.3     1  UNL1        0.0323
     31 O           8.5971   -2.9564   25.9095 O.3     1  UNL1       -0.4526
     32 C           8.4404   -4.3234   25.3122 C.ar    1  UNL1        0.1410
     33 C           8.0106   -5.4735   26.1737 C.ar    1  UNL1        0.0371
     34 C           7.8538   -6.8405   25.5764 C.ar    1  UNL1        0.0028
     35 C           8.1268   -7.0573   24.1175 C.ar    1  UNL1       -0.0044
     36 C           8.5566   -5.9071   23.2558 C.ar    1  UNL1       -0.0232
     37 C           8.7134   -4.5401   23.8532 C.ar    1  UNL1        0.0084
     38 C           9.1432   -3.3900   22.9916 C.3     1  UNL1        0.0291
     39 C           9.4162   -3.6068   21.5327 C.3     1  UNL1        0.0051
     40 C           9.2594   -4.9738   20.9354 C.3     1  UNL1        0.0050
     41 C           8.8296   -6.1239   21.7970 C.3     1  UNL1        0.0261
@<TRIPOS>UNITY_ATOM_ATTR
14 1
charge -1
@<TRIPOS>BOND
     1    16    17    1
     2    17     7    1
     3     7     8   ar
     4     8     9   ar
     5     9    10   ar
     6    10     1    1
     7     1     2   ar
     8     2     3   ar
     9     3     4   ar
    10     4    31    1
    11    31    32    1
    12    32    33   ar
    13    33    34   ar
    14    34    35   ar
    15    35    36   ar
    16    36    37   ar
    17    37    38    1
    18    38    39    1
    19    39    40    1
    20    40    41    1
    21     4     5   ar
    22     5    18    1
    23    18    19   am
    24    19    20    2
    25    19    21   am
    26    21    24    1
    27    24    25   ar
    28    25    26   ar
    29    26    27   ar
    30    27    28   ar
    31    28    29   ar
    32    29    30    1
    33     5     6   ar
    34    10    11   ar
    35    11    12   ar
    36    12    13    1
    37    13    14   ar
    38    13    15   ar
    39    12     7   ar
    40     6     1   ar
    41    37    32   ar
    42    29    24   ar
    43    41    36    1
    44    18    22    1
    45    21    23    1
@<TRIPOS>MOLECULE
*****
 41 45 0 0 0
SMALL
GASTEIGER

@<TRIPOS>ATOM
      1 C           4.5670    0.3703   34.1807 C.ar    1  UNL1        0.0014
      2 C           6.0351    0.2072   33.9198 C.ar    1  UNL1        0.0032
      3 C           6.5051   -0.3944   32.6286 C.ar    1  UNL1        0.0388
      4 C           5.5070   -0.8329   31.5983 C.ar    1  UNL1        0.1586
      5 C           4.0388   -0.6697   31.8592 C.ar    1  UNL1        0.0865
      6 C           3.5689   -0.0682   33.1504 C.ar    1  UNL1        0.0178
      7 C           3.1571    2.1750   38.0543 C.ar    1  UNL1        0.1397
      8 C           3.7871    0.8137   38.0466 C.ar    1  UNL1        0.0369
      9 C           4.2571    0.2122   36.7554 C.ar    1  UNL1        0.0031
     10 C           4.0970    0.9719   35.4719 C.ar    1  UNL1        0.0003
     11 C           3.4671    2.3331   35.4796 C.ar    1  UNL1        0.0042
     12 C           2.9971    2.9347   36.7709 C.ar    1  UNL1        0.0479
     13 C           2.3671    4.2960   36.7787 C.2     1  UNL1        0.0758
     14 O           3.2166    5.5167   36.5832 O.co2   1  UNL1       -0.5445
     15 O           0.8876    4.4365   36.9820 O.co2   1  UNL1       -0.5445
     16 C           1.3157    2.4610   39.8647 C.3     1  UNL1        0.2525
     17 O           2.6872    2.7766   39.3455 O.3     1  UNL1       -0.4714
     18 N           3.0407   -1.1082   30.8289 N.am    1  UNL1       -0.2656
     19 C           2.4068   -0.0967   29.9206 C.2     1  UNL1        0.3082
     20 O           2.7710    1.3533   30.0427 O.2     1  UNL1       -0.2521
     21 N           1.4087   -0.5352   28.8903 N.am    1  UNL1       -0.2683
     22 H           2.8017   -2.0599   30.7488 H       1  UNL1        0.1565
     23 H           1.1697   -1.4868   28.8103 H       1  UNL1        0.1564
     24 C           0.7748    0.4763   27.9821 C.ar    1  UNL1        0.0476
     25 C           1.5922    1.1433   26.9158 C.ar    1  UNL1        0.0144
     26 C           0.9582    2.1549   26.0075 C.ar    1  UNL1        0.0013
     27 C          -0.4931    2.4994   26.1655 C.ar    1  UNL1       -0.0002
     28 C          -1.3105    1.8324   27.2318 C.ar    1  UNL1       -0.0030
     29 C          -0.6766    0.8209   28.1401 C.ar    1  UNL1       -0.0083
     30 C          -1.4940    0.1539   29.2064 C.3     1  UNL1        0.0323
     31 O           5.9769   -1.4344   30.3071 O.3     1  UNL1       -0.4526
     32 C           6.3506   -2.8860   30.2480 C.ar    1  UNL1        0.1410
     33 C           6.5374   -3.6645   31.5164 C.ar    1  UNL1        0.0371
     34 C           6.9110   -5.1160   31.4574 C.ar    1  UNL1        0.0028
     35 C           7.0978   -5.7890   30.1300 C.ar    1  UNL1       -0.0044
     36 C           6.9109   -5.0105   28.8615 C.ar    1  UNL1       -0.0232
     37 C           6.5373   -3.5589   28.9205 C.ar    1  UNL1        0.0084
     38 C           6.3505   -2.7804   27.6521 C.3     1  UNL1        0.0291
     39 C           6.5372   -3.4534   26.3246 C.3     1  UNL1        0.0051
     40 C           6.9108   -4.9049   26.2656 C.3     1  UNL1        0.0050
     41 C           7.0977   -5.6835   27.5340 C.3     1  UNL1        0.0261
@<TRIPOS>UNITY_ATOM_ATTR
14 1
charge -1
@<TRIPOS>BOND
     1    16    17    1
     2    17     7    1
     3     7     8   ar
     4     8     9   ar
     5     9    10   ar
     6    10     1    1
     7     1     2   ar
     8     2     3   ar
     9     3     4   ar
    10     4    31    1
    11    31    32    1
    12    32    33   ar
    13    33    34   ar
    14    34    35   ar
    15    35    36   ar
    16    36    37   ar
    17    37    38    1
    18    38    39    1
    19    39    40    1
    20    40    41    1
    21     4     5   ar
    22     5    18    1
    23    18    19   am
    24    19    20    2
    25    19    21   am
    26    21    24    1
    27    24    25   ar
    28    25    26   ar
    29    26    27   ar
    30    27    28   ar
    31    28    29   ar
    32    29    30    1
    33     5     6   ar
    34    10    11   ar
    35    11    12   ar
    36    12    13    1
    37    13    14   ar
    38    13    15   ar
    39    12     7   ar
    40     6     1   ar
    41    37    32   ar
    42    29    24   ar
    43    41    36    1
    44    18    22    1
    45    21    23    1
@<TRIPOS>MOLECULE
*****
 41 45 0 0 0
SMALL
GASTEIGER

@<TRIPOS>ATOM
      1 C           3.2384   -0.3230   23.0578 C.ar    1  UNL1        0.0014
      2 C           1.9143    0.3721   22.9409 C.ar    1  UNL1        0.0032
      3 C           1.4499    1.2894   24.0331 C.ar    1  UNL1        0.0388
      4 C           2.3095    1.5116   25.2422 C.ar    1  UNL1        0.1586
      5 C           3.6336    0.8164   25.3590 C.ar    1  UNL1        0.0865
      6 C           4.0980   -0.1009   24.2668 C.ar    1  UNL1        0.0178
      7 C           4.6317   -3.0749   19.7812 C.ar    1  UNL1        0.1397
      8 C           4.5240   -3.5798   21.1896 C.ar    1  UNL1        0.0369
      9 C           4.0596   -2.6626   22.2818 C.ar    1  UNL1        0.0031
     10 C           3.7028   -1.2403   21.9656 C.ar    1  UNL1        0.0003
     11 C           3.8104   -0.7354   20.5573 C.ar    1  UNL1        0.0042
     12 C           4.2749   -1.6527   19.4651 C.ar    1  UNL1        0.0479
     13 C           4.3825   -1.1478   18.0567 C.2     1  UNL1        0.0758
     14 O           3.1855   -0.5461   17.3821 O.co2   1  UNL1       -0.5445
     15 O           5.6873   -1.2445   17.3229 O.co2   1  UNL1       -0.5445
     16 C           4.6520   -5.4249   18.6734 C.3     1  UNL1        0.2525
     17 O           5.0961   -3.9922   18.6891 O.3     1  UNL1       -0.4714
     18 N           4.4932    1.0385   26.5680 N.am    1  UNL1       -0.2656
     19 C           4.3253    0.1678   27.7778 C.2     1  UNL1        0.3082
     20 O           3.2979   -0.9250   27.7786 O.2     1  UNL1       -0.2521
     21 N           5.1849    0.3899   28.9868 N.am    1  UNL1       -0.2683
     22 H           5.1675    1.7558   26.5675 H       1  UNL1        0.1565
     23 H           5.8593    1.1072   28.9863 H       1  UNL1        0.1564
     24 C           5.0171   -0.4807   30.1966 C.ar    1  UNL1        0.0476
     25 C           3.9858   -0.1377   31.2304 C.ar    1  UNL1        0.0144
     26 C           3.8180   -1.0084   32.4402 C.ar    1  UNL1        0.0013
     27 C           4.6815   -2.2222   32.6163 C.ar    1  UNL1       -0.0002
     28 C           5.7128   -2.5653   31.5825 C.ar    1  UNL1       -0.0030
     29 C           5.8806   -1.6946   30.3727 C.ar    1  UNL1       -0.0083
     30 C           6.9119   -2.0377   29.3389 C.3     1  UNL1        0.0323
     31 O           1.8450    2.4288   26.3343 O.3     1  UNL1       -0.4526
     32 C           1.0142    1.8920   27.4619 C.ar    1  UNL1        0.1410
     33 C          -0.1651    1.0117   27.1716 C.ar    1  UNL1        0.0371
     34 C          -0.9960    0.4749   28.2992 C.ar    1  UNL1        0.0028
     35 C          -0.6476    0.8184   29.7171 C.ar    1  UNL1       -0.0044
     36 C           0.5318    1.6987   30.0075 C.ar    1  UNL1       -0.0232
     37 C           1.3627    2.2355   28.8799 C.ar    1  UNL1        0.0084
     38 C           2.5420    3.1158   29.1703 C.3     1  UNL1        0.0291
     39 C           2.8904    3.4592   30.5882 C.3     1  UNL1        0.0051
     40 C           2.0595    2.9224   31.7158 C.3     1  UNL1        0.0050
     41 C           0.8802    2.0421   31.4255 C.3     1  UNL1        0.0261
@<TRIPOS>UNITY_ATOM_ATTR
14 1
charge -1
@<TRIPOS>BOND
     1    16    17    1
     2    17     7    1
     3     7     8   ar
     4     8     9   ar
     5     9    10   ar
     6    10     1    1
     7     1     2   ar
     8     2     3   ar
     9     3     4   ar
    10     4    31    1
    11    31    32    1
    12    32    33   ar
    13    33    34   ar
    14    34    35   ar
    15    35    36   ar
    16    36    37   ar
    17    37    38    1
    18    38    39    1
    19    39    40    1
    20    40    41    1
    21     4     5   ar
    22     5    18    1
    23    18    19   am
    24    19    20    2
    25    19    21   am
    26    21    24    1
    27    24    25   ar
    28    25    26   ar
    29    26    27   ar
    30    27    28   ar
    31    28    29   ar
    32    29    30    1
    33     5     6   ar
    34    10    11   ar
    35    11    12   ar
    36    12    13    1
    37    13    14   ar
    38    13    15   ar
    39    12     7   ar
    40     6     1   ar
    41    37    32   ar
    42    29    24   ar
    43    41    36    1
    44    18    22    1
    45    21    23    1
