@<TRIPOS>MOLECULE
*****
 17 17 0 0 0
SMALL
GASTEIGER

@<TRIPOS>ATOM
      1 C         -10.1018  -19.3289   22.3461 C.ar    1  UNL1        0.1386
      2 C         -10.1338  -19.6114   20.8733 C.ar    1  UNL1        0.0382
      3 C          -8.9150  -19.3621   20.0352 C.ar    1  UNL1        0.0178
      4 C          -7.6642  -18.8304   20.6698 C.ar    1  UNL1        0.0497
      5 C          -7.6322  -18.5480   22.1426 C.ar    1  UNL1        0.0178
      6 C          -8.8510  -18.7972   22.9807 C.ar    1  UNL1        0.0382
      7 N          -6.4455  -18.5812   19.8316 N.pl3   1  UNL1       -0.2930
      8 H          -6.5001  -17.9884   19.0475 H       1  UNL1        0.1538
      9 C          -5.1435  -19.2352   20.1882 C.2     1  UNL1        0.2056
     10 N          -3.8514  -18.6470   19.7039 N.2     1  UNL1       -0.0679
     11 O          -3.8613  -17.4048   18.8632 O.2     1  UNL1       -0.4077
     12 H          -3.0541  -17.0374   18.5607 H       1  UNL1        0.3278
     13 O         -11.3205  -19.5781   23.1843 O.3     1  UNL1       -0.4755
     14 C         -11.9980  -18.4356   23.8811 C.3     1  UNL1        0.2054
     15 C         -12.9460  -17.5522   23.1255 C.3     1  UNL1        0.0473
     16 C         -12.0229  -16.4028   20.9861 C.3     1  UNL1        0.0001
     17 C         -12.4344  -16.3275   22.4266 C.3     1  UNL1        0.0038
@<TRIPOS>BOND
     1    16    17    1
     2    17    15    1
     3    15    14    1
     4    14    13    1
     5    13     1    1
     6     1     2   ar
     7     2     3   ar
     8     3     4   ar
     9     4     7    1
    10     7     9    1
    11     9    10    2
    12    10    11    1
    13     4     5   ar
    14     5     6   ar
    15     6     1   ar
    16     7     8    1
    17    11    12    1
@<TRIPOS>MOLECULE
*****
 17 17 0 0 0
SMALL
GASTEIGER

@<TRIPOS>ATOM
      1 C          -7.7979  -18.3461   22.5904 C.ar    1  UNL1        0.1386
      2 C          -8.4558  -19.6886   22.7125 C.ar    1  UNL1        0.0382
      3 C          -9.7710  -19.8175   23.4221 C.ar    1  UNL1        0.0178
      4 C         -10.4284  -18.6040   24.0096 C.ar    1  UNL1        0.0497
      5 C          -9.7705  -17.2615   23.8875 C.ar    1  UNL1        0.0178
      6 C          -8.4553  -17.1326   23.1779 C.ar    1  UNL1        0.0382
      7 N         -11.7436  -18.7330   24.7192 N.pl3   1  UNL1       -0.2930
      8 H         -11.7781  -19.1128   25.6268 H       1  UNL1        0.1538
      9 C         -13.0063  -18.2832   24.0459 C.2     1  UNL1        0.2056
     10 N         -14.2979  -18.2666   24.8084 N.2     1  UNL1       -0.0679
     11 O         -14.3269  -18.6996   26.2442 O.2     1  UNL1       -0.4077
     12 H         -15.1337  -18.6892   26.7205 H       1  UNL1        0.3278
     13 O          -6.4827  -18.2172   21.8808 O.3     1  UNL1       -0.4755
     14 C          -5.5298  -19.3752   21.8512 C.3     1  UNL1        0.2054
     15 C          -5.1740  -20.0205   20.5447 C.3     1  UNL1        0.0473
     16 C          -2.6524  -19.8566   21.1488 C.3     1  UNL1        0.0001
     17 C          -3.7344  -20.2324   20.1802 C.3     1  UNL1        0.0038
@<TRIPOS>BOND
     1    16    17    1
     2    17    15    1
     3    15    14    1
     4    14    13    1
     5    13     1    1
     6     1     2   ar
     7     2     3   ar
     8     3     4   ar
     9     4     7    1
    10     7     9    1
    11     9    10    2
    12    10    11    1
    13     4     5   ar
    14     5     6   ar
    15     6     1   ar
    16     7     8    1
    17    11    12    1
@<TRIPOS>MOLECULE
*****
 17 17 0 0 0
SMALL
GASTEIGER

@<TRIPOS>ATOM
      1 C          -8.2408  -18.9189   22.4940 C.ar    1  UNL1        0.1386
      2 C          -8.7815  -20.1653   23.1295 C.ar    1  UNL1        0.0382
      3 C         -10.0463  -20.1090   23.9341 C.ar    1  UNL1        0.0178
      4 C         -10.7702  -18.8062   24.1032 C.ar    1  UNL1        0.0497
      5 C         -10.2294  -17.5598   23.4677 C.ar    1  UNL1        0.0178
      6 C          -8.9647  -17.6161   22.6631 C.ar    1  UNL1        0.0382
      7 N         -12.0349  -18.7499   24.9077 N.pl3   1  UNL1       -0.2930
      8 H         -12.0114  -18.9315   25.8751 H       1  UNL1        0.1538
      9 C         -13.3353  -18.4168   24.2385 C.2     1  UNL1        0.2056
     10 N         -14.6107  -18.4326   25.0279 N.2     1  UNL1       -0.0679
     11 O         -14.5857  -18.7815   26.4865 O.2     1  UNL1       -0.4077
     12 H         -15.3823  -18.7914   26.9796 H       1  UNL1        0.3278
     13 O          -6.9761  -18.9753   21.6894 O.3     1  UNL1       -0.4755
     14 C          -6.9651  -19.6631   20.3565 C.3     1  UNL1        0.2054
     15 C          -7.9895  -19.3069   19.3203 C.3     1  UNL1        0.0473
     16 C         -10.5705  -19.2520   19.6126 C.3     1  UNL1        0.0001
     17 C          -9.3142  -20.0105   19.3023 C.3     1  UNL1        0.0038
@<TRIPOS>BOND
     1    16    17    1
     2    17    15    1
     3    15    14    1
     4    14    13    1
     5    13     1    1
     6     1     2   ar
     7     2     3   ar
     8     3     4   ar
     9     4     7    1
    10     7     9    1
    11     9    10    2
    12    10    11    1
    13     4     5   ar
    14     5     6   ar
    15     6     1   ar
    16     7     8    1
    17    11    12    1
@<TRIPOS>MOLECULE
*****
 17 17 0 0 0
SMALL
GASTEIGER

@<TRIPOS>ATOM
      1 C          -7.3101  -16.8722   23.1433 C.ar    1  UNL1        0.1386
      2 C          -8.4880  -16.1585   23.7375 C.ar    1  UNL1        0.0382
      3 C          -9.8754  -16.6801   23.5069 C.ar    1  UNL1        0.0178
      4 C         -10.0848  -17.9154   22.6822 C.ar    1  UNL1        0.0497
      5 C          -8.9068  -18.6291   22.0881 C.ar    1  UNL1        0.0178
      6 C          -7.5195  -18.1075   22.3187 C.ar    1  UNL1        0.0382
      7 N         -11.4721  -18.4371   22.4516 N.pl3   1  UNL1       -0.2930
      8 H         -11.6540  -19.4018   22.5261 H       1  UNL1        0.1538
      9 C         -12.5823  -17.4889   22.1076 C.2     1  UNL1        0.2056
     10 N         -12.7161  -16.9670   20.7078 N.2     1  UNL1       -0.0679
     11 O         -11.7397  -17.3931   19.6519 O.2     1  UNL1       -0.4077
     12 H         -11.8233  -17.0671   18.7774 H       1  UNL1        0.3278
     13 O          -5.9227  -16.3505   23.3739 O.3     1  UNL1       -0.4755
     14 C          -5.6803  -15.2990   24.4158 C.3     1  UNL1        0.2054
     15 C          -5.4767  -15.6952   25.8481 C.3     1  UNL1        0.0473
     16 C          -7.5697  -16.0918   27.3355 C.3     1  UNL1        0.0001
     17 C          -6.4313  -15.2167   26.9016 C.3     1  UNL1        0.0038
@<TRIPOS>BOND
     1    16    17    1
     2    17    15    1
     3    15    14    1
     4    14    13    1
     5    13     1    1
     6     1     2   ar
     7     2     3   ar
     8     3     4   ar
     9     4     7    1
    10     7     9    1
    11     9    10    2
    12    10    11    1
    13     4     5   ar
    14     5     6   ar
    15     6     1   ar
    16     7     8    1
    17    11    12    1
@<TRIPOS>MOLECULE
*****
 17 17 0 0 0
SMALL
GASTEIGER

@<TRIPOS>ATOM
      1 C          -7.9252  -18.8867   20.4841 C.ar    1  UNL1        0.1386
      2 C          -6.8680  -19.8734   20.0860 C.ar    1  UNL1        0.0382
      3 C          -5.6094  -19.9909   20.8935 C.ar    1  UNL1        0.0178
      4 C          -5.4080  -19.1216   22.0992 C.ar    1  UNL1        0.0497
      5 C          -6.4652  -18.1349   22.4973 C.ar    1  UNL1        0.0178
      6 C          -7.7238  -18.0174   21.6898 C.ar    1  UNL1        0.0382
      7 N          -4.1494  -19.2390   22.9067 N.pl3   1  UNL1       -0.2930
      8 H          -4.1051  -19.8712   23.6601 H       1  UNL1        0.1538
      9 C          -2.9582  -18.3933   22.5663 C.2     1  UNL1        0.2056
     10 N          -1.8066  -18.9887   21.8118 N.2     1  UNL1       -0.0679
     11 O          -1.8461  -20.4298   21.3977 O.2     1  UNL1       -0.4077
     12 H          -1.1267  -20.8018   20.9264 H       1  UNL1        0.3278
     13 O          -9.1838  -18.7693   19.6766 O.3     1  UNL1       -0.4755
     14 C         -10.3305  -19.7009   19.9352 C.3     1  UNL1        0.2054
     15 C         -11.2003  -19.5031   21.1412 C.3     1  UNL1        0.0473
     16 C         -10.6145  -19.3168   23.6655 C.3     1  UNL1        0.0001
     17 C         -10.8382  -20.1558   22.4424 C.3     1  UNL1        0.0038
@<TRIPOS>BOND
     1    16    17    1
     2    17    15    1
     3    15    14    1
     4    14    13    1
     5    13     1    1
     6     1     2   ar
     7     2     3   ar
     8     3     4   ar
     9     4     7    1
    10     7     9    1
    11     9    10    2
    12    10    11    1
    13     4     5   ar
    14     5     6   ar
    15     6     1   ar
    16     7     8    1
    17    11    12    1
@<TRIPOS>MOLECULE
*****
 17 17 0 0 0
SMALL
GASTEIGER

@<TRIPOS>ATOM
      1 C           4.8108  -12.4303   27.9171 C.ar    1  UNL1        0.1386
      2 C           4.3619  -13.5112   26.9791 C.ar    1  UNL1        0.0382
      3 C           3.1183  -14.2949   27.2779 C.ar    1  UNL1        0.0178
      4 C           2.3236  -13.9977   28.5148 C.ar    1  UNL1        0.0497
      5 C           2.7725  -12.9167   29.4529 C.ar    1  UNL1        0.0178
      6 C           4.0161  -12.1330   29.1541 C.ar    1  UNL1        0.0382
      7 N           1.0800  -14.7814   28.8137 N.pl3   1  UNL1       -0.2930
      8 H           0.3407  -14.3611   29.3096 H       1  UNL1        0.1538
      9 C           0.9630  -16.2053   28.3569 C.2     1  UNL1        0.2056
     10 N           1.7249  -17.2855   29.0660 N.2     1  UNL1       -0.0679
     11 O           2.6038  -16.9417   30.2318 O.2     1  UNL1       -0.4077
     12 H           3.0798  -17.6164   30.6747 H       1  UNL1        0.3278
     13 O           6.0544  -11.6466   27.6183 O.3     1  UNL1       -0.4755
     14 C           7.3700  -12.0791   28.1944 C.3     1  UNL1        0.2054
     15 C           7.4349  -13.2684   29.1062 C.3     1  UNL1        0.0473
     16 C           8.8054  -15.1751   30.2181 C.3     1  UNL1        0.0001
     17 C           8.7116  -14.0451   29.2361 C.3     1  UNL1        0.0038
@<TRIPOS>BOND
     1    16    17    1
     2    17    15    1
     3    15    14    1
     4    14    13    1
     5    13     1    1
     6     1     2   ar
     7     2     3   ar
     8     3     4   ar
     9     4     7    1
    10     7     9    1
    11     9    10    2
    12    10    11    1
    13     4     5   ar
    14     5     6   ar
    15     6     1   ar
    16     7     8    1
    17    11    12    1
@<TRIPOS>MOLECULE
*****
 17 17 0 0 0
SMALL
GASTEIGER

@<TRIPOS>ATOM
      1 C          -7.4586  -18.6789   21.8873 C.ar    1  UNL1        0.1386
      2 C          -7.4040  -17.3331   22.5473 C.ar    1  UNL1        0.0382
      3 C          -8.5846  -16.4110   22.4692 C.ar    1  UNL1        0.0178
      4 C          -9.8197  -16.8349   21.7312 C.ar    1  UNL1        0.0497
      5 C          -9.8743  -18.1807   21.0712 C.ar    1  UNL1        0.0178
      6 C          -8.6937  -19.1028   21.1493 C.ar    1  UNL1        0.0382
      7 N         -11.0003  -15.9128   21.6532 N.pl3   1  UNL1       -0.2930
      8 H         -11.0411  -15.1155   22.2293 H       1  UNL1        0.1538
      9 C         -12.1187  -16.2056   20.6974 C.2     1  UNL1        0.2056
     10 N         -12.0272  -15.7460   19.2725 N.2     1  UNL1       -0.0679
     11 O         -10.8173  -14.9936   18.8033 O.2     1  UNL1       -0.4077
     12 H         -10.7602  -14.7065   17.9132 H       1  UNL1        0.3278
     13 O          -6.2780  -19.6009   21.9654 O.3     1  UNL1       -0.4755
     14 C          -5.7293  -20.2243   20.7162 C.3     1  UNL1        0.2054
     15 C          -4.5722  -19.5870   20.0058 C.3     1  UNL1        0.0473
     16 C          -2.5187  -19.6823   21.5946 C.3     1  UNL1        0.0001
     17 C          -3.5038  -18.8858   20.7914 C.3     1  UNL1        0.0038
@<TRIPOS>BOND
     1    16    17    1
     2    17    15    1
     3    15    14    1
     4    14    13    1
     5    13     1    1
     6     1     2   ar
     7     2     3   ar
     8     3     4   ar
     9     4     7    1
    10     7     9    1
    11     9    10    2
    12    10    11    1
    13     4     5   ar
    14     5     6   ar
    15     6     1   ar
    16     7     8    1
    17    11    12    1
@<TRIPOS>MOLECULE
*****
 17 17 0 0 0
SMALL
GASTEIGER

@<TRIPOS>ATOM
      1 C          -6.4366  -19.8455   21.6102 C.ar    1  UNL1        0.1386
      2 C          -5.6357  -18.8806   22.4332 C.ar    1  UNL1        0.0382
      3 C          -4.1779  -18.6780   22.1439 C.ar    1  UNL1        0.0178
      4 C          -3.5210  -19.4403   21.0315 C.ar    1  UNL1        0.0497
      5 C          -4.3219  -20.4052   20.2085 C.ar    1  UNL1        0.0178
      6 C          -5.7797  -20.6078   20.4978 C.ar    1  UNL1        0.0382
      7 N          -2.0632  -19.2376   20.7422 N.pl3   1  UNL1       -0.2930
      8 H          -1.3848  -19.5817   21.3672 H       1  UNL1        0.1538
      9 C          -1.6389  -18.5108   19.5006 C.2     1  UNL1        0.2056
     10 N          -0.2439  -17.9714   19.3870 N.2     1  UNL1       -0.0679
     11 O           0.7269  -18.1588   20.5150 O.2     1  UNL1       -0.4077
     12 H           1.5983  -17.8219   20.4440 H       1  UNL1        0.3278
     13 O          -7.8944  -20.0482   21.8995 O.3     1  UNL1       -0.4755
     14 C          -8.9159  -19.1463   21.2726 C.3     1  UNL1        0.2054
     15 C         -10.3455  -19.2049   21.7230 C.3     1  UNL1        0.0473
     16 C         -12.5260  -17.8081   21.5115 C.3     1  UNL1        0.0001
     17 C         -11.4249  -18.6022   20.8734 C.3     1  UNL1        0.0038
@<TRIPOS>BOND
     1    16    17    1
     2    17    15    1
     3    15    14    1
     4    14    13    1
     5    13     1    1
     6     1     2   ar
     7     2     3   ar
     8     3     4   ar
     9     4     7    1
    10     7     9    1
    11     9    10    2
    12    10    11    1
    13     4     5   ar
    14     5     6   ar
    15     6     1   ar
    16     7     8    1
    17    11    12    1
@<TRIPOS>MOLECULE
*****
 17 17 0 0 0
SMALL
GASTEIGER

@<TRIPOS>ATOM
      1 C         -12.6732   -5.3014   17.3720 C.ar    1  UNL1        0.1386
      2 C         -13.3698   -5.3544   18.6993 C.ar    1  UNL1        0.0382
      3 C         -13.9369   -6.6507   19.1975 C.ar    1  UNL1        0.0178
      4 C         -13.8073   -7.8939   18.3684 C.ar    1  UNL1        0.0497
      5 C         -13.1107   -7.8409   17.0410 C.ar    1  UNL1        0.0178
      6 C         -12.5436   -6.5447   16.5428 C.ar    1  UNL1        0.0382
      7 N         -14.3744   -9.1901   18.8666 N.pl3   1  UNL1       -0.2930
      8 H         -13.7824   -9.8607   19.2777 H       1  UNL1        0.1538
      9 C         -15.8435   -9.4646   18.7384 C.2     1  UNL1        0.2056
     10 N         -16.3209  -10.8412   18.3820 N.2     1  UNL1       -0.0679
     11 O         -15.3294  -11.9433   18.1537 O.2     1  UNL1       -0.4077
     12 H         -15.6277  -12.8032   17.9311 H       1  UNL1        0.3278
     13 O         -12.1061   -4.0052   16.8738 O.3     1  UNL1       -0.4755
     14 C         -10.9298   -3.3852   17.5678 C.3     1  UNL1        0.2054
     15 C          -9.7090   -4.2081   17.8548 C.3     1  UNL1        0.0473
     16 C          -9.6522   -6.5348   19.0095 C.3     1  UNL1        0.0001
     17 C          -9.6400   -5.0378   19.1026 C.3     1  UNL1        0.0038
@<TRIPOS>BOND
     1    16    17    1
     2    17    15    1
     3    15    14    1
     4    14    13    1
     5    13     1    1
     6     1     2   ar
     7     2     3   ar
     8     3     4   ar
     9     4     7    1
    10     7     9    1
    11     9    10    2
    12    10    11    1
    13     4     5   ar
    14     5     6   ar
    15     6     1   ar
    16     7     8    1
    17    11    12    1
