@<TRIPOS>MOLECULE
*****
 19 21 0 0 0
SMALL
GASTEIGER

@<TRIPOS>ATOM
      1 C         -10.0773  -18.3580   21.9725 C.3     1  UNL1        0.1180
      2 C         -11.1768  -18.8602   21.0841 C.3     1  UNL1        0.0911
      3 N         -12.3096  -17.9523   20.7067 N.3     1  UNL1       -0.2946
      4 C         -12.3431  -16.5424   21.2176 C.3     1  UNL1        0.0903
      5 C         -11.2436  -16.0403   22.1059 C.3     1  UNL1        0.1076
      6 N         -10.1108  -16.9482   22.4834 N.pl3   1  UNL1       -0.3070
      7 H         -13.1670  -18.4022   21.0276 H       1  UNL1        0.1233
      8 C          -9.0113  -16.4460   23.3717 C.2     1  UNL1        0.0295
      9 C          -7.7392  -15.9268   22.7702 C.2     1  UNL1        0.0120
     10 C          -6.6397  -15.4247   23.6586 C.2     1  UNL1        0.0216
     11 C          -6.8126  -15.4418   25.1485 C.2     1  UNL1        0.1008
     12 N          -5.9107  -15.0150   26.2685 N.2     1  UNL1       -0.1482
     13 N          -6.6256  -15.2704   27.5622 N.2     1  UNL1       -0.1467
     14 C          -7.9693  -15.8551   27.2418 C.2     1  UNL1        0.1198
     15 C          -8.0849  -15.9610   25.7500 C.2     1  UNL1        0.0238
     16 C          -9.1842  -16.4631   24.8616 C.3     1  UNL1        0.0705
     17 C          -8.9445  -19.2658   22.3499 C.3     1  UNL1        0.1632
     18 C         -10.0917  -20.0364   24.5500 C.3     1  UNL1        0.1742
     19 O          -9.1339  -20.2947   23.4249 O.3     1  UNL1       -0.3493
@<TRIPOS>BOND
     1    18    19    1
     2    19    17    1
     3    17     1    1
     4     1     2    1
     5     2     3    1
     6     3     4    1
     7     4     5    1
     8     5     6    1
     9     6     8    1
    10     8     9    2
    11     9    10    1
    12    10    11    2
    13    11    12    1
    14    12    13    2
    15    13    14    1
    16    14    15    2
    17    15    16    1
    18     6     1    1
    19    16     8    1
    20    15    11    1
    21     3     7    1
@<TRIPOS>MOLECULE
*****
 19 21 0 0 0
SMALL
GASTEIGER

@<TRIPOS>ATOM
      1 C          -9.7926  -18.3327   21.4856 C.3     1  UNL1        0.1180
      2 C         -10.6367  -18.7622   20.3223 C.3     1  UNL1        0.0911
      3 N         -11.4894  -17.7590   19.6036 N.3     1  UNL1       -0.2946
      4 C         -11.4980  -16.3264   20.0482 C.3     1  UNL1        0.0903
      5 C         -10.6540  -15.8970   21.2115 C.3     1  UNL1        0.1076
      6 N          -9.8013  -16.9002   21.9302 N.pl3   1  UNL1       -0.3070
      7 H         -12.4514  -18.0923   19.6653 H       1  UNL1        0.1233
      8 C          -8.9573  -16.4707   23.0935 C.2     1  UNL1        0.0295
      9 C          -9.5558  -16.3943   24.4667 C.2     1  UNL1        0.0120
     10 C          -8.7118  -15.9648   25.6300 C.2     1  UNL1        0.0216
     11 C          -7.2691  -15.6118   25.4199 C.2     1  UNL1        0.1008
     12 N          -6.1985  -15.1585   26.3677 N.2     1  UNL1       -0.1482
     13 N          -4.9383  -14.9548   25.5802 N.2     1  UNL1       -0.1467
     14 C          -5.2300  -15.2822   24.1457 C.2     1  UNL1        0.1198
     15 C          -6.6706  -15.6882   24.0467 C.2     1  UNL1        0.0238
     16 C          -7.5146  -16.1177   22.8834 C.3     1  UNL1        0.0705
     17 C          -8.9399  -19.3359   22.2043 C.3     1  UNL1        0.1632
     18 C         -10.6852  -19.8182   24.0676 C.3     1  UNL1        0.1742
     19 O          -9.5625  -20.2822   23.1876 O.3     1  UNL1       -0.3493
@<TRIPOS>BOND
     1    18    19    1
     2    19    17    1
     3    17     1    1
     4     1     2    1
     5     2     3    1
     6     3     4    1
     7     4     5    1
     8     5     6    1
     9     6     8    1
    10     8     9    2
    11     9    10    1
    12    10    11    2
    13    11    12    1
    14    12    13    2
    15    13    14    1
    16    14    15    2
    17    15    16    1
    18     6     1    1
    19    16     8    1
    20    15    11    1
    21     3     7    1
@<TRIPOS>MOLECULE
*****
 19 21 0 0 0
SMALL
GASTEIGER

@<TRIPOS>ATOM
      1 C          -8.2343  -18.2119   21.4650 C.3     1  UNL1        0.1180
      2 C          -9.7128  -18.1269   21.2267 C.3     1  UNL1        0.0911
      3 N         -10.3351  -18.8897   20.0949 N.3     1  UNL1       -0.2946
      4 C          -9.4789  -19.7375   19.2015 C.3     1  UNL1        0.0903
      5 C          -8.0004  -19.8225   19.4399 C.3     1  UNL1        0.1076
      6 N          -7.3781  -19.0597   20.5716 N.pl3   1  UNL1       -0.3070
      7 H         -10.7967  -18.2045   19.4967 H       1  UNL1        0.1233
      8 C          -5.8996  -19.1447   20.8100 C.2     1  UNL1        0.0295
      9 C          -5.3793  -19.5803   22.1476 C.2     1  UNL1        0.0120
     10 C          -3.9008  -19.6654   22.3859 C.2     1  UNL1        0.0216
     11 C          -2.9426  -19.3148   21.2865 C.2     1  UNL1        0.1008
     12 N          -1.4438  -19.3036   21.2270 N.2     1  UNL1       -0.1482
     13 N          -1.0378  -18.8610   19.8525 N.2     1  UNL1       -0.1467
     14 C          -2.2856  -18.5987   19.0624 C.2     1  UNL1        0.1198
     15 C          -3.4629  -18.8792   19.9487 C.2     1  UNL1        0.0238
     16 C          -4.9414  -18.7941   19.7105 C.3     1  UNL1        0.0705
     17 C          -7.6120  -17.4491   22.5967 C.3     1  UNL1        0.1632
     18 C          -7.3061  -15.1474   23.7625 C.3     1  UNL1        0.1742
     19 O          -7.4779  -15.9575   22.5118 O.3     1  UNL1       -0.3493
@<TRIPOS>BOND
     1    18    19    1
     2    19    17    1
     3    17     1    1
     4     1     2    1
     5     2     3    1
     6     3     4    1
     7     4     5    1
     8     5     6    1
     9     6     8    1
    10     8     9    2
    11     9    10    1
    12    10    11    2
    13    11    12    1
    14    12    13    2
    15    13    14    1
    16    14    15    2
    17    15    16    1
    18     6     1    1
    19    16     8    1
    20    15    11    1
    21     3     7    1
@<TRIPOS>MOLECULE
*****
 19 21 0 0 0
SMALL
GASTEIGER

@<TRIPOS>ATOM
      1 C         -11.3799  -17.2569   22.1792 C.3     1  UNL1        0.1180
      2 C         -12.8706  -17.2911   22.3425 C.3     1  UNL1        0.0911
      3 N         -13.4798  -17.9852   23.5245 N.3     1  UNL1       -0.2946
      4 C         -12.5983  -18.6450   24.5432 C.3     1  UNL1        0.0903
      5 C         -11.1076  -18.6107   24.3798 C.3     1  UNL1        0.1076
      6 N         -10.4985  -17.9166   23.1978 N.pl3   1  UNL1       -0.3070
      7 H         -14.0962  -18.7092   23.1553 H       1  UNL1        0.1233
      8 C          -9.0077  -17.8824   23.0346 C.2     1  UNL1        0.0295
      9 C          -8.3030  -19.0106   22.3416 C.2     1  UNL1        0.0120
     10 C          -6.8122  -18.9764   22.1784 C.2     1  UNL1        0.0216
     11 C          -6.0263  -17.8137   22.7081 C.2     1  UNL1        0.1008
     12 N          -4.5585  -17.5052   22.6952 N.2     1  UNL1       -0.1482
     13 N          -4.3561  -16.1862   23.3802 N.2     1  UNL1       -0.1467
     14 C          -5.6988  -15.6796   23.8165 C.2     1  UNL1        0.1198
     15 C          -6.7311  -16.6854   23.4011 C.2     1  UNL1        0.0238
     16 C          -8.2218  -16.7198   23.5643 C.3     1  UNL1        0.0705
     17 C         -10.7707  -16.5628   20.9972 C.3     1  UNL1        0.1632
     18 C         -10.7689  -18.7993   19.6748 C.3     1  UNL1        0.1742
     19 O         -10.3977  -17.3495   19.7757 O.3     1  UNL1       -0.3493
@<TRIPOS>BOND
     1    18    19    1
     2    19    17    1
     3    17     1    1
     4     1     2    1
     5     2     3    1
     6     3     4    1
     7     4     5    1
     8     5     6    1
     9     6     8    1
    10     8     9    2
    11     9    10    1
    12    10    11    2
    13    11    12    1
    14    12    13    2
    15    13    14    1
    16    14    15    2
    17    15    16    1
    18     6     1    1
    19    16     8    1
    20    15    11    1
    21     3     7    1
@<TRIPOS>MOLECULE
*****
 19 21 0 0 0
SMALL
GASTEIGER

@<TRIPOS>ATOM
      1 C          -6.9315  -15.8481   24.6045 C.3     1  UNL1        0.1180
      2 C          -5.8343  -15.2155   25.4084 C.3     1  UNL1        0.0911
      3 N          -6.0439  -14.9244   26.8648 N.3     1  UNL1       -0.2946
      4 C          -7.3507  -15.2657   27.5174 C.3     1  UNL1        0.0903
      5 C          -8.4479  -15.8982   26.7135 C.3     1  UNL1        0.1076
      6 N          -8.2382  -16.1894   25.2571 N.pl3   1  UNL1       -0.3070
      7 H          -5.9069  -13.9211   26.9872 H       1  UNL1        0.1233
      8 C          -9.3354  -16.8219   24.4532 C.2     1  UNL1        0.0295
      9 C          -9.8013  -18.2094   24.7813 C.2     1  UNL1        0.0120
     10 C         -10.8985  -18.8419   23.9774 C.2     1  UNL1        0.0216
     11 C         -11.5297  -18.0868   22.8454 C.2     1  UNL1        0.1008
     12 N         -12.6228  -18.4483   21.8839 N.2     1  UNL1       -0.1482
     13 N         -12.8324  -17.2841   20.9615 N.2     1  UNL1       -0.1467
     14 C         -11.8689  -16.2031   21.3530 C.2     1  UNL1        0.1198
     15 C         -11.0638  -16.6992   22.5173 C.2     1  UNL1        0.0238
     16 C          -9.9666  -16.0668   23.3212 C.3     1  UNL1        0.0705
     17 C          -6.7218  -16.1392   23.1481 C.3     1  UNL1        0.1632
     18 C          -7.1792  -18.4042   21.9603 C.3     1  UNL1        0.1742
     19 O          -6.2532  -17.4966   22.7143 O.3     1  UNL1       -0.3493
@<TRIPOS>BOND
     1    18    19    1
     2    19    17    1
     3    17     1    1
     4     1     2    1
     5     2     3    1
     6     3     4    1
     7     4     5    1
     8     5     6    1
     9     6     8    1
    10     8     9    2
    11     9    10    1
    12    10    11    2
    13    11    12    1
    14    12    13    2
    15    13    14    1
    16    14    15    2
    17    15    16    1
    18     6     1    1
    19    16     8    1
    20    15    11    1
    21     3     7    1
@<TRIPOS>MOLECULE
*****
 19 21 0 0 0
SMALL
GASTEIGER

@<TRIPOS>ATOM
      1 C          -6.2047  -16.5201   23.5953 C.3     1  UNL1        0.1180
      2 C          -4.7118  -16.6652   23.6200 C.3     1  UNL1        0.0911
      3 N          -4.0555  -17.7914   22.8779 N.3     1  UNL1       -0.2946
      4 C          -4.8920  -18.7726   22.1112 C.3     1  UNL1        0.0903
      5 C          -6.3847  -18.6274   22.0866 C.3     1  UNL1        0.1076
      6 N          -7.0410  -17.5011   22.8287 N.pl3   1  UNL1       -0.3070
      7 H          -3.5274  -18.3288   23.5654 H       1  UNL1        0.1233
      8 C          -8.5339  -17.3560   22.8041 C.2     1  UNL1        0.0295
      9 C          -9.1769  -16.3775   21.8667 C.2     1  UNL1        0.0120
     10 C         -10.6697  -16.2324   21.8420 C.2     1  UNL1        0.0216
     11 C         -11.5194  -17.0659   22.7549 C.2     1  UNL1        0.1008
     12 N         -13.0043  -17.1415   22.9530 N.2     1  UNL1       -0.1482
     13 N         -13.2789  -18.1668   24.0129 N.2     1  UNL1       -0.1467
     14 C         -11.9637  -18.7248   24.4699 C.2     1  UNL1        0.1198
     15 C         -10.8762  -18.0444   23.6924 C.2     1  UNL1        0.0238
     16 C          -9.3835  -18.1895   23.7170 C.3     1  UNL1        0.0705
     17 C          -6.8610  -15.3938   24.3375 C.3     1  UNL1        0.1632
     18 C          -6.4572  -15.3265   26.9031 C.3     1  UNL1        0.1742
     19 O          -6.1843  -14.7866   25.5306 O.3     1  UNL1       -0.3493
@<TRIPOS>BOND
     1    18    19    1
     2    19    17    1
     3    17     1    1
     4     1     2    1
     5     2     3    1
     6     3     4    1
     7     4     5    1
     8     5     6    1
     9     6     8    1
    10     8     9    2
    11     9    10    1
    12    10    11    2
    13    11    12    1
    14    12    13    2
    15    13    14    1
    16    14    15    2
    17    15    16    1
    18     6     1    1
    19    16     8    1
    20    15    11    1
    21     3     7    1
@<TRIPOS>MOLECULE
*****
 19 21 0 0 0
SMALL
GASTEIGER

@<TRIPOS>ATOM
      1 C          -9.7299  -17.8245   22.9153 C.3     1  UNL1        0.1180
      2 C         -10.9185  -17.7615   23.8284 C.3     1  UNL1        0.0911
      3 N         -11.2523  -18.9308   24.7066 N.3     1  UNL1       -0.2946
      4 C         -10.3977  -20.1630   24.6718 C.3     1  UNL1        0.0903
      5 C          -9.2092  -20.2260   23.7587 C.3     1  UNL1        0.1076
      6 N          -8.8754  -19.0567   22.8805 N.pl3   1  UNL1       -0.3070
      7 H         -12.1988  -19.2219   24.4621 H       1  UNL1        0.1233
      8 C          -7.6869  -19.1197   21.9675 C.2     1  UNL1        0.0295
      9 C          -7.8748  -19.4302   20.5122 C.2     1  UNL1        0.0120
     10 C          -6.6862  -19.4932   19.5991 C.2     1  UNL1        0.0216
     11 C          -5.3099  -19.2456   20.1416 C.2     1  UNL1        0.1008
     12 N          -3.9596  -19.2402   19.4884 N.2     1  UNL1       -0.1482
     13 N          -2.9372  -18.9264   20.5401 N.2     1  UNL1       -0.1467
     14 C          -3.6556  -18.7378   21.8433 C.2     1  UNL1        0.1198
     15 C          -5.1220  -18.9351   21.5970 C.2     1  UNL1        0.0238
     16 C          -6.3105  -18.8721   22.5100 C.3     1  UNL1        0.0705
     17 C          -9.3961  -16.6552   22.0371 C.3     1  UNL1        0.1632
     18 C         -10.9975  -17.4351   20.1456 C.3     1  UNL1        0.1742
     19 O         -10.2584  -16.3372   20.8516 O.3     1  UNL1       -0.3493
@<TRIPOS>BOND
     1    18    19    1
     2    19    17    1
     3    17     1    1
     4     1     2    1
     5     2     3    1
     6     3     4    1
     7     4     5    1
     8     5     6    1
     9     6     8    1
    10     8     9    2
    11     9    10    1
    12    10    11    2
    13    11    12    1
    14    12    13    2
    15    13    14    1
    16    14    15    2
    17    15    16    1
    18     6     1    1
    19    16     8    1
    20    15    11    1
    21     3     7    1
@<TRIPOS>MOLECULE
*****
 19 21 0 0 0
SMALL
GASTEIGER

@<TRIPOS>ATOM
      1 C         -11.0543  -18.7189   22.9744 C.3     1  UNL1        0.1180
      2 C         -12.3891  -18.1905   23.4095 C.3     1  UNL1        0.0911
      3 N         -12.9545  -16.9596   22.7653 N.3     1  UNL1       -0.2946
      4 C         -12.1853  -16.2571   21.6860 C.3     1  UNL1        0.0903
      5 C         -10.8506  -16.7855   21.2510 C.3     1  UNL1        0.1076
      6 N         -10.2851  -18.0165   21.8952 N.pl3   1  UNL1       -0.3070
      7 H         -13.1042  -16.2795   23.5106 H       1  UNL1        0.1233
      8 C          -8.9503  -18.5449   21.4601 C.2     1  UNL1        0.0295
      9 C          -8.8376  -19.3527   20.2014 C.2     1  UNL1        0.0120
     10 C          -7.5028  -19.8811   19.7663 C.2     1  UNL1        0.0216
     11 C          -6.2808  -19.6016   20.5901 C.2     1  UNL1        0.1008
     12 N          -4.8421  -19.9879   20.4145 N.2     1  UNL1       -0.1482
     13 N          -4.0657  -19.4188   21.5649 N.2     1  UNL1       -0.1467
     14 C          -5.0246  -18.6808   22.4514 C.2     1  UNL1        0.1198
     15 C          -6.3936  -18.7937   21.8489 C.2     1  UNL1        0.0238
     16 C          -7.7284  -18.2654   22.2839 C.3     1  UNL1        0.0705
     17 C         -10.4889  -19.9499   23.6186 C.3     1  UNL1        0.1632
     18 C          -9.5995  -18.5100   25.5899 C.3     1  UNL1        0.1742
     19 O          -9.7630  -19.8457   24.9272 O.3     1  UNL1       -0.3493
@<TRIPOS>BOND
     1    18    19    1
     2    19    17    1
     3    17     1    1
     4     1     2    1
     5     2     3    1
     6     3     4    1
     7     4     5    1
     8     5     6    1
     9     6     8    1
    10     8     9    2
    11     9    10    1
    12    10    11    2
    13    11    12    1
    14    12    13    2
    15    13    14    1
    16    14    15    2
    17    15    16    1
    18     6     1    1
    19    16     8    1
    20    15    11    1
    21     3     7    1
@<TRIPOS>MOLECULE
*****
 19 21 0 0 0
SMALL
GASTEIGER

@<TRIPOS>ATOM
      1 C          -8.7217  -17.4295   22.8902 C.3     1  UNL1        0.1180
      2 C          -9.9861  -17.2996   23.6869 C.3     1  UNL1        0.0911
      3 N         -10.6347  -18.5206   24.2686 N.3     1  UNL1       -0.2946
      4 C         -10.0191  -19.8715   24.0536 C.3     1  UNL1        0.0903
      5 C          -8.7548  -20.0013   23.2569 C.3     1  UNL1        0.1076
      6 N          -8.1062  -18.7803   22.6752 N.pl3   1  UNL1       -0.3070
      7 H         -11.5791  -18.5631   23.8855 H       1  UNL1        0.1233
      8 C          -6.8418  -18.9103   21.8785 C.2     1  UNL1        0.0295
      9 C          -6.9081  -19.1016   20.3924 C.2     1  UNL1        0.0120
     10 C          -5.6438  -19.2315   19.5957 C.2     1  UNL1        0.0216
     11 C          -4.3132  -19.1701   20.2853 C.2     1  UNL1        0.1008
     12 N          -2.9088  -19.2668   19.7673 N.2     1  UNL1       -0.1482
     13 N          -1.9745  -19.1352   20.9334 N.2     1  UNL1       -0.1467
     14 C          -2.8015  -18.9572   22.1722 C.2     1  UNL1        0.1198
     15 C          -4.2469  -18.9787   21.7716 C.2     1  UNL1        0.0238
     16 C          -5.5112  -18.8488   22.5682 C.3     1  UNL1        0.0705
     17 C          -8.0731  -16.2085   22.3085 C.3     1  UNL1        0.1632
     18 C          -7.0515  -15.0733   24.4104 C.3     1  UNL1        0.1742
     19 O          -6.9047  -15.5760   23.0049 O.3     1  UNL1       -0.3493
@<TRIPOS>BOND
     1    18    19    1
     2    19    17    1
     3    17     1    1
     4     1     2    1
     5     2     3    1
     6     3     4    1
     7     4     5    1
     8     5     6    1
     9     6     8    1
    10     8     9    2
    11     9    10    1
    12    10    11    2
    13    11    12    1
    14    12    13    2
    15    13    14    1
    16    14    15    2
    17    15    16    1
    18     6     1    1
    19    16     8    1
    20    15    11    1
    21     3     7    1
