@<TRIPOS>MOLECULE
*****
 31 35 0 0 0
SMALL
GASTEIGER

@<TRIPOS>ATOM
      1 C           4.9400   -3.8614   19.0184 C.3     1  UNL1        0.0293
      2 C           4.6613   -3.2560   20.3623 C.3     1  UNL1        0.0884
      3 O           5.7075   -4.2620   20.7416 O.3     1  UNL1       -0.3867
      4 C           4.7460   -3.0001   21.8379 C.3     1  UNL1        0.0269
      5 C           3.8814   -1.9485   22.4675 C.3     1  UNL1        0.0024
      6 C           2.9321   -1.1528   21.6216 C.3     1  UNL1        0.0002
      7 C           2.8474   -1.4087   20.1461 C.3     1  UNL1        0.0023
      8 C           1.8980   -0.6130   19.3001 C.3     1  UNL1        0.0001
      9 C           1.0334    0.4386   19.9298 C.3     1  UNL1        0.0000
     10 C           1.1181    0.6946   21.4054 C.3     1  UNL1        0.0000
     11 C           2.0674   -0.1011   22.2513 C.3     1  UNL1        0.0000
     12 C           2.1521    0.1548   23.7268 C.3     1  UNL1        0.0000
     13 C           1.2875    1.2065   24.3565 C.3     1  UNL1        0.0004
     14 C           0.3382    2.0022   23.5106 C.3     1  UNL1        0.0066
     15 C           0.3129    2.3682   24.9650 C.3     1  UNL1        0.0004
     16 C          -0.6317    3.0956   23.8478 C.3     1  UNL1        0.0597
     17 C          -1.3158    3.5155   22.5806 C.3     1  UNL1        0.0074
     18 C          -0.7688    2.6815   21.4602 C.3     1  UNL1        0.0004
     19 C           0.2535    1.7462   22.0350 C.3     1  UNL1        0.0004
     20 C           3.7120   -2.4604   19.5165 C.3     1  UNL1        0.0269
     21 H           5.8730   -4.2122   21.6960 H       1  UNL1        0.2102
     22 C          -0.8748    3.6686   25.2125 C.2     1  UNL1        0.1747
     23 O           0.0183    4.7515   25.7413 O.2     1  UNL1       -0.2940
     24 C          -2.0110    3.1587   26.0486 C.3     1  UNL1        0.1914
     25 N          -3.3663    3.7918   25.9384 N.ar    1  UNL1       -0.2411
     26 C          -4.3300    3.6199   24.8018 C.ar    1  UNL1        0.1074
     27 C          -5.5553    4.4299   25.1065 C.ar    1  UNL1        0.1080
     28 C          -5.3489    5.1023   26.4313 C.ar    1  UNL1        0.1319
     29 N          -3.9960    4.7079   26.9456 N.ar    1  UNL1       -0.1665
     30 C          -6.7731    4.5468   24.2386 C.1     1  UNL1        0.1036
     31 N          -7.9908    4.6637   23.3706 N.1     1  UNL1       -0.1907
@<TRIPOS>BOND
     1     2     1    1
     2     2     3    1
     3     2     4    1
     4     4     5    1
     5     6     5    1
     6     6     7    1
     7     7     8    1
     8     8     9    1
     9    10     9    1
    10    10    11    1
    11    11    12    1
    12    12    13    1
    13    13    14    1
    14    14    15    1
    15    14    16    1
    16    16    22    1
    17    22    23    2
    18    22    24    1
    19    24    25    1
    20    25    26   ar
    21    26    27   ar
    22    27    30    1
    23    30    31    3
    24    27    28   ar
    25    28    29   ar
    26    16    17    1
    27    17    18    1
    28    19    18    1
    29     7    20    1
    30    20     2    1
    31    11     6    1
    32    19    14    1
    33    19    10    1
    34    29    25   ar
    35     3    21    1
@<TRIPOS>MOLECULE
*****
 31 35 0 0 0
SMALL
GASTEIGER

@<TRIPOS>ATOM
      1 C          -9.5851   -6.4362   18.5523 C.3     1  UNL1        0.0293
      2 C         -11.0184   -6.1794   18.9128 C.3     1  UNL1        0.0884
      3 O         -10.9598   -7.6640   19.1195 O.3     1  UNL1       -0.3867
      4 C         -12.4312   -6.4381   19.3450 C.3     1  UNL1        0.0269
      5 C         -13.4049   -5.3015   19.4453 C.3     1  UNL1        0.0024
      6 C         -12.9658   -3.9062   19.1134 C.3     1  UNL1        0.0002
      7 C         -11.5529   -3.6475   18.6812 C.3     1  UNL1        0.0023
      8 C         -11.1137   -2.2521   18.3493 C.3     1  UNL1        0.0001
      9 C         -12.0874   -1.1155   18.4496 C.3     1  UNL1        0.0000
     10 C         -13.5003   -1.3743   18.8819 C.3     1  UNL1        0.0000
     11 C         -13.9395   -2.7696   19.2138 C.3     1  UNL1        0.0000
     12 C         -15.3523   -3.0283   19.6460 C.3     1  UNL1        0.0000
     13 C         -16.3260   -1.8917   19.7463 C.3     1  UNL1        0.0004
     14 C         -15.8869   -0.4964   19.4144 C.3     1  UNL1        0.0066
     15 C         -17.3243   -0.6009   19.8303 C.3     1  UNL1        0.0004
     16 C         -16.6170    0.8139   19.4208 C.3     1  UNL1        0.0597
     17 C         -15.6553    1.8825   18.9926 C.3     1  UNL1        0.0074
     18 C         -14.3309    1.2326   18.7215 C.3     1  UNL1        0.0004
     19 C         -14.4740   -0.2377   18.9822 C.3     1  UNL1        0.0004
     20 C         -10.5792   -4.7841   18.5809 C.3     1  UNL1        0.0269
     21 H         -11.8282   -7.9845   19.4095 H       1  UNL1        0.2102
     22 C         -18.0560    1.0195   19.7906 C.2     1  UNL1        0.1747
     23 O         -19.1297    0.8292   18.7606 O.2     1  UNL1       -0.2940
     24 C         -18.4215    1.4155   21.1905 C.3     1  UNL1        0.1914
     25 N         -17.7431    2.5848   21.8405 N.ar    1  UNL1       -0.2411
     26 C         -17.0890    2.5859   23.1904 C.ar    1  UNL1        0.1074
     27 C         -16.5414    3.9601   23.4389 C.ar    1  UNL1        0.1080
     28 C         -16.8570    4.8083   22.2426 C.ar    1  UNL1        0.1319
     29 N         -17.5998    3.9583   21.2547 N.ar    1  UNL1       -0.1665
     30 C         -15.8070    4.4075   24.6679 C.1     1  UNL1        0.1036
     31 N         -15.0726    4.8550   25.8969 N.1     1  UNL1       -0.1907
@<TRIPOS>BOND
     1     2     1    1
     2     2     3    1
     3     2     4    1
     4     4     5    1
     5     6     5    1
     6     6     7    1
     7     7     8    1
     8     8     9    1
     9    10     9    1
    10    10    11    1
    11    11    12    1
    12    12    13    1
    13    13    14    1
    14    14    15    1
    15    14    16    1
    16    16    22    1
    17    22    23    2
    18    22    24    1
    19    24    25    1
    20    25    26   ar
    21    26    27   ar
    22    27    30    1
    23    30    31    3
    24    27    28   ar
    25    28    29   ar
    26    16    17    1
    27    17    18    1
    28    19    18    1
    29     7    20    1
    30    20     2    1
    31    11     6    1
    32    19    14    1
    33    19    10    1
    34    29    25   ar
    35     3    21    1
@<TRIPOS>MOLECULE
*****
 31 35 0 0 0
SMALL
GASTEIGER

@<TRIPOS>ATOM
      1 C           6.0920   -3.9023   19.9983 C.3     1  UNL1        0.0293
      2 C           5.0773   -3.1858   20.8393 C.3     1  UNL1        0.0884
      3 O           5.6378   -4.1333   21.8581 O.3     1  UNL1       -0.3867
      4 C           4.2574   -2.7984   22.0340 C.3     1  UNL1        0.0269
      5 C           3.2294   -1.7123   21.9179 C.3     1  UNL1        0.0024
      6 C           3.0212   -1.0136   20.6070 C.3     1  UNL1        0.0002
      7 C           3.8412   -1.4010   19.4122 C.3     1  UNL1        0.0023
      8 C           3.6331   -0.7023   18.1012 C.3     1  UNL1        0.0001
      9 C           2.6050    0.3838   17.9851 C.3     1  UNL1        0.0000
     10 C           1.7851    0.7712   19.1800 C.3     1  UNL1        0.0000
     11 C           1.9932    0.0725   20.4909 C.3     1  UNL1        0.0000
     12 C           1.1732    0.4600   21.6857 C.3     1  UNL1        0.0000
     13 C           0.1452    1.5461   21.5695 C.3     1  UNL1        0.0004
     14 C          -0.0629    2.2447   20.2586 C.3     1  UNL1        0.0066
     15 C          -0.9530    2.7378   21.3608 C.3     1  UNL1        0.0004
     16 C          -0.9950    3.3444   19.8442 C.3     1  UNL1        0.0597
     17 C          -0.7512    3.6367   18.3933 C.3     1  UNL1        0.0074
     18 C           0.3317    2.7176   17.9110 C.3     1  UNL1        0.0004
     19 C           0.7570    1.8573   19.0639 C.3     1  UNL1        0.0004
     20 C           4.8692   -2.4871   19.5284 C.3     1  UNL1        0.0269
     21 H           5.1908   -3.9959   22.7079 H       1  UNL1        0.2102
     22 C          -1.9954    4.0313   20.7260 C.2     1  UNL1        0.1747
     23 O          -1.5375    5.0473   21.7300 O.2     1  UNL1       -0.2940
     24 C          -3.4537    3.7023   20.6037 C.3     1  UNL1        0.1914
     25 N          -4.3491    3.8062   21.8026 N.ar    1  UNL1       -0.2411
     26 C          -5.7777    4.2637   21.7992 C.ar    1  UNL1        0.1074
     27 C          -6.2846    4.2111   23.2100 C.ar    1  UNL1        0.1080
     28 C          -5.1694    3.7211   24.0854 C.ar    1  UNL1        0.1319
     29 N          -3.9732    3.4708   23.2156 N.ar    1  UNL1       -0.1665
     30 C          -7.6645    4.5832   23.6654 C.1     1  UNL1        0.1036
     31 N          -9.0444    4.9552   24.1209 N.1     1  UNL1       -0.1907
@<TRIPOS>BOND
     1     2     1    1
     2     2     3    1
     3     2     4    1
     4     4     5    1
     5     6     5    1
     6     6     7    1
     7     7     8    1
     8     8     9    1
     9    10     9    1
    10    10    11    1
    11    11    12    1
    12    12    13    1
    13    13    14    1
    14    14    15    1
    15    14    16    1
    16    16    22    1
    17    22    23    2
    18    22    24    1
    19    24    25    1
    20    25    26   ar
    21    26    27   ar
    22    27    30    1
    23    30    31    3
    24    27    28   ar
    25    28    29   ar
    26    16    17    1
    27    17    18    1
    28    19    18    1
    29     7    20    1
    30    20     2    1
    31    11     6    1
    32    19    14    1
    33    19    10    1
    34    29    25   ar
    35     3    21    1
@<TRIPOS>MOLECULE
*****
 31 35 0 0 0
SMALL
GASTEIGER

@<TRIPOS>ATOM
      1 C           5.0193   -2.3734   17.8636 C.3     1  UNL1        0.0293
      2 C           3.9690   -1.3077   17.9687 C.3     1  UNL1        0.0884
      3 O           4.1529   -1.3462   16.4805 O.3     1  UNL1       -0.3867
      4 C           2.9825   -0.2554   17.5571 C.3     1  UNL1        0.0269
      5 C           2.1769    0.4654   18.5970 C.3     1  UNL1        0.0024
      6 C           2.3578    0.1338   20.0487 C.3     1  UNL1        0.0002
      7 C           3.3442   -0.9185   20.4603 C.3     1  UNL1        0.0023
      8 C           3.5251   -1.2501   21.9121 C.3     1  UNL1        0.0001
      9 C           2.7195   -0.5294   22.9520 C.3     1  UNL1        0.0000
     10 C           1.7330    0.5230   22.5403 C.3     1  UNL1        0.0000
     11 C           1.5522    0.8545   21.0887 C.3     1  UNL1        0.0000
     12 C           0.5657    1.9069   20.6770 C.3     1  UNL1        0.0000
     13 C          -0.2399    2.6276   21.7170 C.3     1  UNL1        0.0004
     14 C          -0.0590    2.2960   23.1686 C.3     1  UNL1        0.0066
     15 C          -1.0778    3.3661   22.9096 C.3     1  UNL1        0.0004
     16 C          -0.7069    2.8349   24.4096 C.3     1  UNL1        0.0597
     17 C          -0.1208    2.1156   25.5882 C.3     1  UNL1        0.0074
     18 C           0.8893    1.1322   25.0757 C.3     1  UNL1        0.0004
     19 C           0.9274    1.2437   23.5803 C.3     1  UNL1        0.0004
     20 C           4.1498   -1.6392   19.4204 C.3     1  UNL1        0.0269
     21 H           3.5620   -0.6989   16.0648 H       1  UNL1        0.2102
     22 C          -1.7565    3.9051   24.4625 C.2     1  UNL1        0.1747
     23 O          -1.4929    5.2455   23.8432 O.2     1  UNL1       -0.2940
     24 C          -3.0699    3.6349   25.1349 C.3     1  UNL1        0.1914
     25 N          -4.3530    3.8513   24.3888 N.ar    1  UNL1       -0.2411
     26 C          -5.6523    4.3081   24.9831 C.ar    1  UNL1        0.1074
     27 C          -6.6644    4.3880   23.8788 C.ar    1  UNL1        0.1080
     28 C          -5.9907    3.9805   22.6021 C.ar    1  UNL1        0.1319
     29 N          -4.5621    3.6488   22.9172 N.ar    1  UNL1       -0.1665
     30 C          -8.0984    4.8025   24.0256 C.1     1  UNL1        0.1036
     31 N          -9.5325    5.2170   24.1725 N.1     1  UNL1       -0.1907
@<TRIPOS>BOND
     1     2     1    1
     2     2     3    1
     3     2     4    1
     4     4     5    1
     5     6     5    1
     6     6     7    1
     7     7     8    1
     8     8     9    1
     9    10     9    1
    10    10    11    1
    11    11    12    1
    12    12    13    1
    13    13    14    1
    14    14    15    1
    15    14    16    1
    16    16    22    1
    17    22    23    2
    18    22    24    1
    19    24    25    1
    20    25    26   ar
    21    26    27   ar
    22    27    30    1
    23    30    31    3
    24    27    28   ar
    25    28    29   ar
    26    16    17    1
    27    17    18    1
    28    19    18    1
    29     7    20    1
    30    20     2    1
    31    11     6    1
    32    19    14    1
    33    19    10    1
    34    29    25   ar
    35     3    21    1
@<TRIPOS>MOLECULE
*****
 31 35 0 0 0
SMALL
GASTEIGER

@<TRIPOS>ATOM
      1 C           4.3504    0.3067   29.9807 C.3     1  UNL1        0.0293
      2 C           4.8174   -0.6823   28.9541 C.3     1  UNL1        0.0884
      3 O           5.5750   -1.1730   30.1522 O.3     1  UNL1       -0.3867
      4 C           5.5475   -1.8417   28.3437 C.3     1  UNL1        0.0269
      5 C           5.3578   -2.1670   26.8917 C.3     1  UNL1        0.0024
      6 C           4.4380   -1.3329   26.0502 C.3     1  UNL1        0.0002
      7 C           3.7079   -0.1735   26.6606 C.3     1  UNL1        0.0023
      8 C           2.7881    0.6607   25.8191 C.3     1  UNL1        0.0001
      9 C           2.5984    0.3354   24.3671 C.3     1  UNL1        0.0000
     10 C           3.3285   -0.8241   23.7567 C.3     1  UNL1        0.0000
     11 C           4.2483   -1.6582   24.5982 C.3     1  UNL1        0.0000
     12 C           4.9784   -2.8176   23.9878 C.3     1  UNL1        0.0000
     13 C           4.7887   -3.1429   22.5358 C.3     1  UNL1        0.0004
     14 C           3.8689   -2.3088   21.6943 C.3     1  UNL1        0.0066
     15 C           4.5281   -3.4311   20.9488 C.3     1  UNL1        0.0004
     16 C           3.4853   -2.3876   20.2463 C.3     1  UNL1        0.0597
     17 C           2.5181   -1.2769   19.9619 C.3     1  UNL1        0.0074
     18 C           2.3039   -0.5116   21.2340 C.3     1  UNL1        0.0004
     19 C           3.1388   -1.1494   22.3047 C.3     1  UNL1        0.0004
     20 C           3.8976    0.1518   28.1126 C.3     1  UNL1        0.0269
     21 H           6.1089   -1.9438   29.9037 H       1  UNL1        0.2102
     22 C           3.9817   -3.3995   19.2566 C.2     1  UNL1        0.1747
     23 O           3.1704   -4.6278   18.9688 O.2     1  UNL1       -0.2940
     24 C           5.2896   -3.1831   18.5547 C.3     1  UNL1        0.1914
     25 N           5.6117   -1.8418   17.9657 N.ar    1  UNL1       -0.2411
     26 C           6.8950   -1.0857   18.1438 C.ar    1  UNL1        0.1074
     27 C           6.7834    0.2024   17.3833 C.ar    1  UNL1        0.1080
     28 C           5.4313    0.2425   16.7351 C.ar    1  UNL1        0.1319
     29 N           4.7071   -1.0208   17.0950 N.ar    1  UNL1       -0.1665
     30 C           7.8388    1.2640   17.2877 C.1     1  UNL1        0.1036
     31 N           8.8942    2.3256   17.1921 N.1     1  UNL1       -0.1907
@<TRIPOS>BOND
     1     2     1    1
     2     2     3    1
     3     2     4    1
     4     4     5    1
     5     6     5    1
     6     6     7    1
     7     7     8    1
     8     8     9    1
     9    10     9    1
    10    10    11    1
    11    11    12    1
    12    12    13    1
    13    13    14    1
    14    14    15    1
    15    14    16    1
    16    16    22    1
    17    22    23    2
    18    22    24    1
    19    24    25    1
    20    25    26   ar
    21    26    27   ar
    22    27    30    1
    23    30    31    3
    24    27    28   ar
    25    28    29   ar
    26    16    17    1
    27    17    18    1
    28    19    18    1
    29     7    20    1
    30    20     2    1
    31    11     6    1
    32    19    14    1
    33    19    10    1
    34    29    25   ar
    35     3    21    1
@<TRIPOS>MOLECULE
*****
 31 35 0 0 0
SMALL
GASTEIGER

@<TRIPOS>ATOM
      1 C           5.2660   -3.4743   19.6685 C.3     1  UNL1        0.0293
      2 C           4.1438   -2.4821   19.7475 C.3     1  UNL1        0.0884
      3 O           4.1139   -2.7930   18.2803 O.3     1  UNL1       -0.3867
      4 C           3.0112   -1.5979   19.3169 C.3     1  UNL1        0.0269
      5 C           2.2983   -0.7474   20.3260 C.3     1  UNL1        0.0024
      6 C           2.7179   -0.7811   21.7657 C.3     1  UNL1        0.0002
      7 C           3.8504   -1.6653   22.1963 C.3     1  UNL1        0.0023
      8 C           4.2701   -1.6990   23.6360 C.3     1  UNL1        0.0001
      9 C           3.5571   -0.8485   24.6452 C.3     1  UNL1        0.0000
     10 C           2.4245    0.0357   24.2145 C.3     1  UNL1        0.0000
     11 C           2.0049    0.0695   22.7748 C.3     1  UNL1        0.0000
     12 C           0.8724    0.9537   22.3443 C.3     1  UNL1        0.0000
     13 C           0.1594    1.8042   23.3534 C.3     1  UNL1        0.0004
     14 C           0.5790    1.7705   24.7931 C.3     1  UNL1        0.0066
     15 C          -0.5650    2.6992   24.5126 C.3     1  UNL1        0.0004
     16 C           0.0680    2.4922   26.0046 C.3     1  UNL1        0.0597
     17 C           0.8847    2.0540   27.1841 C.3     1  UNL1        0.0074
     18 C           1.9005    1.0615   26.7014 C.3     1  UNL1        0.0004
     19 C           1.7116    0.8863   25.2236 C.3     1  UNL1        0.0004
     20 C           4.5634   -2.5158   21.1872 C.3     1  UNL1        0.0269
     21 H           3.4095   -2.2792   17.8552 H       1  UNL1        0.2102
     22 C          -1.0615    3.4789   26.0320 C.2     1  UNL1        0.1747
     23 O          -0.9377    4.7812   25.2981 O.2     1  UNL1       -0.2940
     24 C          -2.3148    3.1633   26.7933 C.3     1  UNL1        0.1914
     25 N          -3.6037    3.8385   26.4290 N.ar    1  UNL1       -0.2411
     26 C          -4.3993    3.6042   25.1791 C.ar    1  UNL1        0.1074
     27 C          -5.6107    4.4876   25.2284 C.ar    1  UNL1        0.1080
     28 C          -5.5638    5.2678   26.5086 C.ar    1  UNL1        0.1319
     29 N          -4.3234    4.8667   27.2508 N.ar    1  UNL1       -0.1665
     30 C          -6.6810    4.5752   24.1811 C.1     1  UNL1        0.1036
     31 N          -7.7513    4.6628   23.1339 N.1     1  UNL1       -0.1907
@<TRIPOS>BOND
     1     2     1    1
     2     2     3    1
     3     2     4    1
     4     4     5    1
     5     6     5    1
     6     6     7    1
     7     7     8    1
     8     8     9    1
     9    10     9    1
    10    10    11    1
    11    11    12    1
    12    12    13    1
    13    13    14    1
    14    14    15    1
    15    14    16    1
    16    16    22    1
    17    22    23    2
    18    22    24    1
    19    24    25    1
    20    25    26   ar
    21    26    27   ar
    22    27    30    1
    23    30    31    3
    24    27    28   ar
    25    28    29   ar
    26    16    17    1
    27    17    18    1
    28    19    18    1
    29     7    20    1
    30    20     2    1
    31    11     6    1
    32    19    14    1
    33    19    10    1
    34    29    25   ar
    35     3    21    1
@<TRIPOS>MOLECULE
*****
 31 35 0 0 0
SMALL
GASTEIGER

@<TRIPOS>ATOM
      1 C           0.9141    1.4055   18.2356 C.3     1  UNL1        0.0293
      2 C           1.2474    0.5800   19.4430 C.3     1  UNL1        0.0884
      3 O          -0.1068    1.0880   19.8405 O.3     1  UNL1       -0.3867
      4 C           1.1104   -0.0690   20.7883 C.3     1  UNL1        0.0269
      5 C           2.2118   -0.9394   21.3168 C.3     1  UNL1        0.0024
      6 C           3.4503   -1.1607   20.5000 C.3     1  UNL1        0.0002
      7 C           3.5873   -0.5117   19.1546 C.3     1  UNL1        0.0023
      8 C           4.8258   -0.7331   18.3377 C.3     1  UNL1        0.0001
      9 C           5.9272   -1.6034   18.8663 C.3     1  UNL1        0.0000
     10 C           5.7901   -2.2525   20.2117 C.3     1  UNL1        0.0000
     11 C           4.5517   -2.0311   21.0285 C.3     1  UNL1        0.0000
     12 C           4.4147   -2.6801   22.3738 C.3     1  UNL1        0.0000
     13 C           5.5161   -3.5505   22.9023 C.3     1  UNL1        0.0004
     14 C           6.7546   -3.7718   22.0855 C.3     1  UNL1        0.0066
     15 C           6.7595   -4.4832   23.4061 C.3     1  UNL1        0.0004
     16 C           7.9970   -4.5718   22.3429 C.3     1  UNL1        0.0597
     17 C           8.9019   -4.4173   21.1566 C.3     1  UNL1        0.0074
     18 C           8.2188   -3.5217   20.1661 C.3     1  UNL1        0.0004
     19 C           6.8916   -3.1228   20.7402 C.3     1  UNL1        0.0004
     20 C           2.4859    0.3586   18.6261 C.3     1  UNL1        0.0269
     21 H          -0.3380    0.7411   20.7164 H       1  UNL1        0.2102
     22 C           8.2841   -5.3838   23.5710 C.2     1  UNL1        0.1747
     23 O           8.0207   -6.8605   23.5723 O.2     1  UNL1       -0.2940
     24 C           8.8347   -4.7192   24.7978 C.3     1  UNL1        0.1914
     25 N           8.7531   -5.4110   26.1262 N.ar    1  UNL1       -0.2411
     26 C           7.8992   -4.9934   27.2867 C.ar    1  UNL1        0.1074
     27 C           8.1294   -5.9662   28.4052 C.ar    1  UNL1        0.1080
     28 C           9.1254   -6.9849   27.9359 C.ar    1  UNL1        0.1319
     29 N           9.5109   -6.6418   26.5275 N.ar    1  UNL1       -0.1665
     30 C           7.4779   -5.9270   29.7557 C.1     1  UNL1        0.1036
     31 N           6.8262   -5.8879   31.1062 N.1     1  UNL1       -0.1907
@<TRIPOS>BOND
     1     2     1    1
     2     2     3    1
     3     2     4    1
     4     4     5    1
     5     6     5    1
     6     6     7    1
     7     7     8    1
     8     8     9    1
     9    10     9    1
    10    10    11    1
    11    11    12    1
    12    12    13    1
    13    13    14    1
    14    14    15    1
    15    14    16    1
    16    16    22    1
    17    22    23    2
    18    22    24    1
    19    24    25    1
    20    25    26   ar
    21    26    27   ar
    22    27    30    1
    23    30    31    3
    24    27    28   ar
    25    28    29   ar
    26    16    17    1
    27    17    18    1
    28    19    18    1
    29     7    20    1
    30    20     2    1
    31    11     6    1
    32    19    14    1
    33    19    10    1
    34    29    25   ar
    35     3    21    1
@<TRIPOS>MOLECULE
*****
 31 35 0 0 0
SMALL
GASTEIGER

@<TRIPOS>ATOM
      1 C           4.8120   -4.2112   18.7023 C.3     1  UNL1        0.0293
      2 C           4.6999   -3.5980   20.0667 C.3     1  UNL1        0.0884
      3 O           5.7597   -4.6265   20.3296 O.3     1  UNL1       -0.3867
      4 C           4.9559   -3.3419   21.5223 C.3     1  UNL1        0.0269
      5 C           4.1911   -2.2703   22.2412 C.3     1  UNL1        0.0024
      6 C           3.1703   -1.4548   21.5044 C.3     1  UNL1        0.0002
      7 C           2.9143   -1.7109   20.0488 C.3     1  UNL1        0.0023
      8 C           1.8934   -0.8954   19.3120 C.3     1  UNL1        0.0001
      9 C           1.1286    0.1762   20.0309 C.3     1  UNL1        0.0000
     10 C           1.3846    0.4323   21.4866 C.3     1  UNL1        0.0000
     11 C           2.4055   -0.3832   22.2233 C.3     1  UNL1        0.0000
     12 C           2.6615   -0.1272   23.6789 C.3     1  UNL1        0.0000
     13 C           1.8966    0.9444   24.3978 C.3     1  UNL1        0.0004
     14 C           0.8758    1.7599   23.6610 C.3     1  UNL1        0.0066
     15 C           1.0226    2.1285   25.1076 C.3     1  UNL1        0.0004
     16 C          -0.0256    2.8752   24.1010 C.3     1  UNL1        0.0597
     17 C          -0.8387    3.3085   22.9173 C.3     1  UNL1        0.0074
     18 C          -0.4398    2.4609   21.7457 C.3     1  UNL1        0.0004
     19 C           0.6198    1.5038   22.2054 C.3     1  UNL1        0.0004
     20 C           3.6791   -2.7825   19.3300 C.3     1  UNL1        0.0269
     21 H           6.0327   -4.5791   21.2592 H       1  UNL1        0.2102
     22 C          -0.1007    3.4554   25.4822 C.2     1  UNL1        0.1747
     23 O           0.8334    4.5580   25.8844 O.2     1  UNL1       -0.2940
     24 C          -1.1099    2.9330   26.4613 C.3     1  UNL1        0.1914
     25 N          -0.6582    2.1492   27.6578 N.ar    1  UNL1       -0.2411
     26 C           0.1775    2.6706   28.7891 C.ar    1  UNL1        0.1074
     27 C           0.3893    1.5500   29.7636 C.ar    1  UNL1        0.1080
     28 C          -0.3154    0.3361   29.2345 C.ar    1  UNL1        0.1319
     29 N          -0.9628    0.7064   27.9330 N.ar    1  UNL1       -0.1665
     30 C           1.1689    1.6294   31.0426 C.1     1  UNL1        0.1036
     31 N           1.9486    1.7089   32.3215 N.1     1  UNL1       -0.1907
@<TRIPOS>BOND
     1     2     1    1
     2     2     3    1
     3     2     4    1
     4     4     5    1
     5     6     5    1
     6     6     7    1
     7     7     8    1
     8     8     9    1
     9    10     9    1
    10    10    11    1
    11    11    12    1
    12    12    13    1
    13    13    14    1
    14    14    15    1
    15    14    16    1
    16    16    22    1
    17    22    23    2
    18    22    24    1
    19    24    25    1
    20    25    26   ar
    21    26    27   ar
    22    27    30    1
    23    30    31    3
    24    27    28   ar
    25    28    29   ar
    26    16    17    1
    27    17    18    1
    28    19    18    1
    29     7    20    1
    30    20     2    1
    31    11     6    1
    32    19    14    1
    33    19    10    1
    34    29    25   ar
    35     3    21    1
@<TRIPOS>MOLECULE
*****
 31 35 0 0 0
SMALL
GASTEIGER

@<TRIPOS>ATOM
      1 C           4.9165   -2.4611   18.2503 C.3     1  UNL1        0.0293
      2 C           3.9014   -1.3592   18.1765 C.3     1  UNL1        0.0884
      3 O           4.2132   -1.5242   16.7185 O.3     1  UNL1       -0.3867
      4 C           2.9946   -0.3147   17.5964 C.3     1  UNL1        0.0269
      5 C           2.1285    0.5122   18.4998 C.3     1  UNL1        0.0024
      6 C           2.1692    0.2945   19.9833 C.3     1  UNL1        0.0002
      7 C           3.0760   -0.7501   20.5634 C.3     1  UNL1        0.0023
      8 C           3.1167   -0.9678   22.0470 C.3     1  UNL1        0.0001
      9 C           2.2506   -0.1410   22.9504 C.3     1  UNL1        0.0000
     10 C           1.3438    0.9036   22.3702 C.3     1  UNL1        0.0000
     11 C           1.3031    1.1213   20.8867 C.3     1  UNL1        0.0000
     12 C           0.3963    2.1659   20.3066 C.3     1  UNL1        0.0000
     13 C          -0.4698    2.9927   21.2100 C.3     1  UNL1        0.0004
     14 C          -0.4291    2.7750   22.6936 C.3     1  UNL1        0.0066
     15 C          -1.3808    3.8507   22.2607 C.3     1  UNL1        0.0004
     16 C          -1.1626    3.4323   23.8250 C.3     1  UNL1        0.0597
     17 C          -0.7090    2.7939   25.1044 C.3     1  UNL1        0.0074
     18 C           0.3047    1.7422   24.7637 C.3     1  UNL1        0.0004
     19 C           0.4777    1.7305   23.2737 C.3     1  UNL1        0.0004
     20 C           3.9421   -1.5769   19.6600 C.3     1  UNL1        0.0269
     21 H           3.6855   -0.8954   16.2018 H       1  UNL1        0.2102
     22 C          -2.1722    4.5344   23.6991 C.2     1  UNL1        0.1747
     23 O          -1.7640    5.8655   23.1409 O.2     1  UNL1       -0.2940
     24 C          -3.5902    4.3055   24.1313 C.3     1  UNL1        0.1914
     25 N          -4.1103    4.9621   25.3756 N.ar    1  UNL1       -0.2411
     26 C          -5.5429    5.0021   25.8187 C.ar    1  UNL1        0.1074
     27 C          -5.6070    5.7588   27.1123 C.ar    1  UNL1        0.1080
     28 C          -4.2142    6.1866   27.4687 C.ar    1  UNL1        0.1319
     29 N          -3.2891    5.6942   26.3954 N.ar    1  UNL1       -0.1665
     30 C          -6.8464    6.0386   27.9094 C.1     1  UNL1        0.1036
     31 N          -8.0859    6.3184   28.7065 N.1     1  UNL1       -0.1907
@<TRIPOS>BOND
     1     2     1    1
     2     2     3    1
     3     2     4    1
     4     4     5    1
     5     6     5    1
     6     6     7    1
     7     7     8    1
     8     8     9    1
     9    10     9    1
    10    10    11    1
    11    11    12    1
    12    12    13    1
    13    13    14    1
    14    14    15    1
    15    14    16    1
    16    16    22    1
    17    22    23    2
    18    22    24    1
    19    24    25    1
    20    25    26   ar
    21    26    27   ar
    22    27    30    1
    23    30    31    3
    24    27    28   ar
    25    28    29   ar
    26    16    17    1
    27    17    18    1
    28    19    18    1
    29     7    20    1
    30    20     2    1
    31    11     6    1
    32    19    14    1
    33    19    10    1
    34    29    25   ar
    35     3    21    1
