@<TRIPOS>MOLECULE
*****
 23 26 0 0 0
SMALL
GASTEIGER

@<TRIPOS>ATOM
      1 C          -6.6931  -15.1734   27.3375 C.ar    1  UNL1       -0.0003
      2 C          -6.1056  -14.9055   25.9836 C.ar    1  UNL1       -0.0000
      3 C          -6.6988  -15.5525   24.7673 C.ar    1  UNL1       -0.0006
      4 C          -7.8794  -16.4674   24.9048 C.ar    1  UNL1       -0.0078
      5 C          -8.4669  -16.7353   26.2587 C.ar    1  UNL1       -0.0184
      6 C          -7.8737  -16.0883   27.4750 C.ar    1  UNL1       -0.0040
      7 C          -9.6225  -17.6758   26.0847 C.3     1  UNL1        0.0480
      8 C          -9.7491  -17.9891   24.6233 C.2     1  UNL1       -0.0420
      9 C          -8.6718  -17.2423   23.8941 C.2     1  UNL1       -0.0240
     10 C         -10.7733  -18.8909   24.0004 C.3     1  UNL1        0.0394
     11 C         -11.9572  -18.3038   23.2908 C.3     1  UNL1        0.0765
     12 N         -11.7901  -17.6953   21.9300 N.3     1  UNL1       -0.2724
     13 C         -11.4250  -18.4304   20.6744 C.3     1  UNL1        0.0721
     14 C         -11.3680  -17.4343   19.5542 C.3     1  UNL1        0.0188
     15 C         -11.6978  -16.0838   20.1176 C.3     1  UNL1        0.0188
     16 C         -11.9587  -16.2452   21.5859 C.3     1  UNL1        0.0721
     17 C          -8.4295  -17.2661   22.4140 C.3     1  UNL1        0.0730
     18 C          -7.4182  -18.2104   21.8346 C.ar    1  UNL1        0.0825
     19 C          -7.8243  -19.1805   20.7651 C.ar    1  UNL1        0.1139
     20 N          -6.8130  -20.1248   20.1857 N.ar    1  UNL1       -0.2394
     21 C          -5.3956  -20.0990   20.6760 C.ar    1  UNL1        0.1195
     22 C          -4.9896  -19.1289   21.7456 C.ar    1  UNL1        0.1191
     23 N          -6.0009  -18.1846   22.3249 N.ar    1  UNL1       -0.2446
@<TRIPOS>BOND
     1     1     2   ar
     2     2     3   ar
     3     3     4   ar
     4     4     5   ar
     5     5     6   ar
     6     5     7    1
     7     7     8    1
     8     8    10    1
     9    10    11    1
    10    11    12    1
    11    12    13    1
    12    13    14    1
    13    14    15    1
    14    15    16    1
    15     8     9    2
    16     9    17    1
    17    17    18    1
    18    18    19   ar
    19    19    20   ar
    20    20    21   ar
    21    21    22   ar
    22    22    23   ar
    23     6     1   ar
    24    16    12    1
    25    23    18   ar
    26     9     4    1
@<TRIPOS>MOLECULE
*****
 23 26 0 0 0
SMALL
GASTEIGER

@<TRIPOS>ATOM
      1 C          -7.5207  -15.1656   25.6413 C.ar    1  UNL1       -0.0003
      2 C          -6.6155  -15.1488   24.4454 C.ar    1  UNL1       -0.0000
      3 C          -6.8115  -16.1461   23.3423 C.ar    1  UNL1       -0.0006
      4 C          -7.9127  -17.1603   23.4351 C.ar    1  UNL1       -0.0078
      5 C          -8.8179  -17.1771   24.6310 C.ar    1  UNL1       -0.0184
      6 C          -8.6219  -16.1798   25.7341 C.ar    1  UNL1       -0.0040
      7 C          -9.8101  -18.2869   24.4459 C.3     1  UNL1        0.0480
      8 C          -9.5180  -18.9559   23.1355 C.2     1  UNL1       -0.0420
      9 C          -8.3454  -18.2596   22.5108 C.2     1  UNL1       -0.0240
     10 C         -10.2670  -20.1173   22.5522 C.3     1  UNL1        0.0394
     11 C         -11.2070  -19.9026   21.4032 C.3     1  UNL1        0.0765
     12 N         -11.5620  -18.5097   20.9748 N.3     1  UNL1       -0.2724
     13 C         -10.9883  -17.7756   19.7992 C.3     1  UNL1        0.0721
     14 C         -11.6248  -16.4184   19.7447 C.3     1  UNL1        0.0188
     15 C         -12.5919  -16.3138   20.8865 C.3     1  UNL1        0.0188
     16 C         -12.5531  -17.6063   21.6467 C.3     1  UNL1        0.0721
     17 C          -7.7159  -18.6025   21.1932 C.3     1  UNL1        0.0730
     18 C          -6.2529  -18.9261   21.1225 C.ar    1  UNL1        0.0825
     19 C          -5.5424  -19.4551   22.3330 C.ar    1  UNL1        0.1139
     20 N          -4.0795  -19.7787   22.2623 N.ar    1  UNL1       -0.2394
     21 C          -3.3269  -19.5732   20.9811 C.ar    1  UNL1        0.1195
     22 C          -4.0374  -19.0441   19.7706 C.ar    1  UNL1        0.1191
     23 N          -5.5004  -18.7206   19.8413 N.ar    1  UNL1       -0.2446
@<TRIPOS>BOND
     1     1     2   ar
     2     2     3   ar
     3     3     4   ar
     4     4     5   ar
     5     5     6   ar
     6     5     7    1
     7     7     8    1
     8     8    10    1
     9    10    11    1
    10    11    12    1
    11    12    13    1
    12    13    14    1
    13    14    15    1
    14    15    16    1
    15     8     9    2
    16     9    17    1
    17    17    18    1
    18    18    19   ar
    19    19    20   ar
    20    20    21   ar
    21    21    22   ar
    22    22    23   ar
    23     6     1   ar
    24    16    12    1
    25    23    18   ar
    26     9     4    1
@<TRIPOS>MOLECULE
*****
 23 26 0 0 0
SMALL
GASTEIGER

@<TRIPOS>ATOM
      1 C          -6.2307  -14.9742   24.8780 C.ar    1  UNL1       -0.0003
      2 C          -5.0507  -15.8871   24.7217 C.ar    1  UNL1       -0.0000
      3 C          -5.1290  -17.0615   23.7918 C.ar    1  UNL1       -0.0006
      4 C          -6.3872  -17.3230   23.0182 C.ar    1  UNL1       -0.0078
      5 C          -7.5671  -16.4102   23.1745 C.ar    1  UNL1       -0.0184
      6 C          -7.4889  -15.2358   24.1044 C.ar    1  UNL1       -0.0040
      7 C          -8.6657  -16.9165   22.2874 C.3     1  UNL1        0.0480
      8 C          -8.1647  -18.1423   21.5829 C.2     1  UNL1       -0.0420
      9 C          -6.7565  -18.3935   22.0345 C.2     1  UNL1       -0.0240
     10 C          -8.9363  -18.9714   20.5993 C.3     1  UNL1        0.0394
     11 C         -10.1773  -19.6917   21.0364 C.3     1  UNL1        0.0765
     12 N         -11.1474  -19.0202   21.9627 N.3     1  UNL1       -0.2724
     13 C         -11.2217  -19.2088   23.4490 C.3     1  UNL1        0.0721
     14 C         -12.3337  -18.3474   23.9703 C.3     1  UNL1        0.0188
     15 C         -12.9464  -17.6266   22.8063 C.3     1  UNL1        0.0188
     16 C         -12.2132  -18.0425   21.5655 C.3     1  UNL1        0.0721
     17 C          -5.8728  -19.5179   21.5820 C.3     1  UNL1        0.0730
     18 C          -4.4932  -19.2278   21.0696 C.ar    1  UNL1        0.0825
     19 C          -3.2937  -19.6366   21.8721 C.ar    1  UNL1        0.1139
     20 N          -1.9141  -19.3466   21.3596 N.ar    1  UNL1       -0.2394
     21 C          -1.7340  -18.6477   20.0447 C.ar    1  UNL1        0.1195
     22 C          -2.9334  -18.2389   19.2422 C.ar    1  UNL1        0.1191
     23 N          -4.3130  -18.5290   19.7546 N.ar    1  UNL1       -0.2446
@<TRIPOS>BOND
     1     1     2   ar
     2     2     3   ar
     3     3     4   ar
     4     4     5   ar
     5     5     6   ar
     6     5     7    1
     7     7     8    1
     8     8    10    1
     9    10    11    1
    10    11    12    1
    11    12    13    1
    12    13    14    1
    13    14    15    1
    14    15    16    1
    15     8     9    2
    16     9    17    1
    17    17    18    1
    18    18    19   ar
    19    19    20   ar
    20    20    21   ar
    21    21    22   ar
    22    22    23   ar
    23     6     1   ar
    24    16    12    1
    25    23    18   ar
    26     9     4    1
@<TRIPOS>MOLECULE
*****
 23 26 0 0 0
SMALL
GASTEIGER

@<TRIPOS>ATOM
      1 C          -6.5809  -14.7235   27.3319 C.ar    1  UNL1       -0.0003
      2 C          -8.0087  -15.1299   27.5471 C.ar    1  UNL1       -0.0000
      3 C          -8.7251  -15.9339   26.5028 C.ar    1  UNL1       -0.0006
      4 C          -8.0138  -16.3313   25.2435 C.ar    1  UNL1       -0.0078
      5 C          -6.5861  -15.9249   25.0284 C.ar    1  UNL1       -0.0184
      6 C          -5.8696  -15.1209   26.0726 C.ar    1  UNL1       -0.0040
      7 C          -6.1476  -16.4590   23.6969 C.3     1  UNL1        0.0480
      8 C          -7.3044  -17.1955   23.0892 C.2     1  UNL1       -0.0420
      9 C          -8.4578  -17.1166   24.0451 C.2     1  UNL1       -0.0240
     10 C          -7.3074  -17.8891   21.7592 C.3     1  UNL1        0.0394
     11 C          -6.7955  -19.2945   21.6452 C.3     1  UNL1        0.0765
     12 N          -5.3325  -19.5445   21.4281 N.3     1  UNL1       -0.2724
     13 C          -4.2280  -19.1995   22.3826 C.3     1  UNL1        0.0721
     14 C          -2.9300  -19.6252   21.7627 C.3     1  UNL1        0.0188
     15 C          -3.2324  -20.2332   20.4253 C.3     1  UNL1        0.0188
     16 C          -4.7172  -20.1833   20.2185 C.3     1  UNL1        0.0721
     17 C          -9.8166  -17.7175   23.8387 C.3     1  UNL1        0.0730
     18 C         -10.6590  -17.2852   22.6753 C.ar    1  UNL1        0.0825
     19 C         -11.9228  -18.0242   22.3489 C.ar    1  UNL1        0.1139
     20 N         -12.7653  -17.5920   21.1855 N.ar    1  UNL1       -0.2394
     21 C         -12.3438  -16.4207   20.3485 C.ar    1  UNL1        0.1195
     22 C         -11.0800  -15.6817   20.6749 C.ar    1  UNL1        0.1191
     23 N         -10.2376  -16.1140   21.8383 N.ar    1  UNL1       -0.2446
@<TRIPOS>BOND
     1     1     2   ar
     2     2     3   ar
     3     3     4   ar
     4     4     5   ar
     5     5     6   ar
     6     5     7    1
     7     7     8    1
     8     8    10    1
     9    10    11    1
    10    11    12    1
    11    12    13    1
    12    13    14    1
    13    14    15    1
    14    15    16    1
    15     8     9    2
    16     9    17    1
    17    17    18    1
    18    18    19   ar
    19    19    20   ar
    20    20    21   ar
    21    21    22   ar
    22    22    23   ar
    23     6     1   ar
    24    16    12    1
    25    23    18   ar
    26     9     4    1
@<TRIPOS>MOLECULE
*****
 23 26 0 0 0
SMALL
GASTEIGER

@<TRIPOS>ATOM
      1 C          -6.5466  -15.1264   25.1525 C.ar    1  UNL1       -0.0003
      2 C          -8.0236  -15.3820   25.0994 C.ar    1  UNL1       -0.0000
      3 C          -8.5678  -16.4520   24.1999 C.ar    1  UNL1       -0.0006
      4 C          -7.6348  -17.2663   23.3535 C.ar    1  UNL1       -0.0078
      5 C          -6.1578  -17.0107   23.4067 C.ar    1  UNL1       -0.0184
      6 C          -5.6136  -15.9408   24.3061 C.ar    1  UNL1       -0.0040
      7 C          -5.4877  -17.9665   22.4644 C.3     1  UNL1        0.0480
      8 C          -6.5508  -18.8127   21.8290 C.2     1  UNL1       -0.0420
      9 C          -7.8778  -18.3800   22.3785 C.2     1  UNL1       -0.0240
     10 C          -6.3263  -19.9007   20.8210 C.3     1  UNL1        0.0394
     11 C          -4.9737  -20.5362   20.6920 C.3     1  UNL1        0.0765
     12 N          -3.7790  -19.6950   20.3531 N.3     1  UNL1       -0.2724
     13 C          -2.4542  -19.7212   21.0562 C.3     1  UNL1        0.0721
     14 C          -1.5557  -18.7222   20.3892 C.3     1  UNL1        0.0188
     15 C          -2.3252  -18.0787   19.2740 C.3     1  UNL1        0.0188
     16 C          -3.6993  -18.6799   19.2517 C.3     1  UNL1        0.0721
     17 C          -9.2132  -18.9592   22.0165 C.3     1  UNL1        0.0730
     18 C         -10.3034  -18.0665   21.5022 C.ar    1  UNL1        0.0825
     19 C         -11.7400  -18.4646   21.6691 C.ar    1  UNL1        0.1139
     20 N         -12.8302  -17.5719   21.1548 N.ar    1  UNL1       -0.2394
     21 C         -12.4839  -16.2811   20.4736 C.ar    1  UNL1        0.1195
     22 C         -11.0474  -15.8831   20.3068 C.ar    1  UNL1        0.1191
     23 N          -9.9571  -16.7758   20.8211 N.ar    1  UNL1       -0.2446
@<TRIPOS>BOND
     1     1     2   ar
     2     2     3   ar
     3     3     4   ar
     4     4     5   ar
     5     5     6   ar
     6     5     7    1
     7     7     8    1
     8     8    10    1
     9    10    11    1
    10    11    12    1
    11    12    13    1
    12    13    14    1
    13    14    15    1
    14    15    16    1
    15     8     9    2
    16     9    17    1
    17    17    18    1
    18    18    19   ar
    19    19    20   ar
    20    20    21   ar
    21    21    22   ar
    22    22    23   ar
    23     6     1   ar
    24    16    12    1
    25    23    18   ar
    26     9     4    1
@<TRIPOS>MOLECULE
*****
 23 26 0 0 0
SMALL
GASTEIGER

@<TRIPOS>ATOM
      1 C          -7.9793  -14.9232   27.7386 C.ar    1  UNL1       -0.0003
      2 C          -9.0400  -15.1294   26.6982 C.ar    1  UNL1       -0.0000
      3 C          -8.6616  -15.5939   25.3231 C.ar    1  UNL1       -0.0006
      4 C          -7.2224  -15.8522   24.9883 C.ar    1  UNL1       -0.0078
      5 C          -6.1617  -15.6461   26.0286 C.ar    1  UNL1       -0.0184
      6 C          -6.5402  -15.1816   27.4038 C.ar    1  UNL1       -0.0040
      7 C          -4.8359  -15.9793   25.4112 C.3     1  UNL1        0.0480
      8 C          -5.0772  -16.3913   23.9893 C.2     1  UNL1       -0.0420
      9 C          -6.5522  -16.3128   23.7279 C.2     1  UNL1       -0.0240
     10 C          -4.0278  -16.8087   23.0020 C.3     1  UNL1        0.0394
     11 C          -3.5427  -18.2279   22.9780 C.3     1  UNL1        0.0765
     12 N          -3.9777  -19.1507   21.8784 N.3     1  UNL1       -0.2724
     13 C          -5.3647  -19.6833   21.6714 C.3     1  UNL1        0.0721
     14 C          -5.3463  -20.5647   20.4577 C.3     1  UNL1        0.0188
     15 C          -3.9481  -20.5767   19.9148 C.3     1  UNL1        0.0188
     16 C          -3.1023  -19.7028   20.7928 C.3     1  UNL1        0.0721
     17 C          -7.2367  -16.6378   22.4334 C.3     1  UNL1        0.0730
     18 C          -8.5200  -17.4145   22.4379 C.ar    1  UNL1        0.0825
     19 C          -9.7749  -16.7926   21.9010 C.ar    1  UNL1        0.1139
     20 N         -11.0582  -17.5693   21.9055 N.ar    1  UNL1       -0.2394
     21 C         -11.0865  -18.9679   22.4470 C.ar    1  UNL1        0.1195
     22 C          -9.8315  -19.5898   22.9839 C.ar    1  UNL1        0.1191
     23 N          -8.5483  -18.8131   22.9794 N.ar    1  UNL1       -0.2446
@<TRIPOS>BOND
     1     1     2   ar
     2     2     3   ar
     3     3     4   ar
     4     4     5   ar
     5     5     6   ar
     6     5     7    1
     7     7     8    1
     8     8    10    1
     9    10    11    1
    10    11    12    1
    11    12    13    1
    12    13    14    1
    13    14    15    1
    14    15    16    1
    15     8     9    2
    16     9    17    1
    17    17    18    1
    18    18    19   ar
    19    19    20   ar
    20    20    21   ar
    21    21    22   ar
    22    22    23   ar
    23     6     1   ar
    24    16    12    1
    25    23    18   ar
    26     9     4    1
@<TRIPOS>MOLECULE
*****
 23 26 0 0 0
SMALL
GASTEIGER

@<TRIPOS>ATOM
      1 C         -12.2689   -0.1933   18.2321 C.ar    1  UNL1       -0.0003
      2 C         -11.2670   -1.2808   18.4845 C.ar    1  UNL1       -0.0000
      3 C         -11.7251   -2.6258   18.9652 C.ar    1  UNL1       -0.0006
      4 C         -13.1851   -2.8834   19.1934 C.ar    1  UNL1       -0.0078
      5 C         -14.1869   -1.7959   18.9410 C.ar    1  UNL1       -0.0184
      6 C         -13.7288   -0.4509   18.4603 C.ar    1  UNL1       -0.0040
      7 C         -15.5498   -2.3398   19.2523 C.3     1  UNL1        0.0480
      8 C         -15.3902   -3.7634   19.6971 C.2     1  UNL1       -0.0420
      9 C         -13.9287   -4.0993   19.6607 C.2     1  UNL1       -0.0240
     10 C         -16.4976   -4.6888   20.1064 C.3     1  UNL1        0.0394
     11 C         -17.1383   -5.5872   19.0904 C.3     1  UNL1        0.0765
     12 N         -17.3615   -7.0366   19.4056 N.3     1  UNL1       -0.2724
     13 C         -16.2934   -8.0553   19.6732 C.3     1  UNL1        0.0721
     14 C         -16.9638   -9.3701   19.9416 C.3     1  UNL1        0.0188
     15 C         -18.4461   -9.1640   19.8399 C.3     1  UNL1        0.0188
     16 C         -18.6918   -7.7218   19.5086 C.3     1  UNL1        0.0721
     17 C         -13.3181   -5.4195   20.0272 C.3     1  UNL1        0.0730
     18 C         -12.5802   -6.2174   18.9934 C.ar    1  UNL1        0.0825
     19 C         -13.3422   -6.9973   17.9633 C.ar    1  UNL1        0.1139
     20 N         -12.6044   -7.7952   16.9294 N.ar    1  UNL1       -0.2394
     21 C         -11.1045   -7.8133   16.9257 C.ar    1  UNL1        0.1195
     22 C         -10.3425   -7.0335   17.9558 C.ar    1  UNL1        0.1191
     23 N         -11.0803   -6.2355   18.9896 N.ar    1  UNL1       -0.2446
@<TRIPOS>BOND
     1     1     2   ar
     2     2     3   ar
     3     3     4   ar
     4     4     5   ar
     5     5     6   ar
     6     5     7    1
     7     7     8    1
     8     8    10    1
     9    10    11    1
    10    11    12    1
    11    12    13    1
    12    13    14    1
    13    14    15    1
    14    15    16    1
    15     8     9    2
    16     9    17    1
    17    17    18    1
    18    18    19   ar
    19    19    20   ar
    20    20    21   ar
    21    21    22   ar
    22    22    23   ar
    23     6     1   ar
    24    16    12    1
    25    23    18   ar
    26     9     4    1
@<TRIPOS>MOLECULE
*****
 23 26 0 0 0
SMALL
GASTEIGER

@<TRIPOS>ATOM
      1 C          -9.5892   -7.3278   18.1429 C.ar    1  UNL1       -0.0003
      2 C          -9.3206   -6.0646   18.9058 C.ar    1  UNL1       -0.0000
      3 C         -10.4630   -5.2036   19.3569 C.ar    1  UNL1       -0.0006
      4 C         -11.8740   -5.6058   19.0452 C.ar    1  UNL1       -0.0078
      5 C         -12.1426   -6.8691   18.2824 C.ar    1  UNL1       -0.0184
      6 C         -11.0002   -7.7301   17.8312 C.ar    1  UNL1       -0.0040
      7 C         -13.6277   -7.0076   18.1232 C.3     1  UNL1        0.0480
      8 C         -14.2770   -5.8300   18.7877 C.2     1  UNL1       -0.0420
      9 C         -13.1931   -4.9636   19.3575 C.2     1  UNL1       -0.0240
     10 C         -15.7512   -5.5651   18.8682 C.3     1  UNL1        0.0394
     11 C         -16.6223   -6.4287   19.7315 C.3     1  UNL1        0.0765
     12 N         -16.9259   -7.8383   19.3183 N.3     1  UNL1       -0.2724
     13 C         -16.6126   -9.0752   20.1070 C.3     1  UNL1        0.0721
     14 C         -17.0891  -10.2599   19.3198 C.3     1  UNL1        0.0188
     15 C         -17.6969   -9.7552   18.0448 C.3     1  UNL1        0.0188
     16 C         -17.5960   -8.2586   18.0438 C.3     1  UNL1        0.0721
     17 C         -13.3932   -3.6803   20.1080 C.3     1  UNL1        0.0730
     18 C         -13.2879   -2.3675   19.3901 C.ar    1  UNL1        0.0825
     19 C         -11.9470   -1.8573   18.9526 C.ar    1  UNL1        0.1139
     20 N         -11.8417   -0.5444   18.2347 N.ar    1  UNL1       -0.2394
     21 C         -13.0774    0.2583   17.9544 C.ar    1  UNL1        0.1195
     22 C         -14.4184   -0.2519   18.3919 C.ar    1  UNL1        0.1191
     23 N         -14.5237   -1.5648   19.1098 N.ar    1  UNL1       -0.2446
@<TRIPOS>BOND
     1     1     2   ar
     2     2     3   ar
     3     3     4   ar
     4     4     5   ar
     5     5     6   ar
     6     5     7    1
     7     7     8    1
     8     8    10    1
     9    10    11    1
    10    11    12    1
    11    12    13    1
    12    13    14    1
    13    14    15    1
    14    15    16    1
    15     8     9    2
    16     9    17    1
    17    17    18    1
    18    18    19   ar
    19    19    20   ar
    20    20    21   ar
    21    21    22   ar
    22    22    23   ar
    23     6     1   ar
    24    16    12    1
    25    23    18   ar
    26     9     4    1
@<TRIPOS>MOLECULE
*****
 23 26 0 0 0
SMALL
GASTEIGER

@<TRIPOS>ATOM
      1 C         -15.5939   -1.6035   19.9357 C.ar    1  UNL1       -0.0003
      2 C         -16.6063   -2.2536   19.0401 C.ar    1  UNL1       -0.0000
      3 C         -16.3550   -3.6299   18.4989 C.ar    1  UNL1       -0.0006
      4 C         -15.0913   -4.3559   18.8534 C.ar    1  UNL1       -0.0078
      5 C         -14.0788   -3.7058   19.7490 C.ar    1  UNL1       -0.0184
      6 C         -14.3302   -2.3296   20.2902 C.ar    1  UNL1       -0.0040
      7 C         -12.9340   -4.6592   19.9234 C.3     1  UNL1        0.0480
      8 C         -13.2389   -5.8986   19.1354 C.2     1  UNL1       -0.0420
      9 C         -14.5722   -5.7112   18.4742 C.2     1  UNL1       -0.0240
     10 C         -12.3642   -7.1124   19.0276 C.3     1  UNL1        0.0394
     11 C         -11.3831   -7.2320   17.8993 C.3     1  UNL1        0.0765
     12 N         -10.7520   -6.0005   17.3205 N.3     1  UNL1       -0.2724
     13 C          -9.4184   -5.4303   17.7031 C.3     1  UNL1        0.0721
     14 C          -9.1859   -4.2003   16.8765 C.3     1  UNL1        0.0188
     15 C         -10.3757   -4.0106   15.9830 C.3     1  UNL1        0.0188
     16 C         -11.3436   -5.1232   16.2575 C.3     1  UNL1        0.0721
     17 C         -15.2648   -6.7046   17.5890 C.3     1  UNL1        0.0730
     18 C         -15.8696   -7.9430   18.1811 C.ar    1  UNL1        0.0825
     19 C         -15.3465   -9.2935   17.7907 C.ar    1  UNL1        0.1139
     20 N         -15.9513  -10.5319   18.3828 N.ar    1  UNL1       -0.2394
     21 C         -17.0792  -10.4198   19.3653 C.ar    1  UNL1        0.1195
     22 C         -17.6023   -9.0693   19.7557 C.ar    1  UNL1        0.1191
     23 N         -16.9975   -7.8308   19.1636 N.ar    1  UNL1       -0.2446
@<TRIPOS>BOND
     1     1     2   ar
     2     2     3   ar
     3     3     4   ar
     4     4     5   ar
     5     5     6   ar
     6     5     7    1
     7     7     8    1
     8     8    10    1
     9    10    11    1
    10    11    12    1
    11    12    13    1
    12    13    14    1
    13    14    15    1
    14    15    16    1
    15     8     9    2
    16     9    17    1
    17    17    18    1
    18    18    19   ar
    19    19    20   ar
    20    20    21   ar
    21    21    22   ar
    22    22    23   ar
    23     6     1   ar
    24    16    12    1
    25    23    18   ar
    26     9     4    1
