@<TRIPOS>MOLECULE
*****
 29 32 0 0 0
SMALL
GASTEIGER

@<TRIPOS>ATOM
      1 C         -11.0421  -17.1981   20.8909 C.ar    1  UNL1        0.1386
      2 C         -10.8876  -18.3269   19.9153 C.ar    1  UNL1        0.0369
      3 C          -9.5620  -19.0128   19.7658 C.ar    1  UNL1        0.0047
      4 C          -8.3909  -18.5698   20.5919 C.ar    1  UNL1        0.0196
      5 C          -8.5455  -17.4409   21.5674 C.ar    1  UNL1        0.0047
      6 C          -9.8711  -16.7550   21.7169 C.ar    1  UNL1        0.0369
      7 C          -7.0653  -19.2557   20.4424 C.ar    1  UNL1        0.1016
      8 C          -7.0058  -20.7457   20.2809 C.ar    1  UNL1        0.0258
      9 C          -5.6802  -21.4316   20.1313 C.ar    1  UNL1        0.0642
     10 C          -4.4140  -20.6274   20.1434 C.ar    1  UNL1        0.2830
     11 O          -3.0885  -21.3132   19.9938 O.2     1  UNL1       -0.2651
     12 N          -4.4736  -19.1373   20.3049 N.ar    1  UNL1       -0.1600
     13 N          -5.7992  -18.4514   20.4544 N.ar    1  UNL1       -0.1600
     14 C          -3.2074  -18.3330   20.3169 C.ar    1  UNL1        0.2557
     15 N          -2.1732  -18.5466   19.2516 N.ar    1  UNL1       -0.2083
     16 C          -0.9070  -17.7423   19.2636 C.ar    1  UNL1        0.1037
     17 C          -0.6752  -16.7246   20.3409 C.ar    1  UNL1        0.0415
     18 C          -1.7095  -16.5111   21.4061 C.ar    1  UNL1        0.1037
     19 N          -2.9756  -17.3153   21.3941 N.ar    1  UNL1       -0.2083
     20 O         -12.3677  -16.5122   21.0404 O.3     1  UNL1       -0.4754
     21 C         -13.0299  -16.4447   22.3846 C.3     1  UNL1        0.2068
     22 C         -13.3845  -17.7087   23.1103 C.3     1  UNL1        0.0646
     23 C         -12.5410  -18.1756   24.2594 C.3     1  UNL1        0.0759
     24 C          -9.6788  -17.8983   25.8022 C.3     1  UNL1        0.0173
     25 C         -10.0019  -18.8772   24.7126 C.3     1  UNL1        0.0576
     26 C          -9.0660  -19.9005   24.1408 C.3     1  UNL1        0.0174
     27 C          -9.8032  -20.6605   23.0782 C.3     1  UNL1        0.0187
     28 C         -11.1947  -20.1068   22.9933 C.3     1  UNL1        0.0721
     29 N         -11.3175  -19.0047   24.0034 N.3     1  UNL1       -0.2738
@<TRIPOS>BOND
     1    25    24    1
     2    25    26    1
     3    26    27    1
     4    27    28    1
     5    28    29    1
     6    29    23    1
     7    23    22    1
     8    22    21    1
     9    21    20    1
    10    20     1    1
    11     1     2   ar
    12     2     3   ar
    13     3     4   ar
    14     4     7    1
    15     7     8   ar
    16     8     9   ar
    17     9    10   ar
    18    10    11    2
    19    10    12   ar
    20    12    14    1
    21    14    15   ar
    22    15    16   ar
    23    16    17   ar
    24    17    18   ar
    25    18    19   ar
    26    12    13   ar
    27     4     5   ar
    28     5     6   ar
    29    29    25    1
    30     6     1   ar
    31    13     7   ar
    32    19    14   ar
@<TRIPOS>MOLECULE
*****
 29 32 0 0 0
SMALL
GASTEIGER

@<TRIPOS>ATOM
      1 C         -10.4678  -18.7430   24.1742 C.ar    1  UNL1        0.1386
      2 C          -9.9923  -20.1613   24.0628 C.ar    1  UNL1        0.0369
      3 C          -8.7740  -20.4821   23.2487 C.ar    1  UNL1        0.0047
      4 C          -8.0312  -19.3847   22.5460 C.ar    1  UNL1        0.0196
      5 C          -8.5066  -17.9664   22.6574 C.ar    1  UNL1        0.0047
      6 C          -9.7249  -17.6456   23.4715 C.ar    1  UNL1        0.0369
      7 C          -6.8128  -19.7056   21.7319 C.ar    1  UNL1        0.1016
      8 C          -6.7663  -20.9628   20.9151 C.ar    1  UNL1        0.0258
      9 C          -5.5480  -21.2837   20.1010 C.ar    1  UNL1        0.0642
     10 C          -4.3761  -20.3473   20.1037 C.ar    1  UNL1        0.2830
     11 O          -3.1578  -20.6681   19.2897 O.2     1  UNL1       -0.2651
     12 N          -4.4227  -19.0900   20.9206 N.ar    1  UNL1       -0.1600
     13 N          -5.6410  -18.7692   21.7346 N.ar    1  UNL1       -0.1600
     14 C          -3.2509  -18.1536   20.9233 C.ar    1  UNL1        0.2557
     15 N          -3.2120  -17.0036   21.8857 N.ar    1  UNL1       -0.2083
     16 C          -2.0402  -16.0672   21.8884 C.ar    1  UNL1        0.1037
     17 C          -0.9072  -16.2808   20.9288 C.ar    1  UNL1        0.0415
     18 C          -0.9461  -17.4307   19.9665 C.ar    1  UNL1        0.1037
     19 N          -2.1179  -18.3671   19.9637 N.ar    1  UNL1       -0.2083
     20 O         -11.6861  -18.4221   24.9883 O.3     1  UNL1       -0.4754
     21 C         -12.9991  -18.1731   24.3071 C.3     1  UNL1        0.2068
     22 C         -13.0668  -17.2577   23.1207 C.3     1  UNL1        0.0646
     23 C         -13.2804  -17.8236   21.7481 C.3     1  UNL1        0.0759
     24 C         -11.4889  -16.0046   19.7155 C.3     1  UNL1        0.0173
     25 C         -11.2846  -17.4617   20.0073 C.3     1  UNL1        0.0576
     26 C         -10.2209  -18.3385   19.4160 C.3     1  UNL1        0.0174
     27 C         -10.3869  -19.7166   19.9848 C.3     1  UNL1        0.0187
     28 C         -11.5533  -19.6914   20.9276 C.3     1  UNL1        0.0721
     29 N         -12.1080  -18.2978   20.9415 N.3     1  UNL1       -0.2738
@<TRIPOS>BOND
     1    25    24    1
     2    25    26    1
     3    26    27    1
     4    27    28    1
     5    28    29    1
     6    29    23    1
     7    23    22    1
     8    22    21    1
     9    21    20    1
    10    20     1    1
    11     1     2   ar
    12     2     3   ar
    13     3     4   ar
    14     4     7    1
    15     7     8   ar
    16     8     9   ar
    17     9    10   ar
    18    10    11    2
    19    10    12   ar
    20    12    14    1
    21    14    15   ar
    22    15    16   ar
    23    16    17   ar
    24    17    18   ar
    25    18    19   ar
    26    12    13   ar
    27     4     5   ar
    28     5     6   ar
    29    29    25    1
    30     6     1   ar
    31    13     7   ar
    32    19    14   ar
@<TRIPOS>MOLECULE
*****
 29 32 0 0 0
SMALL
GASTEIGER

@<TRIPOS>ATOM
      1 C         -11.3452  -18.8298   21.1330 C.ar    1  UNL1        0.1386
      2 C         -10.5556  -19.3652   22.2905 C.ar    1  UNL1        0.0369
      3 C          -9.1119  -19.7295   22.1090 C.ar    1  UNL1        0.0047
      4 C          -8.4578  -19.5584   20.7701 C.ar    1  UNL1        0.0196
      5 C          -9.2474  -19.0230   19.6126 C.ar    1  UNL1        0.0047
      6 C         -10.6911  -18.6587   19.7940 C.ar    1  UNL1        0.0369
      7 C          -7.0140  -19.9228   20.5886 C.ar    1  UNL1        0.1016
      8 C          -6.6369  -21.3205   20.1960 C.ar    1  UNL1        0.0258
      9 C          -5.1931  -21.6848   20.0145 C.ar    1  UNL1        0.0642
     10 C          -4.1265  -20.6514   20.2258 C.ar    1  UNL1        0.2830
     11 O          -2.6828  -21.0157   20.0443 O.2     1  UNL1       -0.2651
     12 N          -4.5038  -19.2537   20.6184 N.ar    1  UNL1       -0.1600
     13 N          -5.9475  -18.8894   20.7998 N.ar    1  UNL1       -0.1600
     14 C          -3.4372  -18.2203   20.8297 C.ar    1  UNL1        0.2557
     15 N          -3.4713  -17.3454   22.0477 N.ar    1  UNL1       -0.2083
     16 C          -2.4048  -16.3121   22.2589 C.ar    1  UNL1        0.1037
     17 C          -1.3042  -16.1536   21.2521 C.ar    1  UNL1        0.0415
     18 C          -1.2701  -17.0284   20.0342 C.ar    1  UNL1        0.1037
     19 N          -2.3366  -18.0618   19.8230 N.ar    1  UNL1       -0.2083
     20 O         -12.7889  -18.4654   21.3145 O.3     1  UNL1       -0.4754
     21 C         -13.1673  -17.3225   22.2092 C.3     1  UNL1        0.2068
     22 C         -12.2688  -16.1263   22.3185 C.3     1  UNL1        0.0646
     23 C         -11.3162  -16.0067   23.4709 C.3     1  UNL1        0.0759
     24 C          -9.1289  -16.9747   25.6909 C.3     1  UNL1        0.0173
     25 C          -8.8366  -16.6111   24.2653 C.3     1  UNL1        0.0576
     26 C          -7.4875  -16.6287   23.6099 C.3     1  UNL1        0.0174
     27 C          -7.6590  -16.1946   22.1843 C.3     1  UNL1        0.0187
     28 C          -9.1141  -15.9088   21.9588 C.3     1  UNL1        0.0721
     29 N          -9.8419  -16.1662   23.2449 N.3     1  UNL1       -0.2738
@<TRIPOS>BOND
     1    25    24    1
     2    25    26    1
     3    26    27    1
     4    27    28    1
     5    28    29    1
     6    29    23    1
     7    23    22    1
     8    22    21    1
     9    21    20    1
    10    20     1    1
    11     1     2   ar
    12     2     3   ar
    13     3     4   ar
    14     4     7    1
    15     7     8   ar
    16     8     9   ar
    17     9    10   ar
    18    10    11    2
    19    10    12   ar
    20    12    14    1
    21    14    15   ar
    22    15    16   ar
    23    16    17   ar
    24    17    18   ar
    25    18    19   ar
    26    12    13   ar
    27     4     5   ar
    28     5     6   ar
    29    29    25    1
    30     6     1   ar
    31    13     7   ar
    32    19    14   ar
@<TRIPOS>MOLECULE
*****
 29 32 0 0 0
SMALL
GASTEIGER

@<TRIPOS>ATOM
      1 C          -1.9039  -17.3933   21.7222 C.ar    1  UNL1        0.1386
      2 C          -2.4185  -15.9849   21.7620 C.ar    1  UNL1        0.0369
      3 C          -3.6052  -15.6439   22.6137 C.ar    1  UNL1        0.0047
      4 C          -4.2772  -16.7112   23.4256 C.ar    1  UNL1        0.0196
      5 C          -3.7626  -18.1195   23.3858 C.ar    1  UNL1        0.0047
      6 C          -2.5759  -18.4606   22.5341 C.ar    1  UNL1        0.0369
      7 C          -5.4640  -16.3700   24.2773 C.ar    1  UNL1        0.1016
      8 C          -5.2797  -15.5777   25.5376 C.ar    1  UNL1        0.0258
      9 C          -6.4665  -15.2366   26.3893 C.ar    1  UNL1        0.0642
     10 C          -7.8374  -15.6878   25.9807 C.ar    1  UNL1        0.2830
     11 O          -9.0241  -15.3468   26.8323 O.2     1  UNL1       -0.2651
     12 N          -8.0216  -16.4802   24.7204 N.ar    1  UNL1       -0.1600
     13 N          -6.8349  -16.8213   23.8687 N.ar    1  UNL1       -0.1600
     14 C          -9.3925  -16.9314   24.3118 C.ar    1  UNL1        0.2557
     15 N         -10.1661  -16.1503   23.2912 N.ar    1  UNL1       -0.2083
     16 C         -11.5370  -16.6015   22.8826 C.ar    1  UNL1        0.1037
     17 C         -12.1344  -17.8339   23.4946 C.ar    1  UNL1        0.0415
     18 C         -11.3608  -18.6150   24.5151 C.ar    1  UNL1        0.1037
     19 N          -9.9899  -18.1638   24.9237 N.ar    1  UNL1       -0.2083
     20 O          -0.7171  -17.7344   20.8705 O.3     1  UNL1       -0.4754
     21 C          -0.8858  -17.9299   19.3929 C.3     1  UNL1        0.2068
     22 C          -2.0827  -18.6642   18.8653 C.3     1  UNL1        0.0646
     23 C          -3.4514  -18.0672   19.0072 C.3     1  UNL1        0.0759
     24 C          -3.4946  -21.2797   19.5790 C.3     1  UNL1        0.0173
     25 C          -4.5453  -20.2952   19.9993 C.3     1  UNL1        0.0576
     26 C          -5.8003  -20.6144   20.7562 C.3     1  UNL1        0.0174
     27 C          -6.5562  -19.3351   20.9612 C.3     1  UNL1        0.0187
     28 C          -5.7683  -18.2251   20.3310 C.3     1  UNL1        0.0721
     29 N          -4.5255  -18.8185   19.7365 N.3     1  UNL1       -0.2738
@<TRIPOS>BOND
     1    25    24    1
     2    25    26    1
     3    26    27    1
     4    27    28    1
     5    28    29    1
     6    29    23    1
     7    23    22    1
     8    22    21    1
     9    21    20    1
    10    20     1    1
    11     1     2   ar
    12     2     3   ar
    13     3     4   ar
    14     4     7    1
    15     7     8   ar
    16     8     9   ar
    17     9    10   ar
    18    10    11    2
    19    10    12   ar
    20    12    14    1
    21    14    15   ar
    22    15    16   ar
    23    16    17   ar
    24    17    18   ar
    25    18    19   ar
    26    12    13   ar
    27     4     5   ar
    28     5     6   ar
    29    29    25    1
    30     6     1   ar
    31    13     7   ar
    32    19    14   ar
@<TRIPOS>MOLECULE
*****
 29 32 0 0 0
SMALL
GASTEIGER

@<TRIPOS>ATOM
      1 C           3.0433   -1.5288   21.0591 C.ar    1  UNL1        0.1386
      2 C           3.1617   -0.6857   22.2940 C.ar    1  UNL1        0.0369
      3 C           2.1921    0.4334   22.5339 C.ar    1  UNL1        0.0047
      4 C           1.1042    0.7093   21.5388 C.ar    1  UNL1        0.0196
      5 C           0.9858   -0.1338   20.3039 C.ar    1  UNL1        0.0047
      6 C           1.9554   -1.2528   20.0640 C.ar    1  UNL1        0.0369
      7 C           0.1345    1.8284   21.7787 C.ar    1  UNL1        0.1016
      8 C           0.2850    2.7052   22.9864 C.ar    1  UNL1        0.0258
      9 C          -0.6846    3.8243   23.2263 C.ar    1  UNL1        0.0642
     10 C          -1.8047    4.0666   22.2585 C.ar    1  UNL1        0.2830
     11 O          -2.7743    5.1857   22.4983 O.2     1  UNL1       -0.2651
     12 N          -1.9551    3.1898   21.0507 N.ar    1  UNL1       -0.1600
     13 N          -0.9855    2.0707   20.8109 N.ar    1  UNL1       -0.1600
     14 C          -3.0752    3.4321   20.0829 C.ar    1  UNL1        0.2557
     15 N          -2.7791    3.9575   18.7094 N.ar    1  UNL1       -0.2083
     16 C          -3.8992    4.1998   17.7415 C.ar    1  UNL1        0.1037
     17 C          -5.3153    3.9167   18.1472 C.ar    1  UNL1        0.0415
     18 C          -5.6114    3.3913   19.5206 C.ar    1  UNL1        0.1037
     19 N          -4.4913    3.1490   20.4884 N.ar    1  UNL1       -0.2083
     20 O           4.0129   -2.6479   20.8192 O.3     1  UNL1       -0.4754
     21 C           3.9389   -3.4455   19.5510 C.3     1  UNL1        0.2068
     22 C           5.0811   -3.4166   18.5790 C.3     1  UNL1        0.0646
     23 C           6.0376   -2.2611   18.5799 C.3     1  UNL1        0.0759
     24 C           3.7931   -0.8455   16.6805 C.3     1  UNL1        0.0173
     25 C           4.4892   -0.2093   17.8469 C.3     1  UNL1        0.0576
     26 C           4.2759    1.1894   18.3451 C.3     1  UNL1        0.0174
     27 C           5.1757    1.4032   19.5261 C.3     1  UNL1        0.0187
     28 C           5.9452    0.1366   19.7577 C.3     1  UNL1        0.0721
     29 N           5.5209   -0.8599   18.7200 N.3     1  UNL1       -0.2738
@<TRIPOS>BOND
     1    25    24    1
     2    25    26    1
     3    26    27    1
     4    27    28    1
     5    28    29    1
     6    29    23    1
     7    23    22    1
     8    22    21    1
     9    21    20    1
    10    20     1    1
    11     1     2   ar
    12     2     3   ar
    13     3     4   ar
    14     4     7    1
    15     7     8   ar
    16     8     9   ar
    17     9    10   ar
    18    10    11    2
    19    10    12   ar
    20    12    14    1
    21    14    15   ar
    22    15    16   ar
    23    16    17   ar
    24    17    18   ar
    25    18    19   ar
    26    12    13   ar
    27     4     5   ar
    28     5     6   ar
    29    29    25    1
    30     6     1   ar
    31    13     7   ar
    32    19    14   ar
@<TRIPOS>MOLECULE
*****
 29 32 0 0 0
SMALL
GASTEIGER

@<TRIPOS>ATOM
      1 C           3.4152   -1.4106   22.5864 C.ar    1  UNL1        0.1386
      2 C           2.7872   -0.2635   23.3210 C.ar    1  UNL1        0.0369
      3 C           1.8983    0.6986   22.5902 C.ar    1  UNL1        0.0047
      4 C           1.6374    0.5136   21.1247 C.ar    1  UNL1        0.0196
      5 C           2.2653   -0.6335   20.3900 C.ar    1  UNL1        0.0047
      6 C           3.1542   -1.5956   21.1209 C.ar    1  UNL1        0.0369
      7 C           0.7484    1.4757   20.3939 C.ar    1  UNL1        0.1016
      8 C           1.0660    1.8649   18.9805 C.ar    1  UNL1        0.0258
      9 C           0.1771    2.8271   18.2497 C.ar    1  UNL1        0.0642
     10 C          -1.0295    3.4001   18.9322 C.ar    1  UNL1        0.2830
     11 O          -1.9184    4.3622   18.2015 O.2     1  UNL1       -0.2651
     12 N          -1.3471    3.0109   20.3457 N.ar    1  UNL1       -0.1600
     13 N          -0.4581    2.0487   21.0764 N.ar    1  UNL1       -0.1600
     14 C          -2.5536    3.5838   21.0283 C.ar    1  UNL1        0.2557
     15 N          -3.8201    2.7841   21.1091 N.ar    1  UNL1       -0.2083
     16 C          -5.0267    3.3571   21.7917 C.ar    1  UNL1        0.1037
     17 C          -4.9667    4.7298   22.3935 C.ar    1  UNL1        0.0415
     18 C          -3.7002    5.5295   22.3127 C.ar    1  UNL1        0.1037
     19 N          -2.4937    4.9565   21.6301 N.ar    1  UNL1       -0.2083
     20 O           4.3041   -2.3728   23.3172 O.3     1  UNL1       -0.4754
     21 C           4.8127   -3.6006   22.6216 C.3     1  UNL1        0.2068
     22 C           6.2849   -3.7795   22.3965 C.3     1  UNL1        0.0646
     23 C           6.8187   -3.9200   21.0017 C.3     1  UNL1        0.0759
     24 C           4.5903   -4.8737   18.8168 C.3     1  UNL1        0.0173
     25 C           5.2296   -3.5188   18.8902 C.3     1  UNL1        0.0576
     26 C           4.9569   -2.3643   17.9721 C.3     1  UNL1        0.0174
     27 C           5.8126   -1.2124   18.4090 C.3     1  UNL1        0.0187
     28 C           6.6142   -1.6550   19.5971 C.3     1  UNL1        0.0721
     29 N           6.2539   -3.0804   19.8945 N.3     1  UNL1       -0.2738
@<TRIPOS>BOND
     1    25    24    1
     2    25    26    1
     3    26    27    1
     4    27    28    1
     5    28    29    1
     6    29    23    1
     7    23    22    1
     8    22    21    1
     9    21    20    1
    10    20     1    1
    11     1     2   ar
    12     2     3   ar
    13     3     4   ar
    14     4     7    1
    15     7     8   ar
    16     8     9   ar
    17     9    10   ar
    18    10    11    2
    19    10    12   ar
    20    12    14    1
    21    14    15   ar
    22    15    16   ar
    23    16    17   ar
    24    17    18   ar
    25    18    19   ar
    26    12    13   ar
    27     4     5   ar
    28     5     6   ar
    29    29    25    1
    30     6     1   ar
    31    13     7   ar
    32    19    14   ar
@<TRIPOS>MOLECULE
*****
 29 32 0 0 0
SMALL
GASTEIGER

@<TRIPOS>ATOM
      1 C           3.1845   -1.2912   19.0661 C.ar    1  UNL1        0.1386
      2 C           3.3381   -0.0742   18.2029 C.ar    1  UNL1        0.0369
      3 C           2.3319    1.0351   18.2846 C.ar    1  UNL1        0.0047
      4 C           1.1719    0.9275   19.2295 C.ar    1  UNL1        0.0196
      5 C           1.0183   -0.2895   20.0928 C.ar    1  UNL1        0.0047
      6 C           2.0245   -1.3988   20.0111 C.ar    1  UNL1        0.0369
      7 C           0.1657    2.0370   19.3112 C.ar    1  UNL1        0.1016
      8 C           0.1006    3.0718   18.2273 C.ar    1  UNL1        0.0258
      9 C          -0.9057    4.1812   18.3090 C.ar    1  UNL1        0.0642
     10 C          -1.8469    4.2558   19.4746 C.ar    1  UNL1        0.2830
     11 O          -2.8531    5.3651   19.5563 O.2     1  UNL1       -0.2651
     12 N          -1.7818    3.2209   20.5585 N.ar    1  UNL1       -0.1600
     13 N          -0.7755    2.1115   20.4768 N.ar    1  UNL1       -0.1600
     14 C          -2.7230    3.2954   21.7241 C.ar    1  UNL1        0.2557
     15 N          -4.1479    2.8537   21.5669 N.ar    1  UNL1       -0.2083
     16 C          -5.0891    2.9283   22.7325 C.ar    1  UNL1        0.1037
     17 C          -4.6054    3.4445   24.0552 C.ar    1  UNL1        0.0415
     18 C          -3.1806    3.8861   24.2124 C.ar    1  UNL1        0.1037
     19 N          -2.2394    3.8116   23.0468 N.ar    1  UNL1       -0.2083
     20 O           4.1907   -2.4007   18.9845 O.3     1  UNL1       -0.4754
     21 C           5.6426   -2.0829   18.7818 C.3     1  UNL1        0.2068
     22 C           6.6537   -2.5104   19.8041 C.3     1  UNL1        0.0646
     23 C           6.8169   -1.7251   21.0716 C.3     1  UNL1        0.0759
     24 C           4.6611   -3.5386   22.7188 C.3     1  UNL1        0.0173
     25 C           4.6173   -2.0482   22.5555 C.3     1  UNL1        0.0576
     26 C           3.5748   -1.1296   23.1208 C.3     1  UNL1        0.0174
     27 C           3.9214    0.2717   22.7130 C.3     1  UNL1        0.0187
     28 C           5.1781    0.2192   21.8957 C.3     1  UNL1        0.0721
     29 N           5.6082   -1.2146   21.7984 N.3     1  UNL1       -0.2738
@<TRIPOS>BOND
     1    25    24    1
     2    25    26    1
     3    26    27    1
     4    27    28    1
     5    28    29    1
     6    29    23    1
     7    23    22    1
     8    22    21    1
     9    21    20    1
    10    20     1    1
    11     1     2   ar
    12     2     3   ar
    13     3     4   ar
    14     4     7    1
    15     7     8   ar
    16     8     9   ar
    17     9    10   ar
    18    10    11    2
    19    10    12   ar
    20    12    14    1
    21    14    15   ar
    22    15    16   ar
    23    16    17   ar
    24    17    18   ar
    25    18    19   ar
    26    12    13   ar
    27     4     5   ar
    28     5     6   ar
    29    29    25    1
    30     6     1   ar
    31    13     7   ar
    32    19    14   ar
@<TRIPOS>MOLECULE
*****
 29 32 0 0 0
SMALL
GASTEIGER

@<TRIPOS>ATOM
      1 C           3.5096   -2.0287   21.5242 C.ar    1  UNL1        0.1386
      2 C           3.1322   -0.9019   22.4395 C.ar    1  UNL1        0.0369
      3 C           2.2319    0.1931   21.9493 C.ar    1  UNL1        0.0047
      4 C           1.7089    0.1612   20.5438 C.ar    1  UNL1        0.0196
      5 C           2.0863   -0.9656   19.6285 C.ar    1  UNL1        0.0047
      6 C           2.9867   -2.0605   20.1187 C.ar    1  UNL1        0.0369
      7 C           0.8085    1.2563   20.0536 C.ar    1  UNL1        0.1016
      8 C           1.0646    1.8983   18.7224 C.ar    1  UNL1        0.0258
      9 C           0.1642    2.9933   18.2321 C.ar    1  UNL1        0.0642
     10 C          -0.9923    3.4463   19.0732 C.ar    1  UNL1        0.2830
     11 O          -1.8927    4.5412   18.5831 O.2     1  UNL1       -0.2651
     12 N          -1.2484    2.8042   20.4045 N.ar    1  UNL1       -0.1600
     13 N          -0.3480    1.7092   20.8946 N.ar    1  UNL1       -0.1600
     14 C          -2.4049    3.2571   21.2456 C.ar    1  UNL1        0.2557
     15 N          -2.1655    4.1279   22.4433 N.ar    1  UNL1       -0.2083
     16 C          -3.3220    4.5808   23.2844 C.ar    1  UNL1        0.1037
     17 C          -4.7178    4.1630   22.9277 C.ar    1  UNL1        0.0415
     18 C          -4.9571    3.2922   21.7300 C.ar    1  UNL1        0.1037
     19 N          -3.8006    2.8393   20.8889 N.ar    1  UNL1       -0.2083
     20 O           4.4101   -3.1237   22.0144 O.3     1  UNL1       -0.4754
     21 C           5.8991   -2.9528   21.9561 C.3     1  UNL1        0.2068
     22 C           6.5777   -2.7328   20.6365 C.3     1  UNL1        0.0646
     23 C           6.9440   -1.3441   20.2038 C.3     1  UNL1        0.0759
     24 C           5.4487    1.5285   20.6055 C.3     1  UNL1        0.0173
     25 C           5.4229    0.6871   19.3641 C.3     1  UNL1        0.0576
     26 C           4.7052    1.0184   18.0893 C.3     1  UNL1        0.0174
     27 C           4.9489   -0.0973   17.1166 C.3     1  UNL1        0.0187
     28 C           5.8173   -1.1181   17.7904 C.3     1  UNL1        0.0721
     29 N           6.1102   -0.6333   19.1794 N.3     1  UNL1       -0.2738
@<TRIPOS>BOND
     1    25    24    1
     2    25    26    1
     3    26    27    1
     4    27    28    1
     5    28    29    1
     6    29    23    1
     7    23    22    1
     8    22    21    1
     9    21    20    1
    10    20     1    1
    11     1     2   ar
    12     2     3   ar
    13     3     4   ar
    14     4     7    1
    15     7     8   ar
    16     8     9   ar
    17     9    10   ar
    18    10    11    2
    19    10    12   ar
    20    12    14    1
    21    14    15   ar
    22    15    16   ar
    23    16    17   ar
    24    17    18   ar
    25    18    19   ar
    26    12    13   ar
    27     4     5   ar
    28     5     6   ar
    29    29    25    1
    30     6     1   ar
    31    13     7   ar
    32    19    14   ar
@<TRIPOS>MOLECULE
*****
 29 32 0 0 0
SMALL
GASTEIGER

@<TRIPOS>ATOM
      1 C           8.0752   -2.5128   21.0005 C.ar    1  UNL1        0.1386
      2 C           8.1823   -3.9871   20.7456 C.ar    1  UNL1        0.0369
      3 C           8.1965   -4.9482   21.8971 C.ar    1  UNL1        0.0047
      4 C           8.1035   -4.4351   23.3035 C.ar    1  UNL1        0.0196
      5 C           7.9964   -2.9608   23.5585 C.ar    1  UNL1        0.0047
      6 C           7.9822   -1.9997   22.4070 C.ar    1  UNL1        0.0369
      7 C           8.1177   -5.3963   24.4551 C.ar    1  UNL1        0.1016
      8 C           8.1596   -6.8736   24.1984 C.ar    1  UNL1        0.0258
      9 C           8.1738   -7.8348   25.3500 C.ar    1  UNL1        0.0642
     10 C           8.1460   -7.3186   26.7581 C.ar    1  UNL1        0.2830
     11 O           8.1602   -8.2798   27.9096 O.2     1  UNL1       -0.2651
     12 N           8.1041   -5.8413   27.0147 N.ar    1  UNL1       -0.1600
     13 N           8.0900   -4.8802   25.8632 N.ar    1  UNL1       -0.1600
     14 C           8.0764   -5.3252   28.4228 C.ar    1  UNL1        0.2557
     15 N           6.7785   -4.8917   29.0373 N.ar    1  UNL1       -0.2083
     16 C           6.7507   -4.3755   30.4454 C.ar    1  UNL1        0.1037
     17 C           8.0210   -4.2929   31.2391 C.ar    1  UNL1        0.0415
     18 C           9.3188   -4.7264   30.6246 C.ar    1  UNL1        0.1037
     19 N           9.3465   -5.2425   29.2165 N.ar    1  UNL1       -0.2083
     20 O           8.0610   -1.5516   19.8490 O.3     1  UNL1       -0.4754
     21 C           7.4880   -1.9721   18.5281 C.3     1  UNL1        0.2068
     22 C           6.2976   -1.2542   17.9643 C.3     1  UNL1        0.0646
     23 C           4.9132   -1.6613   18.3734 C.3     1  UNL1        0.0759
     24 C           4.6279   -4.8719   18.8829 C.3     1  UNL1        0.0173
     25 C           4.5569   -3.8029   19.9327 C.3     1  UNL1        0.0576
     26 C           4.3422   -4.0219   21.4010 C.3     1  UNL1        0.0174
     27 C           4.3407   -2.6815   22.0743 C.3     1  UNL1        0.0187
     28 C           4.5544   -1.6341   21.0221 C.3     1  UNL1        0.0721
     29 N           4.6880   -2.3271   19.6985 N.3     1  UNL1       -0.2738
@<TRIPOS>BOND
     1    25    24    1
     2    25    26    1
     3    26    27    1
     4    27    28    1
     5    28    29    1
     6    29    23    1
     7    23    22    1
     8    22    21    1
     9    21    20    1
    10    20     1    1
    11     1     2   ar
    12     2     3   ar
    13     3     4   ar
    14     4     7    1
    15     7     8   ar
    16     8     9   ar
    17     9    10   ar
    18    10    11    2
    19    10    12   ar
    20    12    14    1
    21    14    15   ar
    22    15    16   ar
    23    16    17   ar
    24    17    18   ar
    25    18    19   ar
    26    12    13   ar
    27     4     5   ar
    28     5     6   ar
    29    29    25    1
    30     6     1   ar
    31    13     7   ar
    32    19    14   ar
