@<TRIPOS>MOLECULE
*****
 37 40 0 0 0
SMALL
GASTEIGER

@<TRIPOS>ATOM
      1 C         -13.5202   -3.4485   17.6060 C.ar    1  UNL1        0.0383
      2 C         -13.1567   -4.9034   17.5732 C.ar    1  UNL1        0.0433
      3 N         -14.1803   -5.6549   18.3717 N.ar    1  UNL1       -0.3260
      4 C         -15.1764   -4.6645   18.8979 C.ar    1  UNL1        0.0606
      5 C         -16.4022   -4.8282   19.7468 C.ar    1  UNL1        0.0203
      6 C         -17.2199   -3.6282   20.1225 C.ar    1  UNL1        0.0384
      7 C         -16.8120   -2.2645   19.6492 C.ar    1  UNL1        0.1392
      8 C         -15.5862   -2.1008   18.8003 C.ar    1  UNL1        0.0389
      9 C         -14.7684   -3.3008   18.4247 C.ar    1  UNL1        0.0256
     10 S         -12.7676   -2.3364   16.9375 S.3     1  UNL1       -0.1142
     11 C         -13.5160   -0.4053   16.4785 C.3     1  UNL1        0.0112
     12 C         -12.6899   -0.9868   17.5872 C.3     1  UNL1        0.0434
     13 C         -11.8637   -1.5682   18.6960 C.3     1  UNL1        0.0112
     14 C         -12.6120    0.3629   18.2370 C.3     1  UNL1        0.0112
     15 C         -11.9769   -5.5017   16.8662 C.3     1  UNL1        0.0495
     16 C         -10.9724   -6.3086   17.6342 C.3     1  UNL1        0.0376
     17 C         -11.2524   -7.4924   16.7567 C.3     1  UNL1        0.0059
     18 C         -10.6923   -5.1248   18.5117 C.3     1  UNL1        0.0059
     19 C          -9.9678   -7.1156   18.4022 C.2     1  UNL1        0.0500
     20 O          -9.2536   -6.5069   19.5724 O.co2   1  UNL1       -0.5492
     21 O          -9.6775   -8.5311   17.9999 O.co2   1  UNL1       -0.5492
     22 C         -14.2037   -7.1367   18.6033 C.3     1  UNL1        0.1324
     23 C         -15.4874   -7.8987   18.4556 C.ar    1  UNL1        0.0004
     24 C         -16.0270   -8.6899   19.6101 C.ar    1  UNL1       -0.0015
     25 C         -17.3106   -9.4519   19.4626 C.ar    1  UNL1        0.0111
     26 C         -18.0545   -9.4227   18.1604 C.ar    1  UNL1        0.0577
     27 CL        -19.3381  -10.1846   18.0127 Cl      1  UNL1       -0.0822
     28 C         -17.5150   -8.6315   17.0059 C.ar    1  UNL1        0.0111
     29 C         -16.2314   -7.8696   17.1534 C.ar    1  UNL1       -0.0015
     30 O         -17.6298   -1.0644   20.0250 O.3     1  UNL1       -0.4690
     31 C         -17.2381    0.2956   19.5281 C.3     1  UNL1        0.2508
     32 C         -16.9898    1.4076   20.5037 C.ar    1  UNL1        0.1026
     33 C         -16.1891    2.6058   20.0873 C.ar    1  UNL1        0.0185
     34 C         -15.9408    3.7178   21.0628 C.ar    1  UNL1        0.0029
     35 C         -16.4930    3.6316   22.4548 C.ar    1  UNL1        0.0207
     36 C         -17.2937    2.4335   22.8712 C.ar    1  UNL1        0.0986
     37 N         -17.5420    1.3215   21.8957 N.ar    1  UNL1       -0.2445
@<TRIPOS>UNITY_ATOM_ATTR
20 1
charge -1
@<TRIPOS>BOND
     1    11    12    1
     2    12    13    1
     3    12    14    1
     4    12    10    1
     5    10     1    1
     6     1     2   ar
     7     2    15    1
     8    15    16    1
     9    16    17    1
    10    16    18    1
    11    16    19    1
    12    19    20   ar
    13    19    21   ar
    14     2     3   ar
    15     3    22    1
    16    22    23    1
    17    23    24   ar
    18    24    25   ar
    19    25    26   ar
    20    26    27    1
    21    26    28   ar
    22    28    29   ar
    23     3     4   ar
    24     4     5   ar
    25     5     6   ar
    26     6     7   ar
    27     7    30    1
    28    30    31    1
    29    31    32    1
    30    32    33   ar
    31    33    34   ar
    32    34    35   ar
    33    35    36   ar
    34    36    37   ar
    35     7     8   ar
    36     8     9   ar
    37     9     1   ar
    38    29    23   ar
    39     9     4   ar
    40    37    32   ar
@<TRIPOS>MOLECULE
*****
 37 40 0 0 0
SMALL
GASTEIGER

@<TRIPOS>ATOM
      1 C           5.9415   -3.5620   23.1169 C.ar    1  UNL1        0.0383
      2 C           5.1392   -3.3359   21.8698 C.ar    1  UNL1        0.0433
      3 N           4.0960   -2.3010   22.1712 N.ar    1  UNL1       -0.3260
      4 C           4.2536   -1.8875   23.6044 C.ar    1  UNL1        0.0606
      5 C           3.5059   -0.9020   24.4527 C.ar    1  UNL1        0.0203
      6 C           3.8988   -0.6959   25.8856 C.ar    1  UNL1        0.0384
      7 C           5.0394   -1.4753   26.4701 C.ar    1  UNL1        0.1392
      8 C           5.7871   -2.4608   25.6218 C.ar    1  UNL1        0.0389
      9 C           5.3942   -2.6669   24.1889 C.ar    1  UNL1        0.0256
     10 S           7.0895   -4.5159   23.2658 S.3     1  UNL1       -0.1142
     11 C           8.6208   -3.0589   23.0859 C.3     1  UNL1        0.0112
     12 C           8.2857   -4.1279   24.0833 C.3     1  UNL1        0.0434
     13 C           7.9507   -5.1970   25.0809 C.3     1  UNL1        0.0112
     14 C           9.4820   -3.7400   24.9009 C.3     1  UNL1        0.0112
     15 C           5.3440   -4.0239   20.5528 C.3     1  UNL1        0.0495
     16 C           5.5546   -3.2137   19.3081 C.3     1  UNL1        0.0376
     17 C           4.2997   -3.7889   18.7214 C.3     1  UNL1        0.0059
     18 C           6.8094   -2.6384   19.8949 C.3     1  UNL1        0.0059
     19 C           5.7651   -2.4034   18.0634 C.2     1  UNL1        0.0500
     20 O           7.1485   -2.2186   17.5139 O.co2   1  UNL1       -0.5492
     21 O           4.5923   -1.7781   17.3683 O.co2   1  UNL1       -0.5492
     22 C           3.0746   -1.7723   21.2083 C.3     1  UNL1        0.1324
     23 C           3.3717   -0.5451   20.3985 C.ar    1  UNL1        0.0004
     24 C           4.6440    0.2154   20.6285 C.ar    1  UNL1       -0.0015
     25 C           4.9412    1.4426   19.8188 C.ar    1  UNL1        0.0111
     26 C           3.9660    1.9093   18.7790 C.ar    1  UNL1        0.0577
     27 CL          4.2631    3.1365   17.9693 Cl      1  UNL1       -0.0822
     28 C           2.6937    1.1489   18.5490 C.ar    1  UNL1        0.0111
     29 C           2.3965   -0.0783   19.3587 C.ar    1  UNL1       -0.0015
     30 O           5.4322   -1.2692   27.9031 O.3     1  UNL1       -0.4690
     31 C           6.7541   -1.7761   28.3987 C.3     1  UNL1        0.2508
     32 C           6.8097   -2.9886   29.2802 C.ar    1  UNL1        0.1026
     33 C           6.9012   -4.3558   28.6700 C.ar    1  UNL1        0.0185
     34 C           6.9568   -5.5682   29.5515 C.ar    1  UNL1        0.0029
     35 C           6.9208   -5.4134   31.0430 C.ar    1  UNL1        0.0207
     36 C           6.8292   -4.0461   31.6531 C.ar    1  UNL1        0.0986
     37 N           6.7737   -2.8338   30.7717 N.ar    1  UNL1       -0.2445
@<TRIPOS>UNITY_ATOM_ATTR
20 1
charge -1
@<TRIPOS>BOND
     1    11    12    1
     2    12    13    1
     3    12    14    1
     4    12    10    1
     5    10     1    1
     6     1     2   ar
     7     2    15    1
     8    15    16    1
     9    16    17    1
    10    16    18    1
    11    16    19    1
    12    19    20   ar
    13    19    21   ar
    14     2     3   ar
    15     3    22    1
    16    22    23    1
    17    23    24   ar
    18    24    25   ar
    19    25    26   ar
    20    26    27    1
    21    26    28   ar
    22    28    29   ar
    23     3     4   ar
    24     4     5   ar
    25     5     6   ar
    26     6     7   ar
    27     7    30    1
    28    30    31    1
    29    31    32    1
    30    32    33   ar
    31    33    34   ar
    32    34    35   ar
    33    35    36   ar
    34    36    37   ar
    35     7     8   ar
    36     8     9   ar
    37     9     1   ar
    38    29    23   ar
    39     9     4   ar
    40    37    32   ar
@<TRIPOS>MOLECULE
*****
 37 40 0 0 0
SMALL
GASTEIGER

@<TRIPOS>ATOM
      1 C           4.9077   -2.6641   23.1555 C.ar    1  UNL1        0.0383
      2 C           4.3538   -2.6673   21.7615 C.ar    1  UNL1        0.0433
      3 N           3.2798   -1.6228   21.6870 N.ar    1  UNL1       -0.3260
      4 C           3.1699   -0.9740   23.0350 C.ar    1  UNL1        0.0606
      5 C           2.2837    0.1196   23.5533 C.ar    1  UNL1        0.0203
      6 C           2.4036    0.5696   24.9791 C.ar    1  UNL1        0.0384
      7 C           3.4096   -0.0739   25.8867 C.ar    1  UNL1        0.1392
      8 C           4.2958   -1.1675   25.3684 C.ar    1  UNL1        0.0389
      9 C           4.1760   -1.6176   23.9426 C.ar    1  UNL1        0.0256
     10 S           6.0012   -3.5515   23.6718 S.3     1  UNL1       -0.1142
     11 C           7.5228   -2.1118   23.3368 C.3     1  UNL1        0.0112
     12 C           7.1121   -2.9710   24.4957 C.3     1  UNL1        0.0434
     13 C           6.7014   -3.8303   25.6547 C.3     1  UNL1        0.0112
     14 C           8.2230   -2.3906   25.3197 C.3     1  UNL1        0.0112
     15 C           4.7963   -3.5586   20.6390 C.3     1  UNL1        0.0495
     16 C           5.1454   -2.9677   19.3053 C.3     1  UNL1        0.0376
     17 C           4.0493   -3.7666   18.6645 C.3     1  UNL1        0.0059
     18 C           6.2414   -2.1689   19.9460 C.3     1  UNL1        0.0059
     19 C           5.4944   -2.3769   17.9714 C.2     1  UNL1        0.0500
     20 O           4.4258   -1.7492   17.1264 O.co2   1  UNL1       -0.5492
     21 O           6.9120   -2.4139   17.4825 O.co2   1  UNL1       -0.5492
     22 C           2.4597   -1.2862   20.4771 C.3     1  UNL1        0.1324
     23 C           2.6052    0.0555   19.8219 C.ar    1  UNL1        0.0004
     24 C           1.3999    0.7518   19.2631 C.ar    1  UNL1       -0.0015
     25 C           1.5452    2.0933   18.6080 C.ar    1  UNL1        0.0111
     26 C           2.8960    2.7385   18.5118 C.ar    1  UNL1        0.0577
     27 CL          3.0414    4.0800   17.8568 Cl      1  UNL1       -0.0822
     28 C           4.1013    2.0421   19.0706 C.ar    1  UNL1        0.0111
     29 C           3.9559    0.7006   19.7257 C.ar    1  UNL1       -0.0015
     30 O           3.5295    0.3762   27.3126 O.3     1  UNL1       -0.4690
     31 C           2.5797   -0.1499   28.3475 C.3     1  UNL1        0.2508
     32 C           1.1511    0.3075   28.3560 C.ar    1  UNL1        0.1026
     33 C           0.7771    1.6111   27.7152 C.ar    1  UNL1        0.0185
     34 C          -0.6514    2.0685   27.7238 C.ar    1  UNL1        0.0029
     35 C          -1.7060    1.2221   28.3730 C.ar    1  UNL1        0.0207
     36 C          -1.3320   -0.0815   29.0138 C.ar    1  UNL1        0.0986
     37 N           0.0965   -0.5389   29.0052 N.ar    1  UNL1       -0.2445
@<TRIPOS>UNITY_ATOM_ATTR
20 1
charge -1
@<TRIPOS>BOND
     1    11    12    1
     2    12    13    1
     3    12    14    1
     4    12    10    1
     5    10     1    1
     6     1     2   ar
     7     2    15    1
     8    15    16    1
     9    16    17    1
    10    16    18    1
    11    16    19    1
    12    19    20   ar
    13    19    21   ar
    14     2     3   ar
    15     3    22    1
    16    22    23    1
    17    23    24   ar
    18    24    25   ar
    19    25    26   ar
    20    26    27    1
    21    26    28   ar
    22    28    29   ar
    23     3     4   ar
    24     4     5   ar
    25     5     6   ar
    26     6     7   ar
    27     7    30    1
    28    30    31    1
    29    31    32    1
    30    32    33   ar
    31    33    34   ar
    32    34    35   ar
    33    35    36   ar
    34    36    37   ar
    35     7     8   ar
    36     8     9   ar
    37     9     1   ar
    38    29    23   ar
    39     9     4   ar
    40    37    32   ar
@<TRIPOS>MOLECULE
*****
 37 40 0 0 0
SMALL
GASTEIGER

@<TRIPOS>ATOM
      1 C           4.6984   -2.3238   23.2256 C.ar    1  UNL1        0.0383
      2 C           4.2893   -2.4200   21.7857 C.ar    1  UNL1        0.0433
      3 N           3.1655   -1.4529   21.5577 N.ar    1  UNL1       -0.3260
      4 C           2.8801   -0.7592   22.8566 C.ar    1  UNL1        0.0606
      5 C           1.8800    0.2931   23.2339 C.ar    1  UNL1        0.0203
      6 C           1.8273    0.8071   24.6420 C.ar    1  UNL1        0.0384
      7 C           2.7747    0.2689   25.6729 C.ar    1  UNL1        0.1392
      8 C           3.7748   -0.7834   25.2956 C.ar    1  UNL1        0.0389
      9 C           3.8275   -1.2974   23.8875 C.ar    1  UNL1        0.0256
     10 S           5.7873   -3.1152   23.8875 S.3     1  UNL1       -0.1142
     11 C           7.2630   -4.4212   23.1023 C.3     1  UNL1        0.0112
     12 C           7.2088   -2.9595   23.4348 C.3     1  UNL1        0.0434
     13 C           7.1546   -1.4978   23.7673 C.3     1  UNL1        0.0112
     14 C           8.6304   -2.8038   22.9821 C.3     1  UNL1        0.0112
     15 C           4.8971   -3.3243   20.7549 C.3     1  UNL1        0.0495
     16 C           5.2463   -2.7875   19.3985 C.3     1  UNL1        0.0376
     17 C           4.3161   -3.7798   18.7662 C.3     1  UNL1        0.0059
     18 C           6.1766   -1.7951   20.0308 C.3     1  UNL1        0.0059
     19 C           5.5955   -2.2506   18.0420 C.2     1  UNL1        0.0500
     20 O           4.5396   -1.6001   17.1983 O.co2   1  UNL1       -0.5492
     21 O           7.0006   -2.3642   17.5294 O.co2   1  UNL1       -0.5492
     22 C           2.4523   -1.2205   20.2587 C.3     1  UNL1        0.1324
     23 C           2.4172    0.1535   19.6577 C.ar    1  UNL1        0.0004
     24 C           1.1297    0.7046   19.1206 C.ar    1  UNL1       -0.0015
     25 C           1.0946    2.0784   18.5196 C.ar    1  UNL1        0.0111
     26 C           2.3471    2.9012   18.4558 C.ar    1  UNL1        0.0577
     27 CL          2.3121    4.2751   17.8548 Cl      1  UNL1       -0.0822
     28 C           3.6347    2.3502   18.9929 C.ar    1  UNL1        0.0111
     29 C           3.6698    0.9763   19.5939 C.ar    1  UNL1       -0.0015
     30 O           2.7219    0.7830   27.0811 O.3     1  UNL1       -0.4690
     31 C           2.1864   -0.0886   28.1782 C.3     1  UNL1        0.2508
     32 C           3.0873   -0.5287   29.2938 C.ar    1  UNL1        0.1026
     33 C           4.5177   -0.8792   29.0089 C.ar    1  UNL1        0.0185
     34 C           5.4185   -1.3193   30.1246 C.ar    1  UNL1        0.0029
     35 C           4.8891   -1.4088   31.5252 C.ar    1  UNL1        0.0207
     36 C           3.4587   -1.0583   31.8101 C.ar    1  UNL1        0.0986
     37 N           2.5579   -0.6182   30.6944 N.ar    1  UNL1       -0.2445
@<TRIPOS>UNITY_ATOM_ATTR
20 1
charge -1
@<TRIPOS>BOND
     1    11    12    1
     2    12    13    1
     3    12    14    1
     4    12    10    1
     5    10     1    1
     6     1     2   ar
     7     2    15    1
     8    15    16    1
     9    16    17    1
    10    16    18    1
    11    16    19    1
    12    19    20   ar
    13    19    21   ar
    14     2     3   ar
    15     3    22    1
    16    22    23    1
    17    23    24   ar
    18    24    25   ar
    19    25    26   ar
    20    26    27    1
    21    26    28   ar
    22    28    29   ar
    23     3     4   ar
    24     4     5   ar
    25     5     6   ar
    26     6     7   ar
    27     7    30    1
    28    30    31    1
    29    31    32    1
    30    32    33   ar
    31    33    34   ar
    32    34    35   ar
    33    35    36   ar
    34    36    37   ar
    35     7     8   ar
    36     8     9   ar
    37     9     1   ar
    38    29    23   ar
    39     9     4   ar
    40    37    32   ar
@<TRIPOS>MOLECULE
*****
 37 40 0 0 0
SMALL
GASTEIGER

@<TRIPOS>ATOM
      1 C           4.8110   -2.4683   23.2089 C.ar    1  UNL1        0.0383
      2 C           4.3532   -2.5296   21.7818 C.ar    1  UNL1        0.0433
      3 N           3.2394   -1.5399   21.6094 N.ar    1  UNL1       -0.3260
      4 C           3.0087   -0.8669   22.9300 C.ar    1  UNL1        0.0606
      5 C           2.0398    0.1943   23.3601 C.ar    1  UNL1        0.0203
      6 C           2.0421    0.6816   24.7786 C.ar    1  UNL1        0.0384
      7 C           3.0135    0.1078   25.7672 C.ar    1  UNL1        0.1392
      8 C           3.9825   -0.9533   25.3371 C.ar    1  UNL1        0.0389
      9 C           3.9801   -1.4407   23.9186 C.ar    1  UNL1        0.0256
     10 S           5.9073   -3.2902   23.8193 S.3     1  UNL1       -0.1142
     11 C           7.3976   -4.5687   23.0163 C.3     1  UNL1        0.0112
     12 C           7.3239   -3.1105   23.3602 C.3     1  UNL1        0.0434
     13 C           7.2503   -1.6523   23.7041 C.3     1  UNL1        0.0112
     14 C           8.7406   -2.9307   22.9012 C.3     1  UNL1        0.0112
     15 C           4.9113   -3.4236   20.7145 C.3     1  UNL1        0.0495
     16 C           5.2688   -2.8568   19.3725 C.3     1  UNL1        0.0376
     17 C           6.2516   -1.9308   20.0254 C.3     1  UNL1        0.0059
     18 C           4.2859   -3.7828   18.7196 C.3     1  UNL1        0.0059
     19 C           5.6262   -2.2899   18.0305 C.2     1  UNL1        0.0500
     20 O           7.0460   -2.3401   17.5492 O.co2   1  UNL1       -0.5492
     21 O           4.5639   -1.6728   17.1699 O.co2   1  UNL1       -0.5492
     22 C           2.4880   -1.2704   20.3395 C.3     1  UNL1        0.1324
     23 C           2.5350    0.0927   19.7150 C.ar    1  UNL1        0.0004
     24 C           3.8415    0.8209   19.6015 C.ar    1  UNL1       -0.0015
     25 C           3.8886    2.1839   18.9770 C.ar    1  UNL1        0.0111
     26 C           2.6292    2.8187   18.4660 C.ar    1  UNL1        0.0577
     27 CL          2.6762    4.1817   17.8416 Cl      1  UNL1       -0.0822
     28 C           1.3228    2.0904   18.5795 C.ar    1  UNL1        0.0111
     29 C           1.2757    0.7274   19.2040 C.ar    1  UNL1       -0.0015
     30 O           3.0158    0.5952   27.1858 O.3     1  UNL1       -0.4690
     31 C           1.7708    1.1864   27.7778 C.3     1  UNL1        0.2508
     32 C           1.6822    1.4221   29.2566 C.ar    1  UNL1        0.1026
     33 C           0.6810    2.3967   29.8020 C.ar    1  UNL1        0.0185
     34 C           0.5924    2.6324   31.2807 C.ar    1  UNL1        0.0029
     35 C           1.5051    1.8934   32.2140 C.ar    1  UNL1        0.0207
     36 C           2.5064    0.9188   31.6685 C.ar    1  UNL1        0.0986
     37 N           2.5949    0.6832   30.1898 N.ar    1  UNL1       -0.2445
@<TRIPOS>UNITY_ATOM_ATTR
20 1
charge -1
@<TRIPOS>BOND
     1    11    12    1
     2    12    13    1
     3    12    14    1
     4    12    10    1
     5    10     1    1
     6     1     2   ar
     7     2    15    1
     8    15    16    1
     9    16    17    1
    10    16    18    1
    11    16    19    1
    12    19    20   ar
    13    19    21   ar
    14     2     3   ar
    15     3    22    1
    16    22    23    1
    17    23    24   ar
    18    24    25   ar
    19    25    26   ar
    20    26    27    1
    21    26    28   ar
    22    28    29   ar
    23     3     4   ar
    24     4     5   ar
    25     5     6   ar
    26     6     7   ar
    27     7    30    1
    28    30    31    1
    29    31    32    1
    30    32    33   ar
    31    33    34   ar
    32    34    35   ar
    33    35    36   ar
    34    36    37   ar
    35     7     8   ar
    36     8     9   ar
    37     9     1   ar
    38    29    23   ar
    39     9     4   ar
    40    37    32   ar
@<TRIPOS>MOLECULE
*****
 37 40 0 0 0
SMALL
GASTEIGER

@<TRIPOS>ATOM
      1 C         -13.9810   -3.5379   17.6846 C.ar    1  UNL1        0.0383
      2 C         -13.6017   -4.9860   17.7809 C.ar    1  UNL1        0.0433
      3 N         -14.6397   -5.6828   18.6097 N.ar    1  UNL1       -0.3260
      4 C         -15.6605   -4.6655   19.0256 C.ar    1  UNL1        0.0606
      5 C         -16.9081   -4.7749   19.8510 C.ar    1  UNL1        0.0203
      6 C         -17.7486   -3.5588   20.1047 C.ar    1  UNL1        0.0384
      7 C         -17.3415   -2.2331   19.5330 C.ar    1  UNL1        0.1392
      8 C         -16.0939   -2.1237   18.7075 C.ar    1  UNL1        0.0389
      9 C         -15.2534   -3.3398   18.4538 C.ar    1  UNL1        0.0256
     10 S         -13.2212   -2.4746   16.9482 S.3     1  UNL1       -0.1142
     11 C         -12.0986   -1.8305   18.6289 C.3     1  UNL1        0.0112
     12 C         -12.9573   -1.1515   17.6035 C.3     1  UNL1        0.0434
     13 C         -13.8160   -0.4723   16.5780 C.3     1  UNL1        0.0112
     14 C         -12.6933    0.1718   18.2587 C.3     1  UNL1        0.0112
     15 C         -12.3961   -5.6250   17.1578 C.3     1  UNL1        0.0495
     16 C         -11.0204   -5.2033   17.5816 C.3     1  UNL1        0.0376
     17 C         -10.6734   -4.9007   16.1541 C.3     1  UNL1        0.0059
     18 C         -11.3674   -5.5060   19.0091 C.3     1  UNL1        0.0059
     19 C          -9.6447   -4.7816   18.0054 C.2     1  UNL1        0.0500
     20 O          -9.2489   -4.8569   19.4503 O.co2   1  UNL1       -0.5492
     21 O          -8.6647   -4.2846   16.9843 O.co2   1  UNL1       -0.5492
     22 C         -14.6544   -7.1411   18.9609 C.3     1  UNL1        0.1324
     23 C         -15.8834   -7.9620   18.7043 C.ar    1  UNL1        0.0004
     24 C         -16.5826   -7.8718   17.3803 C.ar    1  UNL1       -0.0015
     25 C         -17.8115   -8.6927   17.1236 C.ar    1  UNL1        0.0111
     26 C         -18.3411   -9.6038   18.1909 C.ar    1  UNL1        0.0577
     27 CL        -19.5700  -10.4248   17.9343 Cl      1  UNL1       -0.0822
     28 C         -17.6419   -9.6941   19.5149 C.ar    1  UNL1        0.0111
     29 C         -16.4130   -8.8732   19.7716 C.ar    1  UNL1       -0.0015
     30 O         -18.1820   -1.0169   19.7867 O.3     1  UNL1       -0.4690
     31 C         -18.3752    0.0010   18.7020 C.3     1  UNL1        0.2508
     32 C         -17.4580    1.1846   18.6122 C.ar    1  UNL1        0.1026
     33 C         -16.3365    1.3407   19.5959 C.ar    1  UNL1        0.0185
     34 C         -15.4194    2.5242   19.5061 C.ar    1  UNL1        0.0029
     35 C         -15.6238    3.5517   18.4326 C.ar    1  UNL1        0.0207
     36 C         -16.7454    3.3956   17.4488 C.ar    1  UNL1        0.0986
     37 N         -17.6624    2.2121   17.5387 N.ar    1  UNL1       -0.2445
@<TRIPOS>UNITY_ATOM_ATTR
20 1
charge -1
@<TRIPOS>BOND
     1    11    12    1
     2    12    13    1
     3    12    14    1
     4    12    10    1
     5    10     1    1
     6     1     2   ar
     7     2    15    1
     8    15    16    1
     9    16    17    1
    10    16    18    1
    11    16    19    1
    12    19    20   ar
    13    19    21   ar
    14     2     3   ar
    15     3    22    1
    16    22    23    1
    17    23    24   ar
    18    24    25   ar
    19    25    26   ar
    20    26    27    1
    21    26    28   ar
    22    28    29   ar
    23     3     4   ar
    24     4     5   ar
    25     5     6   ar
    26     6     7   ar
    27     7    30    1
    28    30    31    1
    29    31    32    1
    30    32    33   ar
    31    33    34   ar
    32    34    35   ar
    33    35    36   ar
    34    36    37   ar
    35     7     8   ar
    36     8     9   ar
    37     9     1   ar
    38    29    23   ar
    39     9     4   ar
    40    37    32   ar
@<TRIPOS>MOLECULE
*****
 37 40 0 0 0
SMALL
GASTEIGER

@<TRIPOS>ATOM
      1 C           4.3479   -2.7525   22.3108 C.ar    1  UNL1        0.0383
      2 C           3.5933   -1.4694   22.1260 C.ar    1  UNL1        0.0433
      3 N           3.8536   -0.6023   23.3220 N.ar    1  UNL1       -0.3260
      4 C           4.7690   -1.3495   24.2460 C.ar    1  UNL1        0.0606
      5 C           5.3638   -0.9915   25.5756 C.ar    1  UNL1        0.0203
      6 C           6.2642   -1.9625   26.2803 C.ar    1  UNL1        0.0384
      7 C           6.5697   -3.2914   25.6553 C.ar    1  UNL1        0.1392
      8 C           5.9748   -3.6494   24.3257 C.ar    1  UNL1        0.0389
      9 C           5.0745   -2.6785   23.6210 C.ar    1  UNL1        0.0256
     10 S           4.3717   -3.9071   21.3535 S.3     1  UNL1       -0.1142
     11 C           6.1781   -3.2671   20.4441 C.3     1  UNL1        0.0112
     12 C           4.8332   -3.7011   19.9413 C.3     1  UNL1        0.0434
     13 C           3.4883   -4.1351   19.4385 C.3     1  UNL1        0.0112
     14 C           5.2947   -3.4951   18.5290 C.3     1  UNL1        0.0112
     15 C           2.7300   -1.1155   20.9515 C.3     1  UNL1        0.0495
     16 C           2.8661    0.2280   20.2984 C.3     1  UNL1        0.0376
     17 C           4.3196   -0.0425   20.0449 C.3     1  UNL1        0.0059
     18 C           1.4127    0.4984   20.5520 C.3     1  UNL1        0.0059
     19 C           3.0023    1.5715   19.6453 C.2     1  UNL1        0.0500
     20 O           2.3011    1.8496   18.3488 O.co2   1  UNL1       -0.5492
     21 O           3.8396    2.6368   20.2887 O.co2   1  UNL1       -0.5492
     22 C           3.2963    0.7710   23.5535 C.3     1  UNL1        0.1324
     23 C           2.2251    0.9821   24.5822 C.ar    1  UNL1        0.0004
     24 C           0.7902    1.0922   24.1591 C.ar    1  UNL1       -0.0015
     25 C          -0.2809    1.3034   25.1877 C.ar    1  UNL1        0.0111
     26 C           0.0828    1.4044   26.6394 C.ar    1  UNL1        0.0577
     27 CL         -0.9883    1.6156   27.6680 Cl      1  UNL1       -0.0822
     28 C           1.5177    1.2944   27.0624 C.ar    1  UNL1        0.0111
     29 C           2.5889    1.0832   26.0339 C.ar    1  UNL1       -0.0015
     30 O           7.4701   -4.2624   26.3600 O.3     1  UNL1       -0.4690
     31 C           6.8954   -5.2449   27.3370 C.3     1  UNL1        0.2508
     32 C           6.8956   -4.9314   28.8039 C.ar    1  UNL1        0.1026
     33 C           7.2858   -5.9863   29.7962 C.ar    1  UNL1        0.0185
     34 C           7.2859   -5.6728   31.2631 C.ar    1  UNL1        0.0029
     35 C           6.8958   -4.3044   31.7376 C.ar    1  UNL1        0.0207
     36 C           6.5056   -3.2494   30.7453 C.ar    1  UNL1        0.0986
     37 N           6.5055   -3.5629   29.2784 N.ar    1  UNL1       -0.2445
@<TRIPOS>UNITY_ATOM_ATTR
20 1
charge -1
@<TRIPOS>BOND
     1    11    12    1
     2    12    13    1
     3    12    14    1
     4    12    10    1
     5    10     1    1
     6     1     2   ar
     7     2    15    1
     8    15    16    1
     9    16    17    1
    10    16    18    1
    11    16    19    1
    12    19    20   ar
    13    19    21   ar
    14     2     3   ar
    15     3    22    1
    16    22    23    1
    17    23    24   ar
    18    24    25   ar
    19    25    26   ar
    20    26    27    1
    21    26    28   ar
    22    28    29   ar
    23     3     4   ar
    24     4     5   ar
    25     5     6   ar
    26     6     7   ar
    27     7    30    1
    28    30    31    1
    29    31    32    1
    30    32    33   ar
    31    33    34   ar
    32    34    35   ar
    33    35    36   ar
    34    36    37   ar
    35     7     8   ar
    36     8     9   ar
    37     9     1   ar
    38    29    23   ar
    39     9     4   ar
    40    37    32   ar
@<TRIPOS>MOLECULE
*****
 37 40 0 0 0
SMALL
GASTEIGER

@<TRIPOS>ATOM
      1 C           5.4049   -1.6274   21.2662 C.ar    1  UNL1        0.0383
      2 C           4.5469   -0.4415   20.9383 C.ar    1  UNL1        0.0433
      3 N           4.4164    0.3930   22.1778 N.ar    1  UNL1       -0.3260
      4 C           5.1936   -0.2771   23.2718 C.ar    1  UNL1        0.0606
      5 C           5.4240    0.0884   24.7082 C.ar    1  UNL1        0.0203
      6 C           6.2652   -0.7948   25.5812 C.ar    1  UNL1        0.0384
      7 C           6.8762   -2.0435   25.0178 C.ar    1  UNL1        0.1392
      8 C           6.6458   -2.4091   23.5814 C.ar    1  UNL1        0.0389
      9 C           5.8045   -1.5258   22.7084 C.ar    1  UNL1        0.0256
     10 S           5.7947   -2.7227   20.3184 S.3     1  UNL1       -0.1142
     11 C           4.3513   -4.0497   21.1279 C.3     1  UNL1        0.0112
     12 C           4.7445   -3.6264   19.7437 C.3     1  UNL1        0.0434
     13 C           5.1377   -3.2030   18.3594 C.3     1  UNL1        0.0112
     14 C           3.6943   -4.5301   19.1689 C.3     1  UNL1        0.0112
     15 C           3.9282   -0.1426   19.6049 C.3     1  UNL1        0.0495
     16 C           2.4622    0.1597   19.5093 C.3     1  UNL1        0.0376
     17 C           2.7727    1.4373   18.7873 C.3     1  UNL1        0.0059
     18 C           2.1516   -1.1179   20.2312 C.3     1  UNL1        0.0059
     19 C           0.9960    0.4621   19.4136 C.2     1  UNL1        0.0500
     20 O           0.4584    1.1993   18.2230 O.co2   1  UNL1       -0.5492
     21 O           0.0675    0.0272   20.5084 O.co2   1  UNL1       -0.5492
     22 C           3.6442    1.6730   22.3017 C.3     1  UNL1        0.1324
     23 C           2.6403    1.8397   23.4038 C.ar    1  UNL1        0.0004
     24 C           1.4369    0.9462   23.4636 C.ar    1  UNL1       -0.0015
     25 C           0.4331    1.1128   24.5656 C.ar    1  UNL1        0.0111
     26 C           0.6326    2.1730   25.6079 C.ar    1  UNL1        0.0577
     27 CL         -0.3712    2.3397   26.7099 Cl      1  UNL1       -0.0822
     28 C           1.8360    3.0665   25.5481 C.ar    1  UNL1        0.0111
     29 C           2.8399    2.8999   24.4461 C.ar    1  UNL1       -0.0015
     30 O           7.7175   -2.9268   25.8909 O.3     1  UNL1       -0.4690
     31 C           7.0671   -3.9671   26.7538 C.3     1  UNL1        0.2508
     32 C           7.4907   -5.4021   26.6469 C.ar    1  UNL1        0.1026
     33 C           7.6038   -6.0523   25.2999 C.ar    1  UNL1        0.0185
     34 C           8.0275   -7.4872   25.1930 C.ar    1  UNL1        0.0029
     35 C           8.3380   -8.2719   26.4331 C.ar    1  UNL1        0.0207
     36 C           8.2248   -7.6217   27.7801 C.ar    1  UNL1        0.0986
     37 N           7.8012   -6.1868   27.8870 N.ar    1  UNL1       -0.2445
@<TRIPOS>UNITY_ATOM_ATTR
20 1
charge -1
@<TRIPOS>BOND
     1    11    12    1
     2    12    13    1
     3    12    14    1
     4    12    10    1
     5    10     1    1
     6     1     2   ar
     7     2    15    1
     8    15    16    1
     9    16    17    1
    10    16    18    1
    11    16    19    1
    12    19    20   ar
    13    19    21   ar
    14     2     3   ar
    15     3    22    1
    16    22    23    1
    17    23    24   ar
    18    24    25   ar
    19    25    26   ar
    20    26    27    1
    21    26    28   ar
    22    28    29   ar
    23     3     4   ar
    24     4     5   ar
    25     5     6   ar
    26     6     7   ar
    27     7    30    1
    28    30    31    1
    29    31    32    1
    30    32    33   ar
    31    33    34   ar
    32    34    35   ar
    33    35    36   ar
    34    36    37   ar
    35     7     8   ar
    36     8     9   ar
    37     9     1   ar
    38    29    23   ar
    39     9     4   ar
    40    37    32   ar
@<TRIPOS>MOLECULE
*****
 37 40 0 0 0
SMALL
GASTEIGER

@<TRIPOS>ATOM
      1 C           3.4744   -0.9807   21.4659 C.ar    1  UNL1        0.0383
      2 C           4.8566   -1.5626   21.4930 C.ar    1  UNL1        0.0433
      3 N           5.4712   -1.2358   22.8217 N.ar    1  UNL1       -0.3260
      4 C           4.4687   -0.4519   23.6159 C.ar    1  UNL1        0.0606
      5 C           4.5202    0.1386   24.9938 C.ar    1  UNL1        0.0203
      6 C           3.3376    0.8868   25.5337 C.ar    1  UNL1        0.0384
      7 C           2.1035    1.0445   24.6958 C.ar    1  UNL1        0.1392
      8 C           2.0520    0.4539   23.3179 C.ar    1  UNL1        0.0389
      9 C           3.2346   -0.2943   22.7780 C.ar    1  UNL1        0.0256
     10 S           2.5024   -1.0696   20.3269 S.3     1  UNL1       -0.1142
     11 C           3.3897    0.4805   19.1823 C.3     1  UNL1        0.0112
     12 C           2.0024    0.1818   19.6682 C.3     1  UNL1        0.0434
     13 C           0.6150   -0.1169   20.1541 C.3     1  UNL1        0.0112
     14 C           1.5023    1.4332   19.0095 C.3     1  UNL1        0.0112
     15 C           5.5097   -2.3355   20.3857 C.3     1  UNL1        0.0495
     16 C           4.8265   -3.5388   19.8067 C.3     1  UNL1        0.0376
     17 C           4.6155   -4.0837   21.1882 C.3     1  UNL1        0.0059
     18 C           5.0375   -2.9939   18.4252 C.3     1  UNL1        0.0059
     19 C           4.1433   -4.7422   19.2277 C.2     1  UNL1        0.0500
     20 O           4.9278   -5.9913   18.9550 O.co2   1  UNL1       -0.5492
     21 O           2.6756   -4.6965   18.9215 O.co2   1  UNL1       -0.5492
     22 C           6.8467   -1.6246   23.2765 C.3     1  UNL1        0.1324
     23 C           7.1372   -3.0465   23.6559 C.ar    1  UNL1        0.0004
     24 C           7.9851   -3.9028   22.7627 C.ar    1  UNL1       -0.0015
     25 C           8.2757   -5.3246   23.1420 C.ar    1  UNL1        0.0111
     26 C           7.7184   -5.8902   24.4146 C.ar    1  UNL1        0.0577
     27 CL          8.0089   -7.3120   24.7940 Cl      1  UNL1       -0.0822
     28 C           6.8705   -5.0339   25.3078 C.ar    1  UNL1        0.0111
     29 C           6.5799   -3.6120   24.9285 C.ar    1  UNL1       -0.0015
     30 O           0.9209    1.7927   25.2358 O.3     1  UNL1       -0.4690
     31 C           0.5136    3.0978   24.6188 C.3     1  UNL1        0.2508
     32 C          -0.8818    3.2786   24.0988 C.ar    1  UNL1        0.1026
     33 C          -2.0423    3.2780   25.0492 C.ar    1  UNL1        0.0185
     34 C          -3.4376    3.4587   24.5292 C.ar    1  UNL1        0.0029
     35 C          -3.6724    3.6400   23.0588 C.ar    1  UNL1        0.0207
     36 C          -2.5119    3.6406   22.1085 C.ar    1  UNL1        0.0986
     37 N          -1.1166    3.4599   22.6284 N.ar    1  UNL1       -0.2445
@<TRIPOS>UNITY_ATOM_ATTR
20 1
charge -1
@<TRIPOS>BOND
     1    11    12    1
     2    12    13    1
     3    12    14    1
     4    12    10    1
     5    10     1    1
     6     1     2   ar
     7     2    15    1
     8    15    16    1
     9    16    17    1
    10    16    18    1
    11    16    19    1
    12    19    20   ar
    13    19    21   ar
    14     2     3   ar
    15     3    22    1
    16    22    23    1
    17    23    24   ar
    18    24    25   ar
    19    25    26   ar
    20    26    27    1
    21    26    28   ar
    22    28    29   ar
    23     3     4   ar
    24     4     5   ar
    25     5     6   ar
    26     6     7   ar
    27     7    30    1
    28    30    31    1
    29    31    32    1
    30    32    33   ar
    31    33    34   ar
    32    34    35   ar
    33    35    36   ar
    34    36    37   ar
    35     7     8   ar
    36     8     9   ar
    37     9     1   ar
    38    29    23   ar
    39     9     4   ar
    40    37    32   ar
