@<TRIPOS>MOLECULE
*****
 71 74 0 0 0
SMALL
GASTEIGER

@<TRIPOS>ATOM
      1 C           7.6332   -3.4917   29.3549 C.3     1  UNL1        0.1361
      2 C           7.3640   -3.6881   27.8924 C.3     1  UNL1        0.0634
      3 C           6.8812   -3.6443   26.4730 C.3     1  UNL1        0.1208
      4 C           7.4247   -4.5834   25.3681 C.3     1  UNL1        0.0299
      5 C           7.1370   -4.7600   23.9066 C.3     1  UNL1        0.0078
      6 C           6.1118   -3.8959   23.2342 C.3     1  UNL1        0.0592
      7 C           5.8241   -4.0725   21.7727 C.3     1  UNL1        0.0055
      8 C           5.3741   -2.8551   24.0234 C.3     1  UNL1        0.2454
      9 O           5.5651   -3.3012   23.2824 O.3     1  UNL1       -0.3580
     10 O           6.2074   -3.3622   25.1628 O.3     1  UNL1       -0.3310
     11 C           4.4203   -2.1467   23.1078 C.2     1  UNL1        0.2764
     12 O           4.7715   -2.9245   21.8742 O.2     1  UNL1       -0.2814
     13 C           3.3905   -1.2700   22.4590 C.2     1  UNL1        0.2892
     14 O           3.5190   -1.8583   21.0851 O.2     1  UNL1       -0.2666
     15 N           2.3329   -0.2661   22.1072 N.am    1  UNL1       -0.2654
     16 C           2.6660   -1.0295   20.8597 C.3     1  UNL1        0.0943
     17 C           1.9632   -0.7087   19.5740 C.3     1  UNL1        0.0216
     18 C           0.9273    0.3755   19.5357 C.3     1  UNL1        0.0040
     19 C           0.5942    1.1388   20.7832 C.3     1  UNL1        0.0314
     20 C           1.2970    0.8180   22.0689 C.3     1  UNL1        0.1749
     21 C           0.3312    1.9318   22.3460 C.2     1  UNL1        0.3351
     22 O          -0.2019    2.0358   20.9478 O.2     1  UNL1       -0.2483
     23 O          -0.5194    3.0230   22.9254 O.3     1  UNL1       -0.4507
     24 C          -1.2149    4.0407   23.7801 C.3     1  UNL1        0.1761
     25 C          -1.7229    4.9373   24.8701 C.3     1  UNL1        0.1083
     26 C          -2.0196    5.6709   26.1444 C.2     1  UNL1        0.1579
     27 O          -3.0610    6.5835   25.5675 O.2     1  UNL1       -0.2956
     28 C          -2.0911    6.2072   27.5434 C.3     1  UNL1        0.0791
     29 C          -3.1479    7.2358   27.2691 C.3     1  UNL1        0.0125
     30 C          -1.9340    6.5210   29.0018 C.2     1  UNL1       -0.0252
     31 C          -1.5559    6.5978   30.4514 C.2     1  UNL1       -0.0186
     32 C          -2.4969    7.7108   30.8058 C.3     1  UNL1        0.0286
     33 C          -0.9741    6.4338   31.8242 C.3     1  UNL1        0.1627
     34 O          -1.7894    7.5114   32.4755 O.3     1  UNL1       -0.3774
     35 C          -0.2162    6.0370   33.0563 C.3     1  UNL1        0.2025
     36 C           0.6827    5.4256   34.0898 C.2     1  UNL1        0.1798
     37 O           0.2257    6.2851   35.2311 O.2     1  UNL1       -0.2934
     38 C           1.6804    4.6283   34.8766 C.3     1  UNL1        0.0605
     39 C           1.4391    5.3154   36.1879 C.3     1  UNL1        0.0079
     40 C           2.7302    3.6825   35.3799 C.3     1  UNL1        0.0117
     41 C           3.7831    2.6323   35.5760 C.3     1  UNL1        0.0225
     42 C           3.9966    2.8879   37.0386 C.3     1  UNL1        0.0047
     43 C           4.7899    1.5269   35.4559 C.2     1  UNL1       -0.0265
     44 C           5.7035    0.4179   35.0251 C.2     1  UNL1       -0.0046
     45 C           6.4811   -0.6428   34.3038 C.2     1  UNL1       -0.0004
     46 C           7.0864   -1.6056   33.3258 C.2     1  UNL1       -0.0006
     47 C           7.4910   -2.4255   32.1366 C.2     1  UNL1       -0.0062
     48 C           7.6763   -3.0642   30.7921 C.2     1  UNL1       -0.0172
     49 C           8.7315   -4.0405   31.2203 C.3     1  UNL1        0.0288
     50 H           6.2488   -3.9631   23.4707 H       1  UNL1        0.2132
     51 H          -2.3760    7.9156   31.8171 H       1  UNL1        0.2109
     52 C           8.5007   -5.8664   28.7564 C.3     1  UNL1        0.1744
     53 O           8.6792   -4.5604   29.4723 O.3     1  UNL1       -0.3494
     54 C          -2.0823    4.6008   22.6920 C.3     1  UNL1        0.0406
     55 C          -1.7888    5.9569   22.1222 C.3     1  UNL1        0.0037
     56 C          -3.2433    3.8048   22.1737 C.3     1  UNL1        0.0037
     57 C          -4.6434    4.1867   22.5526 C.3     1  UNL1        0.0027
     58 C          -5.1249    3.9732   23.9572 C.3     1  UNL1        0.0027
     59 C          -6.5251    4.3551   24.3362 C.3     1  UNL1        0.0321
     60 C          -7.4437    4.9505   23.3107 C.3     1  UNL1        0.1423
     61 C          -6.9622    5.1639   21.9062 C.3     1  UNL1        0.1423
     62 C          -5.5621    4.7821   21.5272 C.3     1  UNL1        0.0321
     63 O          -7.8809    5.7593   20.8807 O.3     1  UNL1       -0.3511
     64 C          -7.6836    5.4487   19.4266 C.3     1  UNL1        0.1741
     65 O          -8.8439    5.3323   23.6897 O.3     1  UNL1       -0.3511
     66 C          -9.1250    6.6973   24.2446 C.3     1  UNL1        0.1738
     67 C          -8.3520    7.1996   25.4280 C.3     1  UNL1        0.1692
     68 O          -8.5343    6.5565   26.7707 O.3     1  UNL1       -0.3794
     69 H          -9.4372    6.7176   27.0864 H       1  UNL1        0.2105
     70 O          -0.8675    7.0286   33.9739 O.3     1  UNL1       -0.3433
     71 C          -2.0547    6.6226   34.7960 C.3     1  UNL1        0.1747
@<TRIPOS>BOND
     1    52    53    1
     2     1    53    1
     3     1     2    1
     4     3     2    1
     5     3     4    1
     6     4     5    1
     7     5     6    1
     8     6     7    1
     9     6     8    1
    10     8     9    1
    11     8    10    1
    12     8    11    1
    13    11    12    2
    14    11    13    1
    15    13    14    2
    16    13    15   am
    17    15    16    1
    18    16    17    1
    19    17    18    1
    20    18    19    1
    21    20    19    1
    22    20    21    1
    23    21    22    2
    24    21    23    1
    25    23    24    1
    26    24    54    1
    27    54    55    1
    28    54    56    1
    29    57    56    1
    30    57    58    1
    31    58    59    1
    32    59    60    1
    33    60    65    1
    34    65    66    1
    35    66    67    1
    36    67    68    1
    37    60    61    1
    38    61    63    1
    39    63    64    1
    40    61    62    1
    41    24    25    1
    42    25    26    1
    43    26    27    2
    44    26    28    1
    45    28    29    1
    46    28    30    1
    47    30    31    2
    48    31    32    1
    49    31    33    1
    50    33    34    1
    51    33    35    1
    52    35    70    1
    53    70    71    1
    54    35    36    1
    55    36    37    2
    56    36    38    1
    57    38    39    1
    58    38    40    1
    59    40    41    1
    60    41    42    1
    61    41    43    1
    62    43    44    2
    63    44    45    1
    64    45    46    2
    65    46    47    1
    66    47    48    2
    67    48    49    1
    68    48     1    1
    69    10     3    1
    70    20    15    1
    71    62    57    1
    72     9    50    1
    73    68    69    1
    74    34    51    1
@<TRIPOS>MOLECULE
*****
 71 74 0 0 0
SMALL
GASTEIGER

@<TRIPOS>ATOM
      1 C           4.6552    1.0693   33.4822 C.3     1  UNL1        0.1361
      2 C           5.5431   -0.0508   33.0276 C.3     1  UNL1        0.0634
      3 C           6.2982   -1.1117   32.2830 C.3     1  UNL1        0.1208
      4 C           7.3289   -2.0469   32.9619 C.3     1  UNL1        0.0299
      5 C           8.2072   -3.1641   32.4820 C.3     1  UNL1        0.0078
      6 C           8.1810   -3.5717   31.0388 C.3     1  UNL1        0.0592
      7 C           9.0594   -4.6890   30.5589 C.3     1  UNL1        0.0055
      8 C           7.2764   -2.8621   30.0753 C.3     1  UNL1        0.2454
      9 O           7.8840   -3.4687   30.2932 O.3     1  UNL1       -0.3580
     10 O           6.8851   -2.0637   31.2833 O.3     1  UNL1       -0.3310
     11 C           7.4538   -3.4699   28.7155 C.2     1  UNL1        0.2764
     12 O           8.4814   -4.4836   29.1236 O.2     1  UNL1       -0.2814
     13 C           7.4090   -3.8584   27.2673 C.2     1  UNL1        0.2892
     14 O           8.4269   -4.9561   27.3624 O.2     1  UNL1       -0.2666
     15 N           7.1441   -4.0096   25.7987 N.am    1  UNL1       -0.2654
     16 C           8.1727   -5.0322   26.1813 C.3     1  UNL1        0.0943
     17 C           8.7286   -5.9614   25.1434 C.3     1  UNL1        0.0216
     18 C           8.2560   -5.8682   23.7228 C.3     1  UNL1        0.0040
     19 C           7.2274   -4.8457   23.3402 C.3     1  UNL1        0.0314
     20 C           6.6715   -3.9164   24.3781 C.3     1  UNL1        0.1749
     21 C           6.0132   -3.5831   23.0722 C.2     1  UNL1        0.3351
     22 O           6.7293   -4.6212   22.2600 O.2     1  UNL1       -0.2483
     23 O           5.2001   -3.0253   21.9418 O.3     1  UNL1       -0.4507
     24 C           4.2702   -2.2691   21.0399 C.3     1  UNL1        0.1761
     25 C           3.2670   -1.3498   20.4086 C.3     1  UNL1        0.1083
     26 C           2.2373   -0.3105   20.0775 C.2     1  UNL1        0.1579
     27 O           2.1369   -0.6410   18.6178 O.2     1  UNL1       -0.2956
     28 C           1.2294    0.8002   20.0620 C.3     1  UNL1        0.0791
     29 C           0.9109    0.7100   18.5989 C.3     1  UNL1        0.0125
     30 C           0.2903    1.9305   20.3629 C.2     1  UNL1       -0.0252
     31 C          -0.5361    3.0275   20.9660 C.2     1  UNL1       -0.0186
     32 C          -1.2363    3.4189   19.6985 C.3     1  UNL1        0.0286
     33 C          -1.2110    4.0398   21.8434 C.3     1  UNL1        0.1627
     34 O          -2.0571    4.6500   20.7655 O.3     1  UNL1       -0.3774
     35 C          -1.7030    4.9203   22.9537 C.3     1  UNL1        0.2025
     36 C          -1.9890    5.6275   24.2452 C.2     1  UNL1        0.1798
     37 O          -3.0034    6.5811   23.6868 O.2     1  UNL1       -0.2934
     38 C          -2.0557    6.1285   25.6574 C.3     1  UNL1        0.0605
     39 C          -3.0845    7.1905   25.4044 C.3     1  UNL1        0.0079
     40 C          -1.8999    6.4000   27.1244 C.3     1  UNL1        0.0117
     41 C          -1.5290    6.4292   28.5776 C.3     1  UNL1        0.0225
     42 C          -2.4439    7.5561   28.9559 C.3     1  UNL1        0.0047
     43 C          -0.9602    6.2146   29.9488 C.2     1  UNL1       -0.0265
     44 C          -0.2202    5.7664   31.1742 C.2     1  UNL1       -0.0046
     45 C           0.6564    5.1056   32.1964 C.2     1  UNL1       -0.0004
     46 C           1.6286    4.2629   32.9675 C.2     1  UNL1       -0.0006
     47 C           2.6511    3.2778   33.4515 C.2     1  UNL1       -0.0062
     48 C           3.6759    2.1965   33.6259 C.2     1  UNL1       -0.0172
     49 C           3.8865    2.4082   35.0958 C.3     1  UNL1        0.0288
     50 H           8.0825   -3.4018   31.2403 H       1  UNL1        0.2132
     51 H          -1.8816    4.2012   19.9237 H       1  UNL1        0.2109
     52 C           5.3334   -0.2764   35.5987 C.3     1  UNL1        0.1744
     53 O           5.0776    1.0372   34.9212 O.3     1  UNL1       -0.3494
     54 C           4.6094   -3.0230   19.7883 C.3     1  UNL1        0.0406
     55 C           3.5858   -3.9135   19.1485 C.3     1  UNL1        0.0037
     56 C           5.9721   -2.8866   19.1763 C.3     1  UNL1        0.0037
     57 C           6.3727   -1.6005   18.5167 C.3     1  UNL1        0.0027
     58 C           5.4820   -0.9790   17.4821 C.3     1  UNL1        0.0027
     59 C           5.8826    0.3072   16.8224 C.3     1  UNL1        0.0321
     60 C           7.1739    0.9720   17.1974 C.3     1  UNL1        0.1423
     61 C           8.0646    0.3506   18.2320 C.3     1  UNL1        0.1423
     62 C           7.6640   -0.9356   18.8917 C.3     1  UNL1        0.0321
     63 O           9.3560    1.0153   18.6070 O.3     1  UNL1       -0.3511
     64 C           9.3757    2.0653   19.6780 C.3     1  UNL1        0.1741
     65 O           7.5745    2.2582   16.5378 O.3     1  UNL1       -0.3511
     66 C           6.5358    3.2916   16.2163 C.3     1  UNL1        0.1738
     67 C           5.8521    4.0375   17.3237 C.3     1  UNL1        0.1692
     68 O           4.4873    3.6157   17.7811 O.3     1  UNL1       -0.3794
     69 H           3.8473    3.7625   17.0672 H       1  UNL1        0.2105
     70 O          -2.6555    5.7208   22.1159 O.3     1  UNL1       -0.3433
     71 C          -4.0682    5.2517   21.9308 C.3     1  UNL1        0.1747
@<TRIPOS>BOND
     1    52    53    1
     2     1    53    1
     3     1     2    1
     4     3     2    1
     5     3     4    1
     6     4     5    1
     7     5     6    1
     8     6     7    1
     9     6     8    1
    10     8     9    1
    11     8    10    1
    12     8    11    1
    13    11    12    2
    14    11    13    1
    15    13    14    2
    16    13    15   am
    17    15    16    1
    18    16    17    1
    19    17    18    1
    20    18    19    1
    21    20    19    1
    22    20    21    1
    23    21    22    2
    24    21    23    1
    25    23    24    1
    26    24    54    1
    27    54    55    1
    28    54    56    1
    29    57    56    1
    30    57    58    1
    31    58    59    1
    32    59    60    1
    33    60    65    1
    34    65    66    1
    35    66    67    1
    36    67    68    1
    37    60    61    1
    38    61    63    1
    39    63    64    1
    40    61    62    1
    41    24    25    1
    42    25    26    1
    43    26    27    2
    44    26    28    1
    45    28    29    1
    46    28    30    1
    47    30    31    2
    48    31    32    1
    49    31    33    1
    50    33    34    1
    51    33    35    1
    52    35    70    1
    53    70    71    1
    54    35    36    1
    55    36    37    2
    56    36    38    1
    57    38    39    1
    58    38    40    1
    59    40    41    1
    60    41    42    1
    61    41    43    1
    62    43    44    2
    63    44    45    1
    64    45    46    2
    65    46    47    1
    66    47    48    2
    67    48    49    1
    68    48     1    1
    69    10     3    1
    70    20    15    1
    71    62    57    1
    72     9    50    1
    73    68    69    1
    74    34    51    1
@<TRIPOS>MOLECULE
*****
 71 74 0 0 0
SMALL
GASTEIGER

@<TRIPOS>ATOM
      1 C           7.2310   -3.8256   28.2815 C.3     1  UNL1        0.1361
      2 C           6.9292   -3.8605   26.8125 C.3     1  UNL1        0.0634
      3 C           6.4284   -3.6493   25.4145 C.3     1  UNL1        0.1208
      4 C           6.9016   -4.5018   24.2116 C.3     1  UNL1        0.0299
      5 C           6.5825   -4.5160   22.7459 C.3     1  UNL1        0.0078
      6 C           5.5974   -3.5348   22.1832 C.3     1  UNL1        0.0592
      7 C           5.2783   -3.5490   20.7176 C.3     1  UNL1        0.0055
      8 C           4.9313   -2.5392   23.0862 C.3     1  UNL1        0.2454
      9 O           5.0857   -2.9191   22.3011 O.3     1  UNL1       -0.3580
     10 O           5.7518   -3.2019   24.1527 O.3     1  UNL1       -0.3310
     11 C           4.0050   -1.6923   22.2647 C.2     1  UNL1        0.2764
     12 O           4.2934   -2.3614   20.9535 O.2     1  UNL1       -0.2814
     13 C           3.0164   -0.7007   21.7268 C.2     1  UNL1        0.2892
     14 O           3.0910   -1.1554   20.2993 O.2     1  UNL1       -0.2666
     15 N           2.0117    0.3893   21.4975 N.am    1  UNL1       -0.2654
     16 C           2.2827   -0.2630   20.1742 C.3     1  UNL1        0.0943
     17 C           1.5797    0.2220   18.9411 C.3     1  UNL1        0.0216
     18 C           0.6059    1.3593   19.0313 C.3     1  UNL1        0.0040
     19 C           0.3349    2.0116   20.3545 C.3     1  UNL1        0.0314
     20 C           1.0378    1.5266   21.5876 C.3     1  UNL1        0.1749
     21 C           0.1404    2.6580   21.9930 C.2     1  UNL1        0.3351
     22 O          -0.4070    2.9297   20.6231 O.2     1  UNL1       -0.2483
     23 O          -0.6388    3.7308   22.6945 O.3     1  UNL1       -0.4507
     24 C          -1.2631    4.6946   23.6595 C.3     1  UNL1        0.1761
     25 C          -1.7035    5.5045   24.8428 C.3     1  UNL1        0.1083
     26 C          -1.9393    6.1226   26.1891 C.2     1  UNL1        0.1579
     27 O          -2.9363    7.1434   25.7265 O.2     1  UNL1       -0.2956
     28 C          -1.9595    6.5199   27.6353 C.3     1  UNL1        0.0791
     29 C          -2.9609    7.6266   27.4856 C.3     1  UNL1        0.0125
     30 C          -1.7632    6.6779   29.1140 C.2     1  UNL1       -0.0252
     31 C          -1.3595    6.5893   30.5560 C.2     1  UNL1       -0.0186
     32 C          -2.2311    7.7110   31.0377 C.3     1  UNL1        0.0286
     33 C          -0.7673    6.2580   31.8937 C.3     1  UNL1        0.1627
     34 O          -1.5109    7.3081   32.6647 O.3     1  UNL1       -0.3774
     35 C          -0.0144    5.6998   33.0648 C.3     1  UNL1        0.2025
     36 C           0.8642    4.9405   34.0143 C.2     1  UNL1        0.1798
     37 O           0.4734    5.7056   35.2439 O.2     1  UNL1       -0.2934
     38 C           1.8273    4.0158   34.6980 C.3     1  UNL1        0.0605
     39 C           1.6447    4.5810   36.0754 C.3     1  UNL1        0.0079
     40 C           2.8298    2.9689   35.0839 C.3     1  UNL1        0.0117
     41 C           3.8249    1.8487   35.1539 C.3     1  UNL1        0.0225
     42 C           4.0744    1.9453   36.6298 C.3     1  UNL1        0.0047
     43 C           4.7661    0.7076   34.9047 C.2     1  UNL1       -0.0265
     44 C           5.6094   -0.4010   34.3479 C.2     1  UNL1       -0.0046
     45 C           6.3153   -1.4253   33.5098 C.2     1  UNL1       -0.0004
     46 C           6.8508   -2.3174   32.4293 C.2     1  UNL1       -0.0006
     47 C           7.1908   -3.0356   31.1571 C.2     1  UNL1       -0.0062
     48 C           7.3196   -3.5463   29.7526 C.2     1  UNL1       -0.0172
     49 C           8.3247   -4.6163   30.0606 C.3     1  UNL1        0.0288
     50 H           5.7339   -3.6326   22.4091 H       1  UNL1        0.2132
     51 H          -2.0836    7.8072   32.0615 H       1  UNL1        0.2109
     52 C           7.9483   -6.1782   27.4443 C.3     1  UNL1        0.1744
     53 O           8.2169   -4.9560   28.2714 O.3     1  UNL1       -0.3494
     54 C          -2.1139    5.4066   22.6500 C.3     1  UNL1        0.0406
     55 C          -1.4896    6.3842   21.6990 C.3     1  UNL1        0.0037
     56 C          -3.5891    5.1411   22.5914 C.3     1  UNL1        0.0037
     57 C          -4.3525    5.4232   21.3316 C.3     1  UNL1        0.0027
     58 C          -5.0362    6.7459   21.1492 C.3     1  UNL1        0.0027
     59 C          -5.7997    7.0282   19.8893 C.3     1  UNL1        0.0321
     60 C          -5.8795    5.9877   18.8117 C.3     1  UNL1        0.1423
     61 C          -5.1959    4.6651   18.9941 C.3     1  UNL1        0.1423
     62 C          -4.4324    4.3828   20.2539 C.3     1  UNL1        0.0321
     63 O          -5.2757    3.6246   17.9165 O.3     1  UNL1       -0.3511
     64 C          -4.3783    3.7157   16.7180 C.3     1  UNL1        0.1741
     65 O          -6.6430    6.2699   17.5518 O.3     1  UNL1       -0.3511
     66 C          -7.9868    6.9330   17.6216 C.3     1  UNL1        0.1738
     67 C          -9.0728    6.3395   18.4692 C.3     1  UNL1        0.1692
     68 O          -9.2912    4.8556   18.4776 O.3     1  UNL1       -0.3794
     69 H          -9.5935    4.5683   17.6018 H       1  UNL1        0.2105
     70 O          -0.5951    6.6291   34.0889 O.3     1  UNL1       -0.3433
     71 C          -1.8939    6.2901   34.7586 C.3     1  UNL1        0.1747
@<TRIPOS>BOND
     1    52    53    1
     2     1    53    1
     3     1     2    1
     4     3     2    1
     5     3     4    1
     6     4     5    1
     7     5     6    1
     8     6     7    1
     9     6     8    1
    10     8     9    1
    11     8    10    1
    12     8    11    1
    13    11    12    2
    14    11    13    1
    15    13    14    2
    16    13    15   am
    17    15    16    1
    18    16    17    1
    19    17    18    1
    20    18    19    1
    21    20    19    1
    22    20    21    1
    23    21    22    2
    24    21    23    1
    25    23    24    1
    26    24    54    1
    27    54    55    1
    28    54    56    1
    29    57    56    1
    30    57    58    1
    31    58    59    1
    32    59    60    1
    33    60    65    1
    34    65    66    1
    35    66    67    1
    36    67    68    1
    37    60    61    1
    38    61    63    1
    39    63    64    1
    40    61    62    1
    41    24    25    1
    42    25    26    1
    43    26    27    2
    44    26    28    1
    45    28    29    1
    46    28    30    1
    47    30    31    2
    48    31    32    1
    49    31    33    1
    50    33    34    1
    51    33    35    1
    52    35    70    1
    53    70    71    1
    54    35    36    1
    55    36    37    2
    56    36    38    1
    57    38    39    1
    58    38    40    1
    59    40    41    1
    60    41    42    1
    61    41    43    1
    62    43    44    2
    63    44    45    1
    64    45    46    2
    65    46    47    1
    66    47    48    2
    67    48    49    1
    68    48     1    1
    69    10     3    1
    70    20    15    1
    71    62    57    1
    72     9    50    1
    73    68    69    1
    74    34    51    1
@<TRIPOS>MOLECULE
*****
 71 74 0 0 0
SMALL
GASTEIGER

@<TRIPOS>ATOM
      1 C           7.9094   -4.0690   28.6016 C.3     1  UNL1        0.1361
      2 C           7.8026   -4.1989   27.1110 C.3     1  UNL1        0.0634
      3 C           7.4871   -4.0821   25.6493 C.3     1  UNL1        0.1208
      4 C           8.1203   -4.9992   24.5741 C.3     1  UNL1        0.0299
      5 C           7.9957   -5.1085   23.0833 C.3     1  UNL1        0.0078
      6 C           7.0849   -4.1798   22.3367 C.3     1  UNL1        0.0592
      7 C           6.9603   -4.2891   20.8458 C.3     1  UNL1        0.0055
      8 C           6.2985   -3.1414   23.0808 C.3     1  UNL1        0.2454
      9 O           6.5574   -3.5663   22.3479 O.3     1  UNL1       -0.3580
     10 O           6.9779   -3.7240   24.2845 O.3     1  UNL1       -0.3310
     11 C           5.4810   -2.3616   22.0942 C.2     1  UNL1        0.2764
     12 O           5.9436   -3.1053   20.8764 O.2     1  UNL1       -0.2814
     13 C           4.5633   -1.4210   21.3709 C.2     1  UNL1        0.2892
     14 O           4.8275   -1.9612   19.9967 O.2     1  UNL1       -0.2666
     15 N           3.5885   -0.3635   20.9447 N.am    1  UNL1       -0.2654
     16 C           4.0353   -1.0914   19.7117 C.3     1  UNL1        0.0943
     17 C           3.4958   -0.6945   18.3696 C.3     1  UNL1        0.0216
     18 C           2.5095    0.4304   18.2605 C.3     1  UNL1        0.0040
     19 C           2.0627    1.1583   19.4936 C.3     1  UNL1        0.0314
     20 C           2.6022    0.7613   20.8357 C.3     1  UNL1        0.1749
     21 C           1.6505    1.9009   21.0489 C.2     1  UNL1        0.3351
     22 O           1.2848    2.0791   19.6050 O.2     1  UNL1       -0.2483
     23 O           0.7778    3.0021   21.5742 O.3     1  UNL1       -0.4507
     24 C           0.0250    4.0132   22.3872 C.3     1  UNL1        0.1761
     25 C          -0.5728    4.8870   23.4497 C.3     1  UNL1        0.1083
     26 C          -0.9875    5.5827   24.7123 C.2     1  UNL1        0.1579
     27 O          -1.9236    6.5570   24.0607 O.2     1  UNL1       -0.2956
     28 C          -1.1998    6.0678   26.1157 C.3     1  UNL1        0.0791
     29 C          -2.1818    7.1469   25.7676 C.3     1  UNL1        0.0125
     30 C          -1.1997    6.3195   27.5944 C.2     1  UNL1       -0.0252
     31 C          -0.9873    6.3261   29.0794 C.2     1  UNL1       -0.0186
     32 C          -1.9234    7.4611   29.3721 C.3     1  UNL1        0.0286
     33 C          -0.5725    6.0872   30.5009 C.3     1  UNL1        0.1627
     34 O          -1.4189    7.1705   31.1010 O.3     1  UNL1       -0.3774
     35 C           0.0253    5.6142   31.7928 C.3     1  UNL1        0.2025
     36 C           0.7782    4.9289   32.8944 C.2     1  UNL1        0.1798
     37 O           0.2239    5.7617   34.0121 O.2     1  UNL1       -0.2934
     38 C           1.6509    4.0636   33.7543 C.3     1  UNL1        0.0605
     39 C           1.2854    4.7093   35.0580 C.3     1  UNL1        0.0079
     40 C           2.6027    3.0586   34.3325 C.3     1  UNL1        0.0117
     41 C           3.5890    1.9610   34.6016 C.3     1  UNL1        0.0225
     42 C           3.6425    2.1521   36.0885 C.3     1  UNL1        0.0047
     43 C           4.5638    0.8221   34.5493 C.2     1  UNL1       -0.0265
     44 C           5.4814   -0.3049   34.1778 C.2     1  UNL1       -0.0046
     45 C           6.2989   -1.3672   33.5048 C.2     1  UNL1       -0.0004
     46 C           6.9782   -2.3153   32.5615 C.2     1  UNL1       -0.0006
     47 C           7.4873   -3.1046   31.3920 C.2     1  UNL1       -0.0062
     48 C           7.8027   -3.6985   30.0512 C.2     1  UNL1       -0.0172
     49 C           8.7674   -4.7312   30.5541 C.3     1  UNL1        0.0288
     50 H           7.1915   -4.2613   22.5840 H       1  UNL1        0.2132
     51 H          -1.9118    7.6223   30.3983 H       1  UNL1        0.2109
     52 C           8.8169   -6.4101   27.9336 C.3     1  UNL1        0.1744
     53 O           8.8972   -5.1819   28.7910 O.3     1  UNL1       -0.3494
     54 C          -0.6922    4.6480   21.2327 C.3     1  UNL1        0.0406
     55 C          -0.5622    6.1222   20.9882 C.3     1  UNL1        0.0037
     56 C          -1.5394    3.8087   20.3228 C.3     1  UNL1        0.0037
     57 C          -3.0057    4.0941   20.1884 C.3     1  UNL1        0.0027
     58 C          -3.6831    3.9297   18.8601 C.3     1  UNL1        0.0027
     59 C          -5.1495    4.2151   18.7256 C.3     1  UNL1        0.0321
     60 C          -5.9386    4.6650   19.9194 C.3     1  UNL1        0.1423
     61 C          -5.2613    4.8294   21.2475 C.3     1  UNL1        0.1423
     62 C          -3.7949    4.5440   21.3821 C.3     1  UNL1        0.0321
     63 O          -6.0503    5.2793   22.4413 O.3     1  UNL1       -0.3511
     64 C          -7.0094    4.3362   23.1052 C.3     1  UNL1        0.1741
     65 O          -7.4050    4.9504   19.7848 O.3     1  UNL1       -0.3511
     66 C          -7.8670    6.3001   19.3212 C.3     1  UNL1        0.1738
     67 C          -7.6892    6.7018   17.8869 C.3     1  UNL1        0.1692
     68 O          -8.6517    6.2119   16.8460 O.3     1  UNL1       -0.3794
     69 H          -8.5690    5.2495   16.7565 H       1  UNL1        0.2105
     70 O          -0.6918    6.5951   32.6721 O.3     1  UNL1       -0.3433
     71 C          -1.9883    6.2118   33.3219 C.3     1  UNL1        0.1747
@<TRIPOS>BOND
     1    52    53    1
     2     1    53    1
     3     1     2    1
     4     3     2    1
     5     3     4    1
     6     4     5    1
     7     5     6    1
     8     6     7    1
     9     6     8    1
    10     8     9    1
    11     8    10    1
    12     8    11    1
    13    11    12    2
    14    11    13    1
    15    13    14    2
    16    13    15   am
    17    15    16    1
    18    16    17    1
    19    17    18    1
    20    18    19    1
    21    20    19    1
    22    20    21    1
    23    21    22    2
    24    21    23    1
    25    23    24    1
    26    24    54    1
    27    54    55    1
    28    54    56    1
    29    57    56    1
    30    57    58    1
    31    58    59    1
    32    59    60    1
    33    60    65    1
    34    65    66    1
    35    66    67    1
    36    67    68    1
    37    60    61    1
    38    61    63    1
    39    63    64    1
    40    61    62    1
    41    24    25    1
    42    25    26    1
    43    26    27    2
    44    26    28    1
    45    28    29    1
    46    28    30    1
    47    30    31    2
    48    31    32    1
    49    31    33    1
    50    33    34    1
    51    33    35    1
    52    35    70    1
    53    70    71    1
    54    35    36    1
    55    36    37    2
    56    36    38    1
    57    38    39    1
    58    38    40    1
    59    40    41    1
    60    41    42    1
    61    41    43    1
    62    43    44    2
    63    44    45    1
    64    45    46    2
    65    46    47    1
    66    47    48    2
    67    48    49    1
    68    48     1    1
    69    10     3    1
    70    20    15    1
    71    62    57    1
    72     9    50    1
    73    68    69    1
    74    34    51    1
@<TRIPOS>MOLECULE
*****
 71 74 0 0 0
SMALL
GASTEIGER

@<TRIPOS>ATOM
      1 C           6.9842   -5.0633   29.9706 C.3     1  UNL1        0.1361
      2 C           7.3099   -5.4519   28.5589 C.3     1  UNL1        0.0634
      3 C           7.4781   -5.5669   27.0728 C.3     1  UNL1        0.1208
      4 C           8.2227   -6.7446   26.3971 C.3     1  UNL1        0.0299
      5 C           8.5358   -7.1109   24.9766 C.3     1  UNL1        0.0078
      6 C           8.0837   -6.2223   23.8559 C.3     1  UNL1        0.0592
      7 C           8.3968   -6.5886   22.4354 C.3     1  UNL1        0.0055
      8 C           7.3186   -4.9674   24.1556 C.3     1  UNL1        0.2454
      9 O           7.7021   -5.5519   23.6117 O.3     1  UNL1       -0.3580
     10 O           7.4811   -5.4028   25.5818 O.3     1  UNL1       -0.3310
     11 C           6.9983   -4.2810   22.8609 C.2     1  UNL1        0.2764
     12 O           7.6589   -5.2933   21.9728 O.2     1  UNL1       -0.2814
     13 C           6.5350   -3.3756   21.7583 C.2     1  UNL1        0.2892
     14 O           7.0956   -4.1922   20.6318 O.2     1  UNL1       -0.2666
     15 N           5.9506   -2.2938   20.8992 N.am    1  UNL1       -0.2654
     16 C           6.6041   -3.2915   19.9895 C.3     1  UNL1        0.0943
     17 C           6.5792   -3.0813   18.5046 C.3     1  UNL1        0.0216
     18 C           5.9009   -1.8734   17.9293 C.3     1  UNL1        0.0040
     19 C           5.2474   -0.8757   18.8390 C.3     1  UNL1        0.0314
     20 C           5.2723   -1.0859   20.3239 C.3     1  UNL1        0.1749
     21 C           4.5318    0.1914   20.0594 C.2     1  UNL1        0.3351
     22 O           4.6592    0.1463   18.5654 O.2     1  UNL1       -0.2483
     23 O           3.7638    1.4786   20.1178 O.3     1  UNL1       -0.4507
     24 C           3.0041    2.7153   20.4965 C.3     1  UNL1        0.1761
     25 C           2.2884    3.8438   21.1778 C.3     1  UNL1        0.1083
     26 C           1.6500    4.8113   22.1299 C.2     1  UNL1        0.1579
     27 O           1.1542    5.7651   21.0837 O.2     1  UNL1       -0.2956
     28 C           1.1188    5.5725   23.3082 C.3     1  UNL1        0.0791
     29 C           0.5081    6.6910   22.5169 C.3     1  UNL1        0.0125
     30 C           0.7197    6.0919   24.6576 C.2     1  UNL1       -0.0252
     31 C           0.4712    6.3452   26.1151 C.2     1  UNL1       -0.0186
     32 C          -0.2795    7.6307   25.9307 C.3     1  UNL1        0.0286
     33 C           0.3851    6.3204   27.6124 C.3     1  UNL1        0.1627
     34 O          -0.3842    7.6006   27.7517 O.3     1  UNL1       -0.3774
     35 C           0.4653    6.0190   29.0796 C.3     1  UNL1        0.2025
     36 C           0.7082    5.4548   30.4480 C.2     1  UNL1        0.1798
     37 O           0.0088    6.5477   31.2006 O.2     1  UNL1       -0.2934
     38 C           1.1023    4.6542   31.6537 C.3     1  UNL1        0.0605
     39 C           0.4881    5.5740   32.6670 C.3     1  UNL1        0.0079
     40 C           1.6292    3.6547   32.6404 C.3     1  UNL1        0.0117
     41 C           2.2643    2.5031   33.3618 C.3     1  UNL1        0.0225
     42 C           1.9014    2.9578   34.7444 C.3     1  UNL1        0.0047
     43 C           2.9779    1.2531   33.7842 C.2     1  UNL1       -0.0265
     44 C           3.7366   -0.0367   33.8879 C.2     1  UNL1       -0.0046
     45 C           4.5050   -1.3061   33.6680 C.2     1  UNL1       -0.0004
     46 C           5.2470   -2.4957   33.1349 C.2     1  UNL1       -0.0006
     47 C           5.9281   -3.5498   32.3133 C.2     1  UNL1       -0.0062
     48 C           6.5163   -4.4193   31.2420 C.2     1  UNL1       -0.0172
     49 C           7.0728   -5.4615   32.1661 C.3     1  UNL1        0.0288
     50 H           8.0935   -6.2702   24.1330 H       1  UNL1        0.2132
     51 H          -0.5482    7.9766   26.8727 H       1  UNL1        0.2109
     52 C           9.0467   -6.6184   30.2499 C.3     1  UNL1        0.1744
     53 O           7.6419   -6.2448   30.6199 O.3     1  UNL1       -0.3494
     54 C           2.8011    3.2159   19.0971 C.3     1  UNL1        0.0406
     55 C           3.7227    4.2554   18.5314 C.3     1  UNL1        0.0037
     56 C           1.6766    2.6770   18.2635 C.3     1  UNL1        0.0037
     57 C           0.3059    3.2756   18.3760 C.3     1  UNL1        0.0027
     58 C          -0.3129    3.9601   17.1933 C.3     1  UNL1        0.0027
     59 C          -1.6837    4.5588   17.3057 C.3     1  UNL1        0.0321
     60 C          -2.4356    4.4729   18.6009 C.3     1  UNL1        0.1423
     61 C          -1.8168    3.7885   19.7834 C.3     1  UNL1        0.1423
     62 C          -0.4461    3.1898   19.6710 C.3     1  UNL1        0.0321
     63 O          -2.5688    3.7026   21.0785 O.3     1  UNL1       -0.3511
     64 C          -1.8401    3.8566   22.3805 C.3     1  UNL1        0.1741
     65 O          -3.8063    5.0716   18.7133 O.3     1  UNL1       -0.3511
     66 C          -4.9872    4.3577   18.1250 C.3     1  UNL1        0.1738
     67 C          -5.7648    4.9884   17.0080 C.3     1  UNL1        0.1692
     68 O          -7.2607    5.0658   17.0860 O.3     1  UNL1       -0.3794
     69 H          -7.6327    4.1705   17.0574 H       1  UNL1        0.2105
     70 O          -0.2866    7.2339   29.5361 O.3     1  UNL1       -0.3433
     71 C          -1.7852    7.2092   29.5980 C.3     1  UNL1        0.1747
@<TRIPOS>BOND
     1    52    53    1
     2     1    53    1
     3     1     2    1
     4     3     2    1
     5     3     4    1
     6     4     5    1
     7     5     6    1
     8     6     7    1
     9     6     8    1
    10     8     9    1
    11     8    10    1
    12     8    11    1
    13    11    12    2
    14    11    13    1
    15    13    14    2
    16    13    15   am
    17    15    16    1
    18    16    17    1
    19    17    18    1
    20    18    19    1
    21    20    19    1
    22    20    21    1
    23    21    22    2
    24    21    23    1
    25    23    24    1
    26    24    54    1
    27    54    55    1
    28    54    56    1
    29    57    56    1
    30    57    58    1
    31    58    59    1
    32    59    60    1
    33    60    65    1
    34    65    66    1
    35    66    67    1
    36    67    68    1
    37    60    61    1
    38    61    63    1
    39    63    64    1
    40    61    62    1
    41    24    25    1
    42    25    26    1
    43    26    27    2
    44    26    28    1
    45    28    29    1
    46    28    30    1
    47    30    31    2
    48    31    32    1
    49    31    33    1
    50    33    34    1
    51    33    35    1
    52    35    70    1
    53    70    71    1
    54    35    36    1
    55    36    37    2
    56    36    38    1
    57    38    39    1
    58    38    40    1
    59    40    41    1
    60    41    42    1
    61    41    43    1
    62    43    44    2
    63    44    45    1
    64    45    46    2
    65    46    47    1
    66    47    48    2
    67    48    49    1
    68    48     1    1
    69    10     3    1
    70    20    15    1
    71    62    57    1
    72     9    50    1
    73    68    69    1
    74    34    51    1
@<TRIPOS>MOLECULE
*****
 71 74 0 0 0
SMALL
GASTEIGER

@<TRIPOS>ATOM
      1 C          -6.6044    6.5375   26.8310 C.3     1  UNL1        0.1361
      2 C          -6.2432    5.9691   25.4907 C.3     1  UNL1        0.0634
      3 C          -5.5979    5.3368   24.2933 C.3     1  UNL1        0.1208
      4 C          -6.3187    5.1791   22.9319 C.3     1  UNL1        0.0299
      5 C          -5.9330    4.6043   21.6012 C.3     1  UNL1        0.0078
      6 C          -4.5675    4.0150   21.4061 C.3     1  UNL1        0.0592
      7 C          -4.1818    3.4402   20.0754 C.3     1  UNL1        0.0055
      8 C          -3.5876    4.0004   22.5418 C.3     1  UNL1        0.2454
      9 O          -3.8403    3.8316   21.7098 O.3     1  UNL1       -0.3580
     10 O          -4.6987    4.6702   23.2947 O.3     1  UNL1       -0.3310
     11 C          -2.3167    3.3589   22.0696 C.2     1  UNL1        0.2764
     12 O          -2.7814    3.0898   20.6690 O.2     1  UNL1       -0.2814
     13 C          -0.9452    2.7755   21.9003 C.2     1  UNL1        0.2892
     14 O          -1.1134    2.3803   20.4631 O.2     1  UNL1       -0.2666
     15 N           0.4627    2.2775   22.0417 N.am    1  UNL1       -0.2654
     16 C           0.0220    1.9974   20.6356 C.3     1  UNL1        0.0943
     17 C           0.9597    1.3281   19.6750 C.3     1  UNL1        0.0216
     18 C           2.3381    0.9389   20.1207 C.3     1  UNL1        0.0040
     19 C           2.7788    1.2190   21.5268 C.3     1  UNL1        0.0314
     20 C           1.8411    1.8883   22.4873 C.3     1  UNL1        0.1749
     21 C           3.1255    1.6260   23.2163 C.2     1  UNL1        0.3351
     22 O           3.8376    0.9823   22.0637 O.2     1  UNL1       -0.2483
     23 O           4.2560    1.5029   24.1945 O.3     1  UNL1       -0.4507
     24 C           5.1796    1.5248   25.3762 C.3     1  UNL1        0.1761
     25 C           5.8532    1.6906   26.7061 C.3     1  UNL1        0.1083
     26 C           6.2453    1.9926   28.1221 C.2     1  UNL1        0.1579
     27 O           7.6321    1.4282   28.0304 O.2     1  UNL1       -0.2956
     28 C           6.3376    2.4167   29.5580 C.3     1  UNL1        0.0791
     29 C           7.7443    1.9439   29.7768 C.3     1  UNL1        0.0125
     30 C           6.1256    2.9430   30.9465 C.2     1  UNL1       -0.0252
     31 C           5.6195    3.5469   32.2230 C.2     1  UNL1       -0.0186
     32 C           6.8708    3.3185   33.0179 C.3     1  UNL1        0.0286
     33 C           4.8426    4.2001   33.3273 C.3     1  UNL1        0.1627
     34 O           5.9260    4.1130   34.3611 O.3     1  UNL1       -0.3774
     35 C           3.8316    4.8723   34.2083 C.3     1  UNL1        0.2025
     36 C           2.6336    5.5318   34.8245 C.2     1  UNL1        0.1798
     37 O           3.2392    5.7327   36.1820 O.2     1  UNL1       -0.2934
     38 C           1.3045    6.1479   35.1471 C.3     1  UNL1        0.0605
     39 C           1.6228    6.4820   36.5744 C.3     1  UNL1        0.0079
     40 C          -0.0934    6.6918   35.1611 C.3     1  UNL1        0.0117
     41 C          -1.4947    7.1380   34.8659 C.3     1  UNL1        0.0225
     42 C          -1.7817    7.6861   36.2323 C.3     1  UNL1        0.0047
     43 C          -2.8340    7.4656   34.2751 C.2     1  UNL1       -0.0265
     44 C          -4.0486    7.6594   33.4165 C.2     1  UNL1       -0.0046
     45 C          -5.0817    7.7103   32.3302 C.2     1  UNL1       -0.0004
     46 C          -5.8850    7.6160   31.0670 C.2     1  UNL1       -0.0006
     47 C          -6.4210    7.3806   29.6859 C.2     1  UNL1       -0.0062
     48 C          -6.6646    7.0155   28.2516 C.2     1  UNL1       -0.0172
     49 C          -8.0695    7.5372   28.1878 C.3     1  UNL1        0.0288
     50 H          -4.7503    4.1409   21.5791 H       1  UNL1        0.2132
     51 H           6.7078    3.6878   33.9751 H       1  UNL1        0.2109
     52 C          -8.2897    7.4356   25.0694 C.3     1  UNL1        0.1744
     53 O          -7.9963    6.9558   26.4600 O.3     1  UNL1       -0.3494
     54 C           6.3359    0.8592   24.6906 C.3     1  UNL1        0.0406
     55 C           7.2329    1.6552   23.7898 C.3     1  UNL1        0.0037
     56 C           6.5952   -0.6025   24.9059 C.3     1  UNL1        0.0037
     57 C           6.2924   -1.5865   23.8152 C.3     1  UNL1        0.0027
     58 C           6.0108   -3.0201   24.1554 C.3     1  UNL1        0.0027
     59 C           5.7080   -4.0043   23.0647 C.3     1  UNL1        0.0321
     60 C           5.6867   -3.5549   21.6338 C.3     1  UNL1        0.1423
     61 C           5.9682   -2.1214   21.2936 C.3     1  UNL1        0.1423
     62 C           6.2711   -1.1372   22.3843 C.3     1  UNL1        0.0321
     63 O           5.9469   -1.6720   19.8626 O.3     1  UNL1       -0.3511
     64 C           7.2337   -1.4996   19.1114 C.3     1  UNL1        0.1741
     65 O           5.3839   -4.5390   20.5431 O.3     1  UNL1       -0.3511
     66 C           3.9656   -4.7672   20.1112 C.3     1  UNL1        0.1738
     67 C           3.4865   -4.2295   18.7953 C.3     1  UNL1        0.1692
     68 O           4.1777   -3.0551   18.1686 O.3     1  UNL1       -0.3794
     69 H           4.0467   -2.2696   18.7224 H       1  UNL1        0.2105
     70 O           4.6964    4.9305   35.4325 O.3     1  UNL1       -0.3433
     71 C           5.5128    6.1564   35.7165 C.3     1  UNL1        0.1747
@<TRIPOS>BOND
     1    52    53    1
     2     1    53    1
     3     1     2    1
     4     3     2    1
     5     3     4    1
     6     4     5    1
     7     5     6    1
     8     6     7    1
     9     6     8    1
    10     8     9    1
    11     8    10    1
    12     8    11    1
    13    11    12    2
    14    11    13    1
    15    13    14    2
    16    13    15   am
    17    15    16    1
    18    16    17    1
    19    17    18    1
    20    18    19    1
    21    20    19    1
    22    20    21    1
    23    21    22    2
    24    21    23    1
    25    23    24    1
    26    24    54    1
    27    54    55    1
    28    54    56    1
    29    57    56    1
    30    57    58    1
    31    58    59    1
    32    59    60    1
    33    60    65    1
    34    65    66    1
    35    66    67    1
    36    67    68    1
    37    60    61    1
    38    61    63    1
    39    63    64    1
    40    61    62    1
    41    24    25    1
    42    25    26    1
    43    26    27    2
    44    26    28    1
    45    28    29    1
    46    28    30    1
    47    30    31    2
    48    31    32    1
    49    31    33    1
    50    33    34    1
    51    33    35    1
    52    35    70    1
    53    70    71    1
    54    35    36    1
    55    36    37    2
    56    36    38    1
    57    38    39    1
    58    38    40    1
    59    40    41    1
    60    41    42    1
    61    41    43    1
    62    43    44    2
    63    44    45    1
    64    45    46    2
    65    46    47    1
    66    47    48    2
    67    48    49    1
    68    48     1    1
    69    10     3    1
    70    20    15    1
    71    62    57    1
    72     9    50    1
    73    68    69    1
    74    34    51    1
