@<TRIPOS>MOLECULE
*****
 27 30 0 0 0
SMALL
GASTEIGER

@<TRIPOS>ATOM
      1 C          -4.4598  -17.8207   22.5117 C.3     1  UNL1        0.1747
      2 C          -4.2594  -17.0383   23.7757 C.3     1  UNL1        0.0407
      3 C          -5.4443  -16.4882   24.5129 C.3     1  UNL1        0.0412
      4 C          -5.2440  -15.7057   25.7769 C.3     1  UNL1        0.0672
      5 S          -6.4288  -15.1557   26.5142 S.3     1  UNL1       -0.0807
      6 C          -7.8140  -15.3882   25.9876 C.2     1  UNL1        0.1482
      7 N          -8.9988  -14.8381   26.7249 N.pl3   1  UNL1       -0.3380
      8 N          -8.0143  -16.1706   24.7236 N.2     1  UNL1       -0.2484
      9 C          -6.8294  -16.7207   23.9863 C.3     1  UNL1        0.1352
     10 C          -7.0297  -17.5031   22.7223 C.3     1  UNL1        0.1691
     11 O          -5.8449  -18.0532   21.9851 O.3     1  UNL1       -0.3462
     12 H          -8.8673  -14.3245   27.5545 H       1  UNL1        0.1442
     13 H          -9.9079  -14.9906   26.3793 H       1  UNL1        0.1442
     14 C          -8.2145  -16.9531   23.4596 C.ar    1  UNL1        0.0278
     15 C          -9.0342  -18.0950   23.9834 C.ar    1  UNL1        0.0021
     16 C         -10.4194  -18.3275   23.4567 C.ar    1  UNL1        0.0295
     17 C         -10.9848  -17.4180   22.4063 C.ar    1  UNL1        0.1424
     18 F         -12.3700  -17.6505   21.8797 F       1  UNL1       -0.2041
     19 C         -10.1651  -16.2762   21.8826 C.ar    1  UNL1        0.0590
     20 C          -8.7800  -16.0437   22.4093 C.ar    1  UNL1        0.1402
     21 F          -7.9603  -14.9019   21.8856 F       1  UNL1       -0.2044
     22 C          -0.0679  -18.1507   19.5989 C.3     1  UNL1        0.0557
     23 C          -1.2562  -18.5224   20.4355 C.ar    1  UNL1        0.1008
     24 C          -2.2623  -17.5700   21.0106 C.ar    1  UNL1        0.0561
     25 C          -3.2749  -18.3708   21.7744 C.ar    1  UNL1        0.1809
     26 O          -2.8947  -19.8181   21.6714 O.2     1  UNL1       -0.3556
     27 N          -1.6471  -19.9119   20.8439 N.ar    1  UNL1       -0.0817
@<TRIPOS>BOND
     1    22    23    1
     2    23    24   ar
     3    24    25   ar
     4     1    25    1
     5     1     2    1
     6     3     2    1
     7     3     4    1
     8     4     5    1
     9     5     6    1
    10     6     7    1
    11     6     8    2
    12     8     9    1
    13     9    14    1
    14    14    15   ar
    15    15    16   ar
    16    16    17   ar
    17    17    18    1
    18    17    19   ar
    19    19    20   ar
    20    20    21    1
    21     9    10    1
    22    10    11    1
    23    25    26   ar
    24    26    27   ar
    25    27    23   ar
    26    11     1    1
    27     9     3    1
    28    20    14   ar
    29     7    12    1
    30     7    13    1
@<TRIPOS>MOLECULE
*****
 27 30 0 0 0
SMALL
GASTEIGER

@<TRIPOS>ATOM
      1 C          -5.0419  -18.7260   21.1896 C.3     1  UNL1        0.1747
      2 C          -6.1320  -19.2291   20.2904 C.3     1  UNL1        0.0407
      3 C          -7.5667  -18.9343   20.6138 C.3     1  UNL1        0.0412
      4 C          -8.6569  -19.4375   19.7147 C.3     1  UNL1        0.0672
      5 S         -10.0916  -19.1427   20.0381 S.3     1  UNL1       -0.0807
      6 C         -10.4362  -18.3448   21.2606 C.2     1  UNL1        0.1482
      7 N         -11.8711  -18.0501   21.5840 N.pl3   1  UNL1       -0.3380
      8 N          -9.3461  -17.8417   22.1597 N.2     1  UNL1       -0.2484
      9 C          -7.9113  -18.1364   21.8364 C.3     1  UNL1        0.1352
     10 C          -6.8212  -17.6333   22.7355 C.3     1  UNL1        0.1691
     11 O          -5.3865  -17.9281   22.4121 O.3     1  UNL1       -0.3462
     12 H         -12.5865  -18.3803   20.9938 H       1  UNL1        0.1442
     13 H         -12.0973  -17.5264   22.3863 H       1  UNL1        0.1442
     14 C          -8.2560  -17.3386   23.0589 C.ar    1  UNL1        0.0278
     15 C          -7.9978  -15.8612   23.0877 C.ar    1  UNL1        0.0021
     16 C          -8.3425  -15.0633   24.3102 C.ar    1  UNL1        0.0295
     17 C          -8.9452  -15.7428   25.5040 C.ar    1  UNL1        0.1424
     18 F          -9.2899  -14.9449   26.7265 F       1  UNL1       -0.2041
     19 C          -9.2033  -17.2201   25.4752 C.ar    1  UNL1        0.0590
     20 C          -8.8587  -18.0180   24.2527 C.ar    1  UNL1        0.1402
     21 F          -9.1167  -19.4953   24.2239 F       1  UNL1       -0.2044
     22 C          -0.0048  -18.1459   19.7157 C.3     1  UNL1        0.0557
     23 C          -1.2917  -18.7540   20.1888 C.ar    1  UNL1        0.1008
     24 C          -2.5899  -18.0287   20.3851 C.ar    1  UNL1        0.0561
     25 C          -3.6070  -19.0207   20.8662 C.ar    1  UNL1        0.1809
     26 O          -2.9375  -20.3592   20.9672 O.2     1  UNL1       -0.3556
     27 N          -1.5066  -20.1944   20.5485 N.ar    1  UNL1       -0.0817
@<TRIPOS>BOND
     1    22    23    1
     2    23    24   ar
     3    24    25   ar
     4     1    25    1
     5     1     2    1
     6     3     2    1
     7     3     4    1
     8     4     5    1
     9     5     6    1
    10     6     7    1
    11     6     8    2
    12     8     9    1
    13     9    14    1
    14    14    15   ar
    15    15    16   ar
    16    16    17   ar
    17    17    18    1
    18    17    19   ar
    19    19    20   ar
    20    20    21    1
    21     9    10    1
    22    10    11    1
    23    25    26   ar
    24    26    27   ar
    25    27    23   ar
    26    11     1    1
    27     9     3    1
    28    20    14   ar
    29     7    12    1
    30     7    13    1
@<TRIPOS>MOLECULE
*****
 27 30 0 0 0
SMALL
GASTEIGER

@<TRIPOS>ATOM
      1 C          -5.1002  -18.6560   21.4331 C.3     1  UNL1        0.1747
      2 C          -6.2258  -19.1507   20.5740 C.3     1  UNL1        0.0407
      3 C          -7.6453  -18.8372   20.9438 C.3     1  UNL1        0.0412
      4 C          -8.7710  -19.3319   20.0846 C.3     1  UNL1        0.0672
      5 S         -10.1904  -19.0184   20.4544 S.3     1  UNL1       -0.0807
      6 C         -10.4842  -18.2101   21.6834 C.2     1  UNL1        0.1482
      7 N         -11.9038  -17.8965   22.0532 N.pl3   1  UNL1       -0.3380
      8 N          -9.3586  -17.7153   22.5425 N.2     1  UNL1       -0.2484
      9 C          -7.9391  -18.0289   22.1727 C.3     1  UNL1        0.1352
     10 C          -6.8135  -17.5341   23.0319 C.3     1  UNL1        0.1691
     11 O          -5.3940  -17.8477   22.6621 O.3     1  UNL1       -0.3462
     12 H         -12.6426  -18.2212   21.4893 H       1  UNL1        0.1442
     13 H         -12.0967  -17.3660   22.8598 H       1  UNL1        0.1442
     14 C          -8.2329  -17.2206   23.4017 C.ar    1  UNL1        0.0278
     15 C          -8.6792  -17.9043   24.6601 C.ar    1  UNL1        0.0021
     16 C          -8.9730  -17.0960   25.8890 C.ar    1  UNL1        0.0295
     17 C          -8.8206  -15.6040   25.8596 C.ar    1  UNL1        0.1424
     18 F          -9.1144  -14.7957   27.0885 F       1  UNL1       -0.2041
     19 C          -8.3743  -14.9204   24.6012 C.ar    1  UNL1        0.0590
     20 C          -8.0805  -15.7287   23.3723 C.ar    1  UNL1        0.1402
     21 F          -7.6343  -15.0451   22.1139 F       1  UNL1       -0.2044
     22 C          -0.1405  -18.1687   19.6880 C.3     1  UNL1        0.0557
     23 C          -1.4010  -18.7455   20.2612 C.ar    1  UNL1        0.1008
     24 C          -2.6921  -18.0108   20.4688 C.ar    1  UNL1        0.0561
     25 C          -3.6807  -18.9696   21.0633 C.ar    1  UNL1        0.1809
     26 O          -3.0005  -20.2969   21.2232 O.2     1  UNL1       -0.3556
     27 N          -1.5916  -20.1585   20.7274 N.ar    1  UNL1       -0.0817
@<TRIPOS>BOND
     1    22    23    1
     2    23    24   ar
     3    24    25   ar
     4     1    25    1
     5     1     2    1
     6     3     2    1
     7     3     4    1
     8     4     5    1
     9     5     6    1
    10     6     7    1
    11     6     8    2
    12     8     9    1
    13     9    14    1
    14    14    15   ar
    15    15    16   ar
    16    16    17   ar
    17    17    18    1
    18    17    19   ar
    19    19    20   ar
    20    20    21    1
    21     9    10    1
    22    10    11    1
    23    25    26   ar
    24    26    27   ar
    25    27    23   ar
    26    11     1    1
    27     9     3    1
    28    20    14   ar
    29     7    12    1
    30     7    13    1
@<TRIPOS>MOLECULE
*****
 27 30 0 0 0
SMALL
GASTEIGER

@<TRIPOS>ATOM
      1 C           3.5373   -0.8849   24.6749 C.3     1  UNL1        0.1747
      2 C           4.2161   -2.1060   24.1289 C.3     1  UNL1        0.0407
      3 C           4.2028   -2.3747   22.6532 C.3     1  UNL1        0.0412
      4 C           4.8816   -3.5959   22.1071 C.3     1  UNL1        0.0672
      5 S           4.8683   -3.8646   20.6315 S.3     1  UNL1       -0.0807
      6 C           4.1763   -2.9122   19.7019 C.2     1  UNL1        0.1482
      7 N           4.1631   -3.1810   18.2261 N.pl3   1  UNL1       -0.3380
      8 N           3.4976   -1.6911   20.2479 N.2     1  UNL1       -0.2484
      9 C           3.5108   -1.4224   21.7236 C.3     1  UNL1        0.1352
     10 C           2.8321   -0.2013   22.2697 C.3     1  UNL1        0.1691
     11 O           2.8453    0.0675   23.7453 O.3     1  UNL1       -0.3462
     12 H           4.6086   -3.9825   17.8678 H       1  UNL1        0.1442
     13 H           3.7089   -2.5559   17.6160 H       1  UNL1        0.1442
     14 C           2.8188   -0.4700   20.7940 C.ar    1  UNL1        0.0278
     15 C           1.3558   -0.6334   20.5055 C.ar    1  UNL1        0.0021
     16 C           0.6638    0.3190   19.5759 C.ar    1  UNL1        0.0295
     17 C           1.4348    1.4347   18.9348 C.ar    1  UNL1        0.1424
     18 F           0.7428    2.3871   18.0053 F       1  UNL1       -0.2041
     19 C           2.8977    1.5980   19.2234 C.ar    1  UNL1        0.0590
     20 C           3.5897    0.6457   20.1530 C.ar    1  UNL1        0.1402
     21 F           5.0525    0.8090   20.4415 F       1  UNL1       -0.2044
     22 C           3.7469    1.6118   29.3229 C.3     1  UNL1        0.0557
     23 C           3.6469    0.5315   28.2871 C.ar    1  UNL1        0.1008
     24 C           3.6813    0.7294   26.8006 C.ar    1  UNL1        0.0561
     25 C           3.5506   -0.6161   26.1506 C.ar    1  UNL1        0.1809
     26 O           3.4354   -1.6457   27.2354 O.2     1  UNL1       -0.3556
     27 N           3.4950   -0.9364   28.5558 N.ar    1  UNL1       -0.0817
@<TRIPOS>BOND
     1    22    23    1
     2    23    24   ar
     3    24    25   ar
     4     1    25    1
     5     1     2    1
     6     3     2    1
     7     3     4    1
     8     4     5    1
     9     5     6    1
    10     6     7    1
    11     6     8    2
    12     8     9    1
    13     9    14    1
    14    14    15   ar
    15    15    16   ar
    16    16    17   ar
    17    17    18    1
    18    17    19   ar
    19    19    20   ar
    20    20    21    1
    21     9    10    1
    22    10    11    1
    23    25    26   ar
    24    26    27   ar
    25    27    23   ar
    26    11     1    1
    27     9     3    1
    28    20    14   ar
    29     7    12    1
    30     7    13    1
@<TRIPOS>MOLECULE
*****
 27 30 0 0 0
SMALL
GASTEIGER

@<TRIPOS>ATOM
      1 C           3.7242   -0.5530   24.2162 C.3     1  UNL1        0.1747
      2 C           3.9530    0.7416   23.4939 C.3     1  UNL1        0.0407
      3 C           4.2932    0.7354   22.0331 C.3     1  UNL1        0.0412
      4 C           4.5220    2.0300   21.3107 C.3     1  UNL1        0.0672
      5 S           4.8622    2.0238   19.8499 S.3     1  UNL1       -0.0807
      6 C           4.9738    0.7230   19.1113 C.2     1  UNL1        0.1482
      7 N           5.3140    0.7169   17.6503 N.pl3   1  UNL1       -0.3380
      8 N           4.7450   -0.5715   19.8335 N.2     1  UNL1       -0.2484
      9 C           4.4047   -0.5654   21.2945 C.3     1  UNL1        0.1352
     10 C           4.1760   -1.8599   22.0167 C.3     1  UNL1        0.1691
     11 O           3.8357   -1.8537   23.4776 O.3     1  UNL1       -0.3462
     12 H           5.4642    1.5666   17.1763 H       1  UNL1        0.1442
     13 H           5.3872   -0.1369   17.1656 H       1  UNL1        0.1442
     14 C           4.5162   -1.8662   20.5559 C.ar    1  UNL1        0.0278
     15 C           5.8277   -2.5929   20.5107 C.ar    1  UNL1        0.0021
     16 C           5.9392   -3.8937   19.7721 C.ar    1  UNL1        0.0295
     17 C           4.7393   -4.4677   19.0787 C.ar    1  UNL1        0.1424
     18 F           4.8508   -5.7685   18.3401 F       1  UNL1       -0.2041
     19 C           3.4279   -3.7410   19.1239 C.ar    1  UNL1        0.0590
     20 C           3.3164   -2.4402   19.8625 C.ar    1  UNL1        0.1402
     21 F           2.0050   -1.7135   19.9078 F       1  UNL1       -0.2044
     22 C           1.9289    0.9532   28.9479 C.3     1  UNL1        0.0557
     23 C           2.5587    0.1456   27.8521 C.ar    1  UNL1        0.1008
     24 C           2.6960    0.5616   26.4175 C.ar    1  UNL1        0.0561
     25 C           3.3839   -0.5468   25.6771 C.ar    1  UNL1        0.1809
     26 O           3.6719   -1.6479   26.6541 O.2     1  UNL1       -0.3556
     27 N           3.1619   -1.2201   27.9983 N.ar    1  UNL1       -0.0817
@<TRIPOS>BOND
     1    22    23    1
     2    23    24   ar
     3    24    25   ar
     4     1    25    1
     5     1     2    1
     6     3     2    1
     7     3     4    1
     8     4     5    1
     9     5     6    1
    10     6     7    1
    11     6     8    2
    12     8     9    1
    13     9    14    1
    14    14    15   ar
    15    15    16   ar
    16    16    17   ar
    17    17    18    1
    18    17    19   ar
    19    19    20   ar
    20    20    21    1
    21     9    10    1
    22    10    11    1
    23    25    26   ar
    24    26    27   ar
    25    27    23   ar
    26    11     1    1
    27     9     3    1
    28    20    14   ar
    29     7    12    1
    30     7    13    1
@<TRIPOS>MOLECULE
*****
 27 30 0 0 0
SMALL
GASTEIGER

@<TRIPOS>ATOM
      1 C           2.6717    0.3037   23.0938 C.3     1  UNL1        0.1747
      2 C           3.0406    1.4164   22.1581 C.3     1  UNL1        0.0407
      3 C           3.6616    1.1037   20.8290 C.3     1  UNL1        0.0412
      4 C           4.0306    2.2164   19.8931 C.3     1  UNL1        0.0672
      5 S           4.6515    1.9036   18.5640 S.3     1  UNL1       -0.0807
      6 C           4.9035    0.4782   18.1707 C.2     1  UNL1        0.1482
      7 N           5.5245    0.1655   16.8415 N.pl3   1  UNL1       -0.3380
      8 N           4.5345   -0.6345   19.1064 N.2     1  UNL1       -0.2484
      9 C           3.9136   -0.3218   20.4356 C.3     1  UNL1        0.1352
     10 C           3.5446   -1.4344   21.3714 C.3     1  UNL1        0.1691
     11 O           2.9236   -1.1217   22.7005 O.3     1  UNL1       -0.3462
     12 H           5.7667    0.8958   16.2273 H       1  UNL1        0.1442
     13 H           5.6899   -0.7700   16.5833 H       1  UNL1        0.1442
     14 C           4.1655   -1.7472   20.0423 C.ar    1  UNL1        0.0278
     15 C           3.0637   -2.5633   19.4340 C.ar    1  UNL1        0.0021
     16 C           3.3157   -3.9888   19.0407 C.ar    1  UNL1        0.0295
     17 C           4.6695   -4.5980   19.2557 C.ar    1  UNL1        0.1424
     18 F           4.9215   -6.0234   18.8624 F       1  UNL1       -0.2041
     19 C           5.7712   -3.7819   19.8640 C.ar    1  UNL1        0.0590
     20 C           5.5192   -2.3564   20.2573 C.ar    1  UNL1        0.1402
     21 F           6.6209   -1.5403   20.8656 F       1  UNL1       -0.2044
     22 C          -0.7763    1.8242   26.7926 C.3     1  UNL1        0.0557
     23 C           0.4658    1.3153   26.1231 C.ar    1  UNL1        0.1008
     24 C           0.6675    1.1524   24.6457 C.ar    1  UNL1        0.0561
     25 C           2.0507    0.6164   24.4230 C.ar    1  UNL1        0.1809
     26 O           2.7038    0.4480   25.7628 O.2     1  UNL1       -0.3556
     27 N           1.7243    0.8799   26.8136 N.ar    1  UNL1       -0.0817
@<TRIPOS>BOND
     1    22    23    1
     2    23    24   ar
     3    24    25   ar
     4     1    25    1
     5     1     2    1
     6     3     2    1
     7     3     4    1
     8     4     5    1
     9     5     6    1
    10     6     7    1
    11     6     8    2
    12     8     9    1
    13     9    14    1
    14    14    15   ar
    15    15    16   ar
    16    16    17   ar
    17    17    18    1
    18    17    19   ar
    19    19    20   ar
    20    20    21    1
    21     9    10    1
    22    10    11    1
    23    25    26   ar
    24    26    27   ar
    25    27    23   ar
    26    11     1    1
    27     9     3    1
    28    20    14   ar
    29     7    12    1
    30     7    13    1
@<TRIPOS>MOLECULE
*****
 27 30 0 0 0
SMALL
GASTEIGER

@<TRIPOS>ATOM
      1 C           2.2374    0.0721   30.2603 C.3     1  UNL1        0.1747
      2 C           3.3763   -0.6572   29.6115 C.3     1  UNL1        0.0407
      3 C           4.6247   -0.9444   30.3919 C.3     1  UNL1        0.0412
      4 C           5.7637   -1.6737   29.7431 C.3     1  UNL1        0.0672
      5 S           7.0120   -1.9609   30.5235 S.3     1  UNL1       -0.0807
      6 C           7.1214   -1.5189   31.9527 C.2     1  UNL1        0.1482
      7 N           8.3699   -1.8062   32.7332 N.pl3   1  UNL1       -0.3380
      8 N           5.9825   -0.7897   32.6015 N.2     1  UNL1       -0.2484
      9 C           4.7341   -0.5024   31.8211 C.3     1  UNL1        0.1352
     10 C           3.5951    0.2268   32.4699 C.3     1  UNL1        0.1691
     11 O           2.3468    0.5141   31.6895 O.3     1  UNL1       -0.3462
     12 H           9.1174   -2.2848   32.3073 H       1  UNL1        0.1442
     13 H           8.4417   -1.5161   33.6712 H       1  UNL1        0.1442
     14 C           4.8435   -0.0604   33.2503 C.ar    1  UNL1        0.0278
     15 C           5.2935    1.3340   33.5718 C.ar    1  UNL1        0.0021
     16 C           5.4029    1.7760   35.0010 C.ar    1  UNL1        0.0295
     17 C           5.0623    0.8237   36.1087 C.ar    1  UNL1        0.1424
     18 F           5.1717    1.2657   37.5380 F       1  UNL1       -0.2041
     19 C           4.6123   -0.5706   35.7873 C.ar    1  UNL1        0.0590
     20 C           4.5029   -1.0127   34.3580 C.ar    1  UNL1        0.1402
     21 F           4.0529   -2.4069   34.0366 F       1  UNL1       -0.2044
     22 C          -1.2458    2.3726   27.0266 C.3     1  UNL1        0.0557
     23 C          -0.6120    1.4168   27.9935 C.ar    1  UNL1        0.1008
     24 C           0.7730    1.5238   28.5593 C.ar    1  UNL1        0.0561
     25 C           0.9890    0.3593   29.4798 C.ar    1  UNL1        0.1809
     26 O          -0.2626   -0.4675   29.4829 O.2     1  UNL1       -0.3556
     27 N          -1.2521    0.1860   28.5643 N.ar    1  UNL1       -0.0817
@<TRIPOS>BOND
     1    22    23    1
     2    23    24   ar
     3    24    25   ar
     4     1    25    1
     5     1     2    1
     6     3     2    1
     7     3     4    1
     8     4     5    1
     9     5     6    1
    10     6     7    1
    11     6     8    2
    12     8     9    1
    13     9    14    1
    14    14    15   ar
    15    15    16   ar
    16    16    17   ar
    17    17    18    1
    18    17    19   ar
    19    19    20   ar
    20    20    21    1
    21     9    10    1
    22    10    11    1
    23    25    26   ar
    24    26    27   ar
    25    27    23   ar
    26    11     1    1
    27     9     3    1
    28    20    14   ar
    29     7    12    1
    30     7    13    1
@<TRIPOS>MOLECULE
*****
 27 30 0 0 0
SMALL
GASTEIGER

@<TRIPOS>ATOM
      1 C           2.1876    0.2160   30.5176 C.3     1  UNL1        0.1747
      2 C           2.2527    1.0195   31.7825 C.3     1  UNL1        0.0407
      3 C           3.3726    0.7974   32.7553 C.3     1  UNL1        0.0412
      4 C           3.4377    1.6009   34.0203 C.3     1  UNL1        0.0672
      5 S           4.5577    1.3787   34.9931 S.3     1  UNL1       -0.0807
      6 C           5.6125    0.3531   34.7010 C.2     1  UNL1        0.1482
      7 N           6.7325    0.1309   35.6739 N.pl3   1  UNL1       -0.3380
      8 N           5.5475   -0.4504   33.4360 N.2     1  UNL1       -0.2484
      9 C           4.4275   -0.2283   32.4631 C.3     1  UNL1        0.1352
     10 C           4.3624   -1.0317   31.1982 C.3     1  UNL1        0.1691
     11 O           3.2425   -0.8096   30.2254 O.3     1  UNL1       -0.3462
     12 H           6.7752    0.6583   36.5041 H       1  UNL1        0.1442
     13 H           7.4248   -0.5422   35.4821 H       1  UNL1        0.1442
     14 C           5.4824   -1.2539   32.1710 C.ar    1  UNL1        0.0278
     15 C           6.6973   -0.8750   31.3770 C.ar    1  UNL1        0.0021
     16 C           7.7522   -1.9006   31.0849 C.ar    1  UNL1        0.0295
     17 C           7.5921   -3.3051   31.5867 C.ar    1  UNL1        0.1424
     18 F           8.6469   -4.3308   31.2945 F       1  UNL1       -0.2041
     19 C           6.3771   -3.6840   32.3806 C.ar    1  UNL1        0.0590
     20 C           5.3223   -2.6584   32.6728 C.ar    1  UNL1        0.1402
     21 F           4.1073   -3.0372   33.4667 F       1  UNL1       -0.2044
     22 C          -0.7887    2.2697   26.6698 C.3     1  UNL1        0.0557
     23 C          -0.3004    1.3822   27.7761 C.ar    1  UNL1        0.1008
     24 C           0.9843    1.5430   28.5335 C.ar    1  UNL1        0.0561
     25 C           1.0677    0.4382   29.5447 C.ar    1  UNL1        0.1809
     26 O          -0.1655   -0.4055   29.4122 O.2     1  UNL1       -0.3556
     27 N          -1.0110    0.1779   28.3192 N.ar    1  UNL1       -0.0817
@<TRIPOS>BOND
     1    22    23    1
     2    23    24   ar
     3    24    25   ar
     4     1    25    1
     5     1     2    1
     6     3     2    1
     7     3     4    1
     8     4     5    1
     9     5     6    1
    10     6     7    1
    11     6     8    2
    12     8     9    1
    13     9    14    1
    14    14    15   ar
    15    15    16   ar
    16    16    17   ar
    17    17    18    1
    18    17    19   ar
    19    19    20   ar
    20    20    21    1
    21     9    10    1
    22    10    11    1
    23    25    26   ar
    24    26    27   ar
    25    27    23   ar
    26    11     1    1
    27     9     3    1
    28    20    14   ar
    29     7    12    1
    30     7    13    1
@<TRIPOS>MOLECULE
*****
 27 30 0 0 0
SMALL
GASTEIGER

@<TRIPOS>ATOM
      1 C           2.0417    2.1313   32.8352 C.3     1  UNL1        0.1747
      2 C           3.1047    1.1122   32.5498 C.3     1  UNL1        0.0407
      3 C           3.1792    0.4644   31.1990 C.3     1  UNL1        0.0412
      4 C           4.2422   -0.5548   30.9136 C.3     1  UNL1        0.0672
      5 S           4.3167   -1.2027   29.5628 S.3     1  UNL1       -0.0807
      6 C           3.3282   -0.8314   28.4973 C.2     1  UNL1        0.1482
      7 N           3.4028   -1.4793   27.1465 N.pl3   1  UNL1       -0.3380
      8 N           2.2653    0.1877   28.7827 N.2     1  UNL1       -0.2484
      9 C           2.1907    0.8356   30.1336 C.3     1  UNL1        0.1352
     10 C           1.1277    1.8547   30.4190 C.3     1  UNL1        0.1691
     11 O           1.0532    2.5026   31.7698 O.3     1  UNL1       -0.3462
     12 H           4.1004   -2.1482   26.9592 H       1  UNL1        0.1442
     13 H           2.7540   -1.2356   26.4472 H       1  UNL1        0.1442
     14 C           1.2023    1.2069   29.0682 C.ar    1  UNL1        0.0278
     15 C          -0.1065    0.4800   28.9732 C.ar    1  UNL1        0.0021
     16 C          -1.0950    0.8513   27.9077 C.ar    1  UNL1        0.0295
     17 C          -0.7747    1.9494   26.9373 C.ar    1  UNL1        0.1424
     18 F          -1.7631    2.3207   25.8719 F       1  UNL1       -0.2041
     19 C           0.5340    2.6762   27.0324 C.ar    1  UNL1        0.0590
     20 C           1.5225    2.3049   28.0978 C.ar    1  UNL1        0.1402
     21 F           2.8312    3.0317   28.1928 F       1  UNL1       -0.2044
     22 C           1.3057    5.6941   36.6622 C.3     1  UNL1        0.0557
     23 C           1.6288    4.4169   35.9451 C.ar    1  UNL1        0.1008
     24 C           1.5616    4.1966   34.4629 C.ar    1  UNL1        0.0561
     25 C           1.9671    2.7792   34.1860 C.ar    1  UNL1        0.1809
     26 O           2.2850    2.1235   35.4971 O.2     1  UNL1       -0.3556
     27 N           2.0760    3.1356   36.5843 N.ar    1  UNL1       -0.0817
@<TRIPOS>BOND
     1    22    23    1
     2    23    24   ar
     3    24    25   ar
     4     1    25    1
     5     1     2    1
     6     3     2    1
     7     3     4    1
     8     4     5    1
     9     5     6    1
    10     6     7    1
    11     6     8    2
    12     8     9    1
    13     9    14    1
    14    14    15   ar
    15    15    16   ar
    16    16    17   ar
    17    17    18    1
    18    17    19   ar
    19    19    20   ar
    20    20    21    1
    21     9    10    1
    22    10    11    1
    23    25    26   ar
    24    26    27   ar
    25    27    23   ar
    26    11     1    1
    27     9     3    1
    28    20    14   ar
    29     7    12    1
    30     7    13    1
