@<TRIPOS>MOLECULE
*****
 26 29 0 0 0
SMALL
GASTEIGER

@<TRIPOS>ATOM
      1 C         -12.2638  -18.3118   22.7631 C.2     1  UNL1        0.0919
      2 C         -12.3840  -17.6548   21.4201 C.2     1  UNL1        0.0183
      3 C         -11.2377  -17.7076   20.4540 C.2     1  UNL1        0.0511
      4 C          -9.9713  -18.4174   20.8310 C.2     1  UNL1        0.2322
      5 N          -8.6836  -18.6331   20.0926 N.2     1  UNL1       -0.0308
      6 C          -7.7675  -19.4235   20.9793 C.2     1  UNL1        0.3767
      7 N          -8.4891  -19.6963   22.2657 N.2     1  UNL1       -0.0346
      8 C          -9.8511  -19.0745   22.1741 C.2     1  UNL1        0.2191
      9 C         -10.9974  -19.0217   23.1401 C.3     1  UNL1        0.1226
     10 C          -6.3745  -19.8638   20.6392 C.ar    1  UNL1        0.1075
     11 C          -6.1181  -21.2793   20.2140 C.ar    1  UNL1        0.1065
     12 N          -4.7251  -21.7196   19.8738 N.ar    1  UNL1       -0.2421
     13 C          -3.5886  -20.7445   19.9589 C.ar    1  UNL1        0.0988
     14 C          -3.8449  -19.3291   20.3841 C.ar    1  UNL1        0.0194
     15 C          -5.2379  -18.8887   20.7242 C.ar    1  UNL1        0.0108
     16 C          -2.7083  -18.3539   20.4692 C.ar    1  UNL1        0.0015
     17 C          -2.7674  -17.2164   21.4452 C.ar    1  UNL1        0.0000
     18 C          -1.6308  -16.2413   21.5302 C.ar    1  UNL1        0.0000
     19 C          -0.4350  -16.4038   20.6393 C.ar    1  UNL1        0.0000
     20 C          -0.3758  -17.5413   19.6634 C.ar    1  UNL1        0.0000
     21 C          -1.5125  -18.5164   19.5783 C.ar    1  UNL1        0.0000
     22 S         -13.4101  -18.2591   23.7292 S.O2    1  UNL1        0.0054
     23 O         -12.4664  -18.5279   24.8637 O.2     1  UNL1       -0.1689
     24 O         -14.3539  -17.9903   22.5947 O.2     1  UNL1       -0.1689
     25 C         -14.3304  -18.5180   26.1449 C.3     1  UNL1        0.0276
     26 C         -14.5564  -18.2063   24.6952 C.3     1  UNL1        0.1556
@<TRIPOS>BOND
     1    25    26    1
     2    26    22    1
     3    22    23    2
     4    22    24    2
     5    22     1    1
     6     1     2    2
     7     2     3    1
     8     3     4    2
     9     4     5    1
    10     5     6    2
    11     6    10    1
    12    10    11   ar
    13    11    12   ar
    14    12    13   ar
    15    13    14   ar
    16    14    16    1
    17    16    17   ar
    18    17    18   ar
    19    18    19   ar
    20    19    20   ar
    21    20    21   ar
    22    14    15   ar
    23     6     7    1
    24     7     8    2
    25     8     9    1
    26     9     1    1
    27     8     4    1
    28    15    10   ar
    29    21    16   ar
@<TRIPOS>MOLECULE
*****
 26 29 0 0 0
SMALL
GASTEIGER

@<TRIPOS>ATOM
      1 C           8.3275   -6.7742   25.3949 C.2     1  UNL1        0.0919
      2 C           9.0833   -7.5642   24.3679 C.2     1  UNL1        0.0183
      3 C           9.0973   -7.1146   22.9369 C.2     1  UNL1        0.0511
      4 C           8.3556   -5.8751   22.5329 C.2     1  UNL1        0.2322
      5 N           8.1896   -5.1917   21.2080 N.2     1  UNL1       -0.0308
      6 C           7.3311   -3.9793   21.4161 C.2     1  UNL1        0.3767
      7 N           6.9667   -3.9134   22.8696 N.2     1  UNL1       -0.0346
      8 C           7.5998   -5.0851   23.5599 C.2     1  UNL1        0.2191
      9 C           7.5858   -5.5346   24.9908 C.3     1  UNL1        0.1226
     10 C           6.9110   -3.0040   20.3566 C.ar    1  UNL1        0.1075
     11 C           7.8782   -2.5992   19.2839 C.ar    1  UNL1        0.1065
     12 N           7.4581   -1.6240   18.2245 N.ar    1  UNL1       -0.2421
     13 C           6.0709   -1.0537   18.2377 C.ar    1  UNL1        0.0988
     14 C           5.1037   -1.4585   19.3104 C.ar    1  UNL1        0.0194
     15 C           5.5238   -2.4337   20.3698 C.ar    1  UNL1        0.0108
     16 C           3.7164   -0.8881   19.3236 C.ar    1  UNL1        0.0015
     17 C           3.3039    0.1051   18.2780 C.ar    1  UNL1        0.0000
     18 C           1.9166    0.6755   18.2913 C.ar    1  UNL1        0.0000
     19 C           0.9419    0.2526   19.3500 C.ar    1  UNL1        0.0000
     20 C           1.3544   -0.7407   20.3956 C.ar    1  UNL1        0.0000
     21 C           2.7417   -1.3110   20.3824 C.ar    1  UNL1        0.0000
     22 S           8.3135   -7.2238   26.8258 S.O2    1  UNL1        0.0054
     23 O           9.0986   -6.0067   27.2159 O.2     1  UNL1       -0.1689
     24 O           7.5283   -8.4408   26.4358 O.2     1  UNL1       -0.1689
     25 C           8.7030   -6.7235   29.3454 C.3     1  UNL1        0.0276
     26 C           8.2994   -7.6733   28.2568 C.3     1  UNL1        0.1556
@<TRIPOS>BOND
     1    25    26    1
     2    26    22    1
     3    22    23    2
     4    22    24    2
     5    22     1    1
     6     1     2    2
     7     2     3    1
     8     3     4    2
     9     4     5    1
    10     5     6    2
    11     6    10    1
    12    10    11   ar
    13    11    12   ar
    14    12    13   ar
    15    13    14   ar
    16    14    16    1
    17    16    17   ar
    18    17    18   ar
    19    18    19   ar
    20    19    20   ar
    21    20    21   ar
    22    14    15   ar
    23     6     7    1
    24     7     8    2
    25     8     9    1
    26     9     1    1
    27     8     4    1
    28    15    10   ar
    29    21    16   ar
@<TRIPOS>MOLECULE
*****
 26 29 0 0 0
SMALL
GASTEIGER

@<TRIPOS>ATOM
      1 C           7.3620   -5.5896   26.9082 C.2     1  UNL1        0.0919
      2 C           8.1245   -6.6249   26.1359 C.2     1  UNL1        0.0183
      3 C           8.2291   -6.5210   24.6432 C.2     1  UNL1        0.0511
      4 C           7.5711   -5.3817   23.9228 C.2     1  UNL1        0.2322
      5 N           7.5029   -5.0189   22.4689 N.2     1  UNL1       -0.0308
      6 C           6.6982   -3.7593   22.3427 C.2     1  UNL1        0.3767
      7 N           6.2691   -3.3436   23.7186 N.2     1  UNL1       -0.0346
      8 C           6.8086   -4.3463   24.6951 C.2     1  UNL1        0.2191
      9 C           6.7041   -4.4503   26.1878 C.3     1  UNL1        0.1226
     10 C           6.3786   -3.0415   21.0649 C.ar    1  UNL1        0.1075
     11 C           7.3601   -3.0565   19.9306 C.ar    1  UNL1        0.1065
     12 N           7.0407   -2.3388   18.6529 N.ar    1  UNL1       -0.2421
     13 C           5.7398   -1.6060   18.5094 C.ar    1  UNL1        0.0988
     14 C           4.7583   -1.5910   19.6436 C.ar    1  UNL1        0.0194
     15 C           5.0777   -2.3088   20.9214 C.ar    1  UNL1        0.0108
     16 C           3.4573   -0.8582   19.5000 C.ar    1  UNL1        0.0015
     17 C           2.2897   -1.2260   20.3668 C.ar    1  UNL1        0.0000
     18 C           0.9889   -0.4932   20.2232 C.ar    1  UNL1        0.0000
     19 C           0.8556    0.6074   19.2128 C.ar    1  UNL1        0.0000
     20 C           2.0231    0.9752   18.3460 C.ar    1  UNL1        0.0000
     21 C           3.3240    0.2424   18.4896 C.ar    1  UNL1        0.0000
     22 S           7.2575   -5.6935   28.4010 S.O2    1  UNL1        0.0054
     23 O           6.5800   -4.3560   28.4467 O.2     1  UNL1       -0.1689
     24 O           7.9349   -7.0311   28.3553 O.2     1  UNL1       -0.1689
     25 C           6.8451   -4.5778   30.7107 C.3     1  UNL1        0.0276
     26 C           7.1529   -5.7975   29.8937 C.3     1  UNL1        0.1556
@<TRIPOS>BOND
     1    25    26    1
     2    26    22    1
     3    22    23    2
     4    22    24    2
     5    22     1    1
     6     1     2    2
     7     2     3    1
     8     3     4    2
     9     4     5    1
    10     5     6    2
    11     6    10    1
    12    10    11   ar
    13    11    12   ar
    14    12    13   ar
    15    13    14   ar
    16    14    16    1
    17    16    17   ar
    18    17    18   ar
    19    18    19   ar
    20    19    20   ar
    21    20    21   ar
    22    14    15   ar
    23     6     7    1
    24     7     8    2
    25     8     9    1
    26     9     1    1
    27     8     4    1
    28    15    10   ar
    29    21    16   ar
@<TRIPOS>MOLECULE
*****
 26 29 0 0 0
SMALL
GASTEIGER

@<TRIPOS>ATOM
      1 C           3.1346   -0.8261   19.0197 C.2     1  UNL1        0.0919
      2 C           3.6165    0.3608   18.2394 C.2     1  UNL1        0.0183
      3 C           2.8282    1.6369   18.2517 C.2     1  UNL1        0.0511
      4 C           1.5579    1.7261   19.0444 C.2     1  UNL1        0.2322
      5 N           0.5764    2.8425   19.2454 N.2     1  UNL1       -0.0308
      6 C          -0.5121    2.3455   20.1499 C.2     1  UNL1        0.3767
      7 N          -0.2034    0.9220   20.5080 N.2     1  UNL1       -0.0346
      8 C           1.0760    0.5392   19.8247 C.2     1  UNL1        0.2191
      9 C           1.8643   -0.7369   19.8123 C.3     1  UNL1        0.1226
     10 C          -1.7007    3.1338   20.6147 C.ar    1  UNL1        0.1075
     11 C          -2.5605    3.8524   19.6176 C.ar    1  UNL1        0.1065
     12 N          -3.7491    4.6407   20.0823 N.ar    1  UNL1       -0.2421
     13 C          -4.0778    4.7102   21.5442 C.ar    1  UNL1        0.0988
     14 C          -3.2180    3.9916   22.5413 C.ar    1  UNL1        0.0194
     15 C          -2.0294    3.2033   22.0765 C.ar    1  UNL1        0.0108
     16 C          -3.5467    4.0612   24.0032 C.ar    1  UNL1        0.0015
     17 C          -4.8674    4.6149   24.4494 C.ar    1  UNL1        0.0000
     18 C          -5.1961    4.6845   25.9112 C.ar    1  UNL1        0.0000
     19 C          -4.2041    4.2004   26.9269 C.ar    1  UNL1        0.0000
     20 C          -2.8834    3.6466   26.4807 C.ar    1  UNL1        0.0000
     21 C          -2.5547    3.5771   25.0189 C.ar    1  UNL1        0.0000
     22 S           3.9229   -2.1022   19.0073 S.O2    1  UNL1        0.0054
     23 O           3.4533   -2.4058   20.3992 O.2     1  UNL1       -0.1689
     24 O           4.3925   -1.7985   17.6154 O.2     1  UNL1       -0.1689
     25 C           4.0003   -4.6990   18.9848 C.3     1  UNL1        0.0276
     26 C           4.7113   -3.3782   18.9949 C.3     1  UNL1        0.1556
@<TRIPOS>BOND
     1    25    26    1
     2    26    22    1
     3    22    23    2
     4    22    24    2
     5    22     1    1
     6     1     2    2
     7     2     3    1
     8     3     4    2
     9     4     5    1
    10     5     6    2
    11     6    10    1
    12    10    11   ar
    13    11    12   ar
    14    12    13   ar
    15    13    14   ar
    16    14    16    1
    17    16    17   ar
    18    17    18   ar
    19    18    19   ar
    20    19    20   ar
    21    20    21   ar
    22    14    15   ar
    23     6     7    1
    24     7     8    2
    25     8     9    1
    26     9     1    1
    27     8     4    1
    28    15    10   ar
    29    21    16   ar
@<TRIPOS>MOLECULE
*****
 26 29 0 0 0
SMALL
GASTEIGER

@<TRIPOS>ATOM
      1 C           3.2893   -1.0146   18.9891 C.2     1  UNL1        0.0919
      2 C           3.5884    0.1651   18.1124 C.2     1  UNL1        0.0183
      3 C           2.7839    1.4238   18.2485 C.2     1  UNL1        0.0511
      4 C           1.6804    1.5028   19.2613 C.2     1  UNL1        0.2322
      5 N           0.7251    2.6018   19.6213 N.2     1  UNL1       -0.0308
      6 C          -0.1644    2.1013   20.7205 C.2     1  UNL1        0.3767
      7 N           0.2411    0.6929   21.0399 N.2     1  UNL1       -0.0346
      8 C           1.3813    0.3230   20.1380 C.2     1  UNL1        0.2191
      9 C           2.1857   -0.9357   20.0019 C.3     1  UNL1        0.1226
     10 C          -1.2660    2.8736   21.3839 C.ar    1  UNL1        0.1075
     11 C          -1.0923    3.3721   22.7880 C.ar    1  UNL1        0.1065
     12 N          -2.1938    4.1444   23.4513 N.ar    1  UNL1       -0.2421
     13 C          -3.4691    4.4182   22.7107 C.ar    1  UNL1        0.0988
     14 C          -3.6428    3.9198   21.3066 C.ar    1  UNL1        0.0194
     15 C          -2.5413    3.1475   20.6432 C.ar    1  UNL1        0.0108
     16 C          -4.9182    4.1937   20.5659 C.ar    1  UNL1        0.0015
     17 C          -5.2778    3.3732   19.3628 C.ar    1  UNL1        0.0000
     18 C          -6.5531    3.6471   18.6222 C.ar    1  UNL1        0.0000
     19 C          -7.4687    4.7415   19.0847 C.ar    1  UNL1        0.0000
     20 C          -7.1091    5.5619   20.2878 C.ar    1  UNL1        0.0000
     21 C          -5.8338    5.2880   21.0284 C.ar    1  UNL1        0.0000
     22 S           4.0937   -2.2733   18.8530 S.O2    1  UNL1        0.0054
     23 O           5.2240   -1.4867   18.2583 O.2     1  UNL1       -0.1689
     24 O           2.9635   -3.0600   19.4477 O.2     1  UNL1       -0.1689
     25 C           4.2856   -4.8553   19.0683 C.3     1  UNL1        0.0276
     26 C           4.8982   -3.5320   18.7169 C.3     1  UNL1        0.1556
@<TRIPOS>BOND
     1    25    26    1
     2    26    22    1
     3    22    23    2
     4    22    24    2
     5    22     1    1
     6     1     2    2
     7     2     3    1
     8     3     4    2
     9     4     5    1
    10     5     6    2
    11     6    10    1
    12    10    11   ar
    13    11    12   ar
    14    12    13   ar
    15    13    14   ar
    16    14    16    1
    17    16    17   ar
    18    17    18   ar
    19    18    19   ar
    20    19    20   ar
    21    20    21   ar
    22    14    15   ar
    23     6     7    1
    24     7     8    2
    25     8     9    1
    26     9     1    1
    27     8     4    1
    28    15    10   ar
    29    21    16   ar
@<TRIPOS>MOLECULE
*****
 26 29 0 0 0
SMALL
GASTEIGER

@<TRIPOS>ATOM
      1 C           3.8467   -1.8391   20.4376 C.2     1  UNL1        0.0919
      2 C           4.8406   -2.4389   19.4878 C.2     1  UNL1        0.0183
      3 C           5.9293   -3.3312   20.0061 C.2     1  UNL1        0.0511
      4 C           6.0240   -3.6237   21.4742 C.2     1  UNL1        0.2322
      5 N           6.9809   -4.4596   22.2714 N.2     1  UNL1       -0.0308
      6 C           6.5783   -4.3764   23.7140 C.2     1  UNL1        0.3767
      7 N           5.3727   -3.4891   23.8084 N.2     1  UNL1       -0.0346
      8 C           5.0300   -3.0239   22.4240 C.2     1  UNL1        0.2191
      9 C           3.9414   -2.1316   21.9058 C.3     1  UNL1        0.1226
     10 C           7.2616   -5.0605   24.8609 C.ar    1  UNL1        0.1075
     11 C           8.2575   -6.1510   24.5980 C.ar    1  UNL1        0.1065
     12 N           8.9408   -6.8351   25.7448 N.ar    1  UNL1       -0.2421
     13 C           8.6281   -6.4287   27.1544 C.ar    1  UNL1        0.0988
     14 C           7.6322   -5.3383   27.4173 C.ar    1  UNL1        0.0194
     15 C           6.9489   -4.6542   26.2705 C.ar    1  UNL1        0.0108
     16 C           7.3195   -4.9320   28.8270 C.ar    1  UNL1        0.0015
     17 C           7.4634   -5.9239   29.9429 C.ar    1  UNL1        0.0000
     18 C           7.1507   -5.5176   31.3525 C.ar    1  UNL1        0.0000
     19 C           6.6942   -4.1193   31.6462 C.ar    1  UNL1        0.0000
     20 C           6.5503   -3.1273   30.5303 C.ar    1  UNL1        0.0000
     21 C           6.8629   -3.5337   29.1207 C.ar    1  UNL1        0.0000
     22 S           2.7580   -0.9468   19.9194 S.O2    1  UNL1        0.0054
     23 O           3.3045   -1.0873   18.5296 O.2     1  UNL1       -0.1689
     24 O           2.2115   -0.8062   21.3092 O.2     1  UNL1       -0.1689
     25 C           0.4404    0.1865   20.2267 C.3     1  UNL1        0.0276
     26 C           1.6693   -0.0544   19.4011 C.3     1  UNL1        0.1556
@<TRIPOS>BOND
     1    25    26    1
     2    26    22    1
     3    22    23    2
     4    22    24    2
     5    22     1    1
     6     1     2    2
     7     2     3    1
     8     3     4    2
     9     4     5    1
    10     5     6    2
    11     6    10    1
    12    10    11   ar
    13    11    12   ar
    14    12    13   ar
    15    13    14   ar
    16    14    16    1
    17    16    17   ar
    18    17    18   ar
    19    18    19   ar
    20    19    20   ar
    21    20    21   ar
    22    14    15   ar
    23     6     7    1
    24     7     8    2
    25     8     9    1
    26     9     1    1
    27     8     4    1
    28    15    10   ar
    29    21    16   ar
@<TRIPOS>MOLECULE
*****
 26 29 0 0 0
SMALL
GASTEIGER

@<TRIPOS>ATOM
      1 C           1.5591    0.6631   29.0432 C.2     1  UNL1        0.0919
      2 C           0.1475    1.1633   29.1274 C.2     1  UNL1        0.0183
      3 C          -0.5994    1.5153   27.8750 C.2     1  UNL1        0.0511
      4 C           0.0653    1.3671   26.5386 C.2     1  UNL1        0.2322
      5 N          -0.4160    1.6336   25.1431 N.2     1  UNL1       -0.0308
      6 C           0.6982    1.2981   24.1965 C.2     1  UNL1        0.3767
      7 N           1.8681    0.8243   25.0069 N.2     1  UNL1       -0.0346
      8 C           1.4769    0.8670   26.4545 C.2     1  UNL1        0.2191
      9 C           2.2238    0.5150   27.7068 C.3     1  UNL1        0.1226
     10 C           0.6508    1.4158   22.7018 C.ar    1  UNL1        0.1075
     11 C          -0.2937    2.3854   22.0555 C.ar    1  UNL1        0.1065
     12 N          -0.3412    2.5031   20.5609 N.ar    1  UNL1       -0.2421
     13 C           0.5559    1.6512   19.7127 C.ar    1  UNL1        0.0988
     14 C           1.5004    0.6816   20.3590 C.ar    1  UNL1        0.0194
     15 C           1.5478    0.5639   21.8536 C.ar    1  UNL1        0.0108
     16 C           2.3974   -0.1704   19.5107 C.ar    1  UNL1        0.0015
     17 C           2.9142   -1.4748   20.0410 C.ar    1  UNL1        0.0000
     18 C           3.8112   -2.3267   19.1927 C.ar    1  UNL1        0.0000
     19 C           4.1914   -1.8741   17.8141 C.ar    1  UNL1        0.0000
     20 C           3.6746   -0.5696   17.2838 C.ar    1  UNL1        0.0000
     21 C           2.7776    0.2823   18.1321 C.ar    1  UNL1        0.0000
     22 S           2.3060    0.3111   30.2955 S.O2    1  UNL1        0.0054
     23 O           1.2798    1.0393   31.1122 O.2     1  UNL1       -0.1689
     24 O           3.3321   -0.4170   29.4789 O.2     1  UNL1       -0.1689
     25 C           3.0082    0.8795   32.7315 C.3     1  UNL1        0.0276
     26 C           3.0528   -0.0408   31.5478 C.3     1  UNL1        0.1556
@<TRIPOS>BOND
     1    25    26    1
     2    26    22    1
     3    22    23    2
     4    22    24    2
     5    22     1    1
     6     1     2    2
     7     2     3    1
     8     3     4    2
     9     4     5    1
    10     5     6    2
    11     6    10    1
    12    10    11   ar
    13    11    12   ar
    14    12    13   ar
    15    13    14   ar
    16    14    16    1
    17    16    17   ar
    18    17    18   ar
    19    18    19   ar
    20    19    20   ar
    21    20    21   ar
    22    14    15   ar
    23     6     7    1
    24     7     8    2
    25     8     9    1
    26     9     1    1
    27     8     4    1
    28    15    10   ar
    29    21    16   ar
@<TRIPOS>MOLECULE
*****
 26 29 0 0 0
SMALL
GASTEIGER

@<TRIPOS>ATOM
      1 C         -15.3846    2.0930   18.9571 C.2     1  UNL1        0.0919
      2 C         -16.4912    1.6284   19.8569 C.2     1  UNL1        0.0183
      3 C         -16.5883    0.1817   20.2409 C.2     1  UNL1        0.0511
      4 C         -15.5789   -0.8006   19.7251 C.2     1  UNL1        0.2322
      5 N         -15.4198   -2.2779   19.9307 N.2     1  UNL1       -0.0308
      6 C         -14.2149   -2.7264   19.1580 C.2     1  UNL1        0.3767
      7 N         -13.6293   -1.5263   18.4748 N.2     1  UNL1       -0.0346
      8 C         -14.4723   -0.3361   18.8253 C.2     1  UNL1        0.2191
      9 C         -14.3752    1.1107   18.4413 C.3     1  UNL1        0.1226
     10 C         -13.6882   -4.1289   19.0819 C.ar    1  UNL1        0.1075
     11 C         -12.2086   -4.3736   19.0505 C.ar    1  UNL1        0.1065
     12 N         -11.6819   -5.7760   18.9744 N.ar    1  UNL1       -0.2421
     13 C         -12.6346   -6.9336   18.9297 C.ar    1  UNL1        0.0988
     14 C         -14.1142   -6.6888   18.9611 C.ar    1  UNL1        0.0194
     15 C         -14.6410   -5.2865   19.0372 C.ar    1  UNL1        0.0108
     16 C         -15.0670   -7.8466   18.9164 C.ar    1  UNL1        0.0015
     17 C         -16.3750   -7.7700   19.6466 C.ar    1  UNL1        0.0000
     18 C         -17.3278   -8.9277   19.6019 C.ar    1  UNL1        0.0000
     19 C         -16.9725  -10.1619   18.8270 C.ar    1  UNL1        0.0000
     20 C         -15.6645  -10.2385   18.0968 C.ar    1  UNL1        0.0000
     21 C         -14.7118   -9.0808   18.1415 C.ar    1  UNL1        0.0000
     22 S         -15.2875    3.5397   18.5732 S.O2    1  UNL1        0.0054
     23 O         -16.5864    3.8124   19.2721 O.2     1  UNL1       -0.1689
     24 O         -13.9886    3.2670   17.8743 O.2     1  UNL1       -0.1689
     25 C         -14.5610    5.9713   19.1293 C.3     1  UNL1        0.0276
     26 C         -15.1904    4.9865   18.1892 C.3     1  UNL1        0.1556
@<TRIPOS>BOND
     1    25    26    1
     2    26    22    1
     3    22    23    2
     4    22    24    2
     5    22     1    1
     6     1     2    2
     7     2     3    1
     8     3     4    2
     9     4     5    1
    10     5     6    2
    11     6    10    1
    12    10    11   ar
    13    11    12   ar
    14    12    13   ar
    15    13    14   ar
    16    14    16    1
    17    16    17   ar
    18    17    18   ar
    19    18    19   ar
    20    19    20   ar
    21    20    21   ar
    22    14    15   ar
    23     6     7    1
    24     7     8    2
    25     8     9    1
    26     9     1    1
    27     8     4    1
    28    15    10   ar
    29    21    16   ar
@<TRIPOS>MOLECULE
*****
 26 29 0 0 0
SMALL
GASTEIGER

@<TRIPOS>ATOM
      1 C           5.5578   -1.6811   19.1827 C.2     1  UNL1        0.0919
      2 C           4.5812   -2.7309   19.6233 C.2     1  UNL1        0.0183
      3 C           3.1355   -2.3784   19.8123 C.2     1  UNL1        0.0511
      4 C           2.6664   -0.9760   19.5607 C.2     1  UNL1        0.2322
      5 N           1.3132   -0.3368   19.6625 N.2     1  UNL1       -0.0308
      6 C           1.4535    1.1081   19.2849 C.2     1  UNL1        0.3767
      7 N           2.8934    1.3619   18.9497 N.2     1  UNL1       -0.0346
      8 C           3.6430    0.0738   19.1202 C.2     1  UNL1        0.2191
      9 C           5.0887   -0.2787   18.9312 C.3     1  UNL1        0.1226
     10 C           0.3480    2.1213   19.2488 C.ar    1  UNL1        0.1075
     11 C           0.1929    3.0200   18.0579 C.ar    1  UNL1        0.1065
     12 N          -0.9125    4.0332   18.0217 N.ar    1  UNL1       -0.2421
     13 C          -1.8630    4.1476   19.1765 C.ar    1  UNL1        0.0988
     14 C          -1.7080    3.2489   20.3673 C.ar    1  UNL1        0.0194
     15 C          -0.6025    2.2357   20.4035 C.ar    1  UNL1        0.0108
     16 C          -2.6585    3.3633   21.5221 C.ar    1  UNL1        0.0015
     17 C          -2.1339    3.6306   22.9017 C.ar    1  UNL1        0.0000
     18 C          -3.0844    3.7450   24.0564 C.ar    1  UNL1        0.0000
     19 C          -4.5596    3.5922   23.8315 C.ar    1  UNL1        0.0000
     20 C          -5.0842    3.3250   22.4519 C.ar    1  UNL1        0.0000
     21 C          -4.1337    3.2105   21.2972 C.ar    1  UNL1        0.0000
     22 S           7.0035   -2.0336   18.9937 S.O2    1  UNL1        0.0054
     23 O           6.8145   -2.0109   17.5059 O.2     1  UNL1       -0.1689
     24 O           7.1924   -2.0562   20.4816 O.2     1  UNL1       -0.1689
     25 C           9.2328   -2.9729   19.9412 C.3     1  UNL1        0.0276
     26 C           8.4491   -2.3861   18.8047 C.3     1  UNL1        0.1556
@<TRIPOS>BOND
     1    25    26    1
     2    26    22    1
     3    22    23    2
     4    22    24    2
     5    22     1    1
     6     1     2    2
     7     2     3    1
     8     3     4    2
     9     4     5    1
    10     5     6    2
    11     6    10    1
    12    10    11   ar
    13    11    12   ar
    14    12    13   ar
    15    13    14   ar
    16    14    16    1
    17    16    17   ar
    18    17    18   ar
    19    18    19   ar
    20    19    20   ar
    21    20    21   ar
    22    14    15   ar
    23     6     7    1
    24     7     8    2
    25     8     9    1
    26     9     1    1
    27     8     4    1
    28    15    10   ar
    29    21    16   ar
