@<TRIPOS>MOLECULE
*****
 29 32 0 0 0
SMALL
GASTEIGER

@<TRIPOS>ATOM
      1 N          -8.5212  -17.2529   22.7231 N.am    1  UNL1       -0.2863
      2 C          -7.5477  -18.0139   21.8729 C.2     1  UNL1        0.3047
      3 O          -7.9760  -18.5497   20.5388 O.2     1  UNL1       -0.2525
      4 N          -6.1458  -18.2392   22.3565 N.am    1  UNL1       -0.2683
      5 H          -8.2401  -16.9013   23.5986 H       1  UNL1        0.1512
      6 H          -5.8647  -17.8875   23.2321 H       1  UNL1        0.1564
      7 C         -12.7005  -15.6446   19.5845 C.3     1  UNL1        0.0437
      8 C         -11.5652  -16.0922   20.4565 C.3     1  UNL1        0.1352
      9 C         -10.7977  -15.4518   19.3382 C.3     1  UNL1        0.0437
     10 C         -10.1633  -16.3175   20.9402 C.3     1  UNL1        0.0642
     11 C          -9.9231  -17.0276   22.2394 C.3     1  UNL1        0.1019
     12 C         -11.0850  -17.5126   23.0550 C.ar    1  UNL1        0.0298
     13 C         -10.8448  -18.2228   24.3542 C.ar    1  UNL1        0.0026
     14 C         -12.0066  -18.7077   25.1697 C.ar    1  UNL1        0.0296
     15 C         -13.4085  -18.4825   24.6860 C.ar    1  UNL1        0.1431
     16 F         -14.5703  -18.9674   25.5016 F       1  UNL1       -0.2041
     17 C         -13.6486  -17.7723   23.3868 C.ar    1  UNL1        0.0662
     18 C         -12.4868  -17.2874   22.5713 C.ar    1  UNL1        0.1379
     19 O         -12.7269  -16.5771   21.2720 O.3     1  UNL1       -0.4827
     20 C          -5.1722  -19.0002   21.5062 C.ar    1  UNL1        0.0516
     21 C          -5.5798  -20.3013   20.8809 C.ar    1  UNL1        0.0147
     22 C          -4.6063  -21.0623   20.0307 C.ar    1  UNL1        0.0013
     23 C          -3.2251  -20.5222   19.8056 C.ar    1  UNL1        0.0016
     24 C          -2.8175  -19.2211   20.4309 C.ar    1  UNL1        0.0204
     25 C          -1.4363  -18.6810   20.2059 C.ar    1  UNL1        0.0989
     26 N          -1.0287  -17.3800   20.8312 N.ar    1  UNL1       -0.2423
     27 C          -2.0022  -16.6189   21.6815 C.ar    1  UNL1        0.0989
     28 C          -3.3834  -17.1590   21.9065 C.ar    1  UNL1        0.0219
     29 C          -3.7910  -18.4601   21.2812 C.ar    1  UNL1        0.0166
@<TRIPOS>BOND
     1     7     8    1
     2     8     9    1
     3     8    10    1
     4    10    11    1
     5    11     1    1
     6     1     2   am
     7     2     3    2
     8     2     4   am
     9     4    20    1
    10    20    21   ar
    11    21    22   ar
    12    22    23   ar
    13    23    24   ar
    14    24    25   ar
    15    25    26   ar
    16    26    27   ar
    17    27    28   ar
    18    28    29   ar
    19    11    12    1
    20    12    13   ar
    21    13    14   ar
    22    14    15   ar
    23    15    16    1
    24    15    17   ar
    25    17    18   ar
    26    18    19    1
    27    19     8    1
    28    29    20   ar
    29    18    12   ar
    30    29    24   ar
    31     1     5    1
    32     4     6    1
@<TRIPOS>MOLECULE
*****
 29 32 0 0 0
SMALL
GASTEIGER

@<TRIPOS>ATOM
      1 N          -8.8468  -19.0587   21.1223 N.am    1  UNL1       -0.2863
      2 C          -7.5476  -18.4635   21.5783 C.2     1  UNL1        0.3047
      3 O          -7.5083  -17.0566   22.0973 O.2     1  UNL1       -0.2525
      4 N          -6.2878  -19.2752   21.5153 N.am    1  UNL1       -0.2683
      5 H          -8.8726  -19.9820   20.7817 H       1  UNL1        0.1512
      6 H          -6.3135  -20.1985   21.1747 H       1  UNL1        0.1564
      7 C         -12.7696  -15.5058   19.7466 C.3     1  UNL1        0.0437
      8 C         -11.7020  -16.4839   20.1383 C.3     1  UNL1        0.1352
      9 C         -11.1484  -16.0044   18.8293 C.3     1  UNL1        0.0437
     10 C         -10.4421  -17.2956   20.0753 C.3     1  UNL1        0.0642
     11 C         -10.1066  -18.2470   21.1853 C.3     1  UNL1        0.1019
     12 C         -11.0310  -18.3869   22.3584 C.ar    1  UNL1        0.0298
     13 C         -10.6956  -19.3383   23.4684 C.ar    1  UNL1        0.0026
     14 C         -11.6199  -19.4781   24.6414 C.ar    1  UNL1        0.0296
     15 C         -12.8798  -18.6664   24.7043 C.ar    1  UNL1        0.1431
     16 F         -13.8042  -18.8063   25.8774 F       1  UNL1       -0.2041
     17 C         -13.2153  -17.7150   23.5943 C.ar    1  UNL1        0.0662
     18 C         -12.2909  -17.5752   22.4213 C.ar    1  UNL1        0.1379
     19 O         -12.6264  -16.6237   21.3112 O.3     1  UNL1       -0.4827
     20 C          -4.9886  -18.6799   21.9714 C.ar    1  UNL1        0.0516
     21 C          -4.8486  -18.1711   23.3754 C.ar    1  UNL1        0.0147
     22 C          -3.5494  -17.5759   23.8314 C.ar    1  UNL1        0.0013
     23 C          -2.3903  -17.4896   22.8833 C.ar    1  UNL1        0.0016
     24 C          -2.5303  -17.9984   21.4792 C.ar    1  UNL1        0.0204
     25 C          -1.3711  -17.9120   20.5311 C.ar    1  UNL1        0.0989
     26 N          -1.5111  -18.4208   19.1270 N.ar    1  UNL1       -0.2423
     27 C          -2.8103  -19.0161   18.6710 C.ar    1  UNL1        0.0989
     28 C          -3.9695  -19.1024   19.6191 C.ar    1  UNL1        0.0219
     29 C          -3.8294  -18.5936   21.0232 C.ar    1  UNL1        0.0166
@<TRIPOS>BOND
     1     7     8    1
     2     8     9    1
     3     8    10    1
     4    10    11    1
     5    11     1    1
     6     1     2   am
     7     2     3    2
     8     2     4   am
     9     4    20    1
    10    20    21   ar
    11    21    22   ar
    12    22    23   ar
    13    23    24   ar
    14    24    25   ar
    15    25    26   ar
    16    26    27   ar
    17    27    28   ar
    18    28    29   ar
    19    11    12    1
    20    12    13   ar
    21    13    14   ar
    22    14    15   ar
    23    15    16    1
    24    15    17   ar
    25    17    18   ar
    26    18    19    1
    27    19     8    1
    28    29    20   ar
    29    18    12   ar
    30    29    24   ar
    31     1     5    1
    32     4     6    1
@<TRIPOS>MOLECULE
*****
 29 32 0 0 0
SMALL
GASTEIGER

@<TRIPOS>ATOM
      1 N          -5.8926  -17.7615   22.5371 N.am    1  UNL1       -0.2863
      2 C          -7.3533  -18.0921   22.6202 C.2     1  UNL1        0.3047
      3 O          -7.9152  -19.2180   21.8035 O.2     1  UNL1       -0.2525
      4 N          -8.2522  -17.2970   23.5200 N.am    1  UNL1       -0.2683
      5 H          -5.5238  -17.0227   23.0731 H       1  UNL1        0.1512
      6 H          -7.8835  -16.5581   24.0560 H       1  UNL1        0.1564
      7 C          -4.0862  -21.7626   19.2764 C.3     1  UNL1        0.0437
      8 C          -4.5669  -20.6570   20.1688 C.3     1  UNL1        0.1352
      9 C          -5.7712  -21.5510   20.1900 C.3     1  UNL1        0.0437
     10 C          -5.4659  -19.8619   21.0686 C.3     1  UNL1        0.0642
     11 C          -4.9936  -18.5567   21.6373 C.3     1  UNL1        0.1019
     12 C          -3.6224  -18.0466   21.3062 C.ar    1  UNL1        0.0298
     13 C          -3.1501  -16.7414   21.8749 C.ar    1  UNL1        0.0026
     14 C          -1.7790  -16.2314   21.5438 C.ar    1  UNL1        0.0296
     15 C          -0.8800  -17.0265   20.6439 C.ar    1  UNL1        0.1431
     16 F           0.4912  -16.5164   20.3128 F       1  UNL1       -0.2041
     17 C          -1.3523  -18.3317   20.0753 C.ar    1  UNL1        0.0662
     18 C          -2.7234  -18.8417   20.4064 C.ar    1  UNL1        0.1379
     19 O          -3.1958  -20.1470   19.8377 O.3     1  UNL1       -0.4827
     20 C          -9.7130  -17.6277   23.6031 C.ar    1  UNL1        0.0516
     21 C         -10.2367  -18.4260   24.7599 C.ar    1  UNL1        0.0147
     22 C         -11.6974  -18.7566   24.8430 C.ar    1  UNL1        0.0013
     23 C         -12.6345  -18.2889   23.7692 C.ar    1  UNL1        0.0016
     24 C         -12.1108  -17.4905   22.6123 C.ar    1  UNL1        0.0204
     25 C         -13.0479  -17.0227   21.5385 C.ar    1  UNL1        0.0989
     26 N         -12.5243  -16.2244   20.3817 N.ar    1  UNL1       -0.2423
     27 C         -11.0635  -15.8937   20.2986 C.ar    1  UNL1        0.0989
     28 C         -10.1264  -16.3615   21.3724 C.ar    1  UNL1        0.0219
     29 C         -10.6501  -17.1599   22.5293 C.ar    1  UNL1        0.0166
@<TRIPOS>BOND
     1     7     8    1
     2     8     9    1
     3     8    10    1
     4    10    11    1
     5    11     1    1
     6     1     2   am
     7     2     3    2
     8     2     4   am
     9     4    20    1
    10    20    21   ar
    11    21    22   ar
    12    22    23   ar
    13    23    24   ar
    14    24    25   ar
    15    25    26   ar
    16    26    27   ar
    17    27    28   ar
    18    28    29   ar
    19    11    12    1
    20    12    13   ar
    21    13    14   ar
    22    14    15   ar
    23    15    16    1
    24    15    17   ar
    25    17    18   ar
    26    18    19    1
    27    19     8    1
    28    29    20   ar
    29    18    12   ar
    30    29    24   ar
    31     1     5    1
    32     4     6    1
@<TRIPOS>MOLECULE
*****
 29 32 0 0 0
SMALL
GASTEIGER

@<TRIPOS>ATOM
      1 N         -13.6947   -6.0134   19.9844 N.am    1  UNL1       -0.2863
      2 C         -14.7244   -6.8025   19.2315 C.2     1  UNL1        0.3047
      3 O         -14.7534   -6.7599   17.7323 O.2     1  UNL1       -0.2525
      4 N         -15.7251   -7.6342   19.9776 N.am    1  UNL1       -0.2683
      5 H         -13.6756   -6.0413   20.9683 H       1  UNL1        0.1512
      6 H         -15.7061   -7.6621   20.9616 H       1  UNL1        0.1564
      7 C          -9.2076   -4.6152   17.1888 C.3     1  UNL1        0.0437
      8 C         -10.4438   -4.9827   17.9548 C.3     1  UNL1        0.1352
      9 C          -9.7658   -6.3195   17.8977 C.3     1  UNL1        0.0437
     10 C         -11.4445   -5.8144   18.7009 C.3     1  UNL1        0.0642
     11 C         -12.6939   -5.1817   19.2382 C.3     1  UNL1        0.1019
     12 C         -12.9426   -3.7172   19.0292 C.ar    1  UNL1        0.0298
     13 C         -14.1920   -3.0845   19.5665 C.ar    1  UNL1        0.0026
     14 C         -14.4406   -1.6201   19.3575 C.ar    1  UNL1        0.0296
     15 C         -13.4399   -0.7884   18.6113 C.ar    1  UNL1        0.1431
     16 F         -13.6886    0.6760   18.4024 F       1  UNL1       -0.2041
     17 C         -12.1905   -1.4211   18.0741 C.ar    1  UNL1        0.0662
     18 C         -11.9419   -2.8855   18.2831 C.ar    1  UNL1        0.1379
     19 O         -10.6924   -3.5183   17.7458 O.3     1  UNL1       -0.4827
     20 C         -16.7549   -8.4233   19.2247 C.ar    1  UNL1        0.0516
     21 C         -16.5495   -9.8899   18.9867 C.ar    1  UNL1        0.0147
     22 C         -17.5792  -10.6790   18.2337 C.ar    1  UNL1        0.0013
     23 C         -18.8144  -10.0014   17.7188 C.ar    1  UNL1        0.0016
     24 C         -19.0198   -8.5348   17.9568 C.ar    1  UNL1        0.0204
     25 C         -20.2550   -7.8572   17.4418 C.ar    1  UNL1        0.0989
     26 N         -20.4605   -6.3905   17.6798 N.ar    1  UNL1       -0.2423
     27 C         -19.4307   -5.6014   18.4328 C.ar    1  UNL1        0.0989
     28 C         -18.1955   -6.2790   18.9477 C.ar    1  UNL1        0.0219
     29 C         -17.9901   -7.7457   18.7097 C.ar    1  UNL1        0.0166
@<TRIPOS>BOND
     1     7     8    1
     2     8     9    1
     3     8    10    1
     4    10    11    1
     5    11     1    1
     6     1     2   am
     7     2     3    2
     8     2     4   am
     9     4    20    1
    10    20    21   ar
    11    21    22   ar
    12    22    23   ar
    13    23    24   ar
    14    24    25   ar
    15    25    26   ar
    16    26    27   ar
    17    27    28   ar
    18    28    29   ar
    19    11    12    1
    20    12    13   ar
    21    13    14   ar
    22    14    15   ar
    23    15    16    1
    24    15    17   ar
    25    17    18   ar
    26    18    19    1
    27    19     8    1
    28    29    20   ar
    29    18    12   ar
    30    29    24   ar
    31     1     5    1
    32     4     6    1
@<TRIPOS>MOLECULE
*****
 29 32 0 0 0
SMALL
GASTEIGER

@<TRIPOS>ATOM
      1 N         -14.3100   -3.9155   20.0493 N.am    1  UNL1       -0.2863
      2 C         -15.4274   -4.5986   19.3181 C.2     1  UNL1        0.3047
      3 O         -15.3193   -4.8425   17.8420 O.2     1  UNL1       -0.2525
      4 N         -16.6531   -5.0379   20.0630 N.am    1  UNL1       -0.2683
      5 H         -14.3810   -3.7554   21.0181 H       1  UNL1        0.1512
      6 H         -16.7241   -4.8778   21.0318 H       1  UNL1        0.1564
      7 C         -10.7181   -0.7034   17.4638 C.3     1  UNL1        0.0437
      8 C         -11.6932   -1.5978   18.1703 C.3     1  UNL1        0.1352
      9 C         -12.4146   -0.2873   18.2807 C.3     1  UNL1        0.0437
     10 C         -12.9188   -2.0371   18.9152 C.3     1  UNL1        0.0642
     11 C         -13.0844   -3.4762   19.3044 C.3     1  UNL1        0.1019
     12 C         -12.0243   -4.4761   18.9486 C.ar    1  UNL1        0.0298
     13 C         -12.1899   -5.9152   19.3378 C.ar    1  UNL1        0.0026
     14 C         -11.1299   -6.9151   18.9820 C.ar    1  UNL1        0.0296
     15 C          -9.9043   -6.4758   18.2371 C.ar    1  UNL1        0.1431
     16 F          -8.8442   -7.4757   17.8814 F       1  UNL1       -0.2041
     17 C          -9.7387   -5.0367   17.8480 C.ar    1  UNL1        0.0662
     18 C         -10.7987   -4.0369   18.2037 C.ar    1  UNL1        0.1379
     19 O         -10.6331   -2.5977   17.8146 O.3     1  UNL1       -0.4827
     20 C         -17.7706   -5.7210   19.3318 C.ar    1  UNL1        0.0516
     21 C         -18.8678   -4.9083   18.7109 C.ar    1  UNL1        0.0147
     22 C         -19.9852   -5.5915   17.9797 C.ar    1  UNL1        0.0013
     23 C         -20.0053   -7.0873   17.8694 C.ar    1  UNL1        0.0016
     24 C         -18.9081   -7.9000   18.4903 C.ar    1  UNL1        0.0204
     25 C         -18.9282   -9.3958   18.3800 C.ar    1  UNL1        0.0989
     26 N         -17.8310  -10.2084   19.0009 N.ar    1  UNL1       -0.2423
     27 C         -16.7135   -9.5253   19.7321 C.ar    1  UNL1        0.0989
     28 C         -16.6933   -8.0295   19.8424 C.ar    1  UNL1        0.0219
     29 C         -17.7907   -7.2168   19.2215 C.ar    1  UNL1        0.0166
@<TRIPOS>BOND
     1     7     8    1
     2     8     9    1
     3     8    10    1
     4    10    11    1
     5    11     1    1
     6     1     2   am
     7     2     3    2
     8     2     4   am
     9     4    20    1
    10    20    21   ar
    11    21    22   ar
    12    22    23   ar
    13    23    24   ar
    14    24    25   ar
    15    25    26   ar
    16    26    27   ar
    17    27    28   ar
    18    28    29   ar
    19    11    12    1
    20    12    13   ar
    21    13    14   ar
    22    14    15   ar
    23    15    16    1
    24    15    17   ar
    25    17    18   ar
    26    18    19    1
    27    19     8    1
    28    29    20   ar
    29    18    12   ar
    30    29    24   ar
    31     1     5    1
    32     4     6    1
@<TRIPOS>MOLECULE
*****
 29 32 0 0 0
SMALL
GASTEIGER

@<TRIPOS>ATOM
      1 N          -8.2786  -19.3102   21.2359 N.am    1  UNL1       -0.2863
      2 C          -6.9573  -18.8308   21.7595 C.2     1  UNL1        0.3047
      3 O          -6.9061  -17.9508   22.9732 O.2     1  UNL1       -0.2525
      4 N          -5.6870  -19.2313   21.0695 N.am    1  UNL1       -0.2683
      5 H          -8.3121  -19.8878   20.4393 H       1  UNL1        0.1512
      6 H          -5.7206  -19.8089   20.2729 H       1  UNL1        0.1564
      7 C         -12.2143  -18.9857   25.0185 C.3     1  UNL1        0.0437
      8 C         -11.1434  -19.0639   23.9712 C.3     1  UNL1        0.1352
      9 C         -10.5695  -19.9921   25.0003 C.3     1  UNL1        0.0437
     10 C          -9.8732  -19.4645   23.2812 C.3     1  UNL1        0.0642
     11 C          -9.5488  -18.9097   21.9259 C.3     1  UNL1        0.1019
     12 C         -10.4947  -17.9543   21.2605 C.ar    1  UNL1        0.0298
     13 C         -10.1703  -17.3995   19.9051 C.ar    1  UNL1        0.0026
     14 C         -11.1161  -16.4442   19.2398 C.ar    1  UNL1        0.0296
     15 C         -12.3863  -16.0437   19.9298 C.ar    1  UNL1        0.1431
     16 F         -13.3322  -15.0883   19.2644 F       1  UNL1       -0.2041
     17 C         -12.7107  -16.5984   21.2851 C.ar    1  UNL1        0.0662
     18 C         -11.7649  -17.5538   21.9505 C.ar    1  UNL1        0.1379
     19 O         -12.0892  -18.1086   23.3059 O.3     1  UNL1       -0.4827
     20 C          -4.3657  -18.7519   21.5932 C.ar    1  UNL1        0.0516
     21 C          -4.1706  -18.5529   23.0671 C.ar    1  UNL1        0.0147
     22 C          -2.8493  -18.0734   23.5907 C.ar    1  UNL1        0.0013
     23 C          -1.7231  -17.7929   22.6405 C.ar    1  UNL1        0.0016
     24 C          -1.9182  -17.9919   21.1666 C.ar    1  UNL1        0.0204
     25 C          -0.7919  -17.7114   20.2164 C.ar    1  UNL1        0.0989
     26 N          -0.9870  -17.9104   18.7426 N.ar    1  UNL1       -0.2423
     27 C          -2.3083  -18.3899   18.2188 C.ar    1  UNL1        0.0989
     28 C          -3.4346  -18.6704   19.1691 C.ar    1  UNL1        0.0219
     29 C          -3.2395  -18.4714   20.6430 C.ar    1  UNL1        0.0166
@<TRIPOS>BOND
     1     7     8    1
     2     8     9    1
     3     8    10    1
     4    10    11    1
     5    11     1    1
     6     1     2   am
     7     2     3    2
     8     2     4   am
     9     4    20    1
    10    20    21   ar
    11    21    22   ar
    12    22    23   ar
    13    23    24   ar
    14    24    25   ar
    15    25    26   ar
    16    26    27   ar
    17    27    28   ar
    18    28    29   ar
    19    11    12    1
    20    12    13   ar
    21    13    14   ar
    22    14    15   ar
    23    15    16    1
    24    15    17   ar
    25    17    18   ar
    26    18    19    1
    27    19     8    1
    28    29    20   ar
    29    18    12   ar
    30    29    24   ar
    31     1     5    1
    32     4     6    1
@<TRIPOS>MOLECULE
*****
 29 32 0 0 0
SMALL
GASTEIGER

@<TRIPOS>ATOM
      1 N         -13.3889   -4.0805   19.7430 N.am    1  UNL1       -0.2863
      2 C         -14.6940   -4.5423   19.1656 C.2     1  UNL1        0.3047
      3 O         -14.8843   -4.5810   17.6782 O.2     1  UNL1       -0.2525
      4 N         -15.8088   -4.9654   20.0757 N.am    1  UNL1       -0.2683
      5 H         -13.2640   -4.0551   20.7192 H       1  UNL1        0.1512
      6 H         -15.6839   -4.9400   21.0519 H       1  UNL1        0.1564
      7 C          -8.8804   -4.3067   16.6565 C.3     1  UNL1        0.0437
      8 C         -10.1187   -4.2282   17.4992 C.3     1  UNL1        0.1352
      9 C          -9.7631   -5.6725   17.6928 C.3     1  UNL1        0.0437
     10 C         -11.2336   -4.6513   18.4092 C.3     1  UNL1        0.0642
     11 C         -12.2740   -3.6574   18.8330 C.3     1  UNL1        0.1019
     12 C         -12.1997   -2.2403   18.3467 C.ar    1  UNL1        0.0298
     13 C         -13.2401   -1.2464   18.7704 C.ar    1  UNL1        0.0026
     14 C         -13.1657    0.1706   18.2841 C.ar    1  UNL1        0.0296
     15 C         -12.0509    0.5937   17.3741 C.ar    1  UNL1        0.1431
     16 F         -11.9765    2.0108   16.8878 F       1  UNL1       -0.2041
     17 C         -11.0104   -0.4002   16.9504 C.ar    1  UNL1        0.0662
     18 C         -11.0848   -1.8172   17.4367 C.ar    1  UNL1        0.1379
     19 O         -10.0443   -2.8112   17.0130 O.3     1  UNL1       -0.4827
     20 C         -17.1140   -5.4272   19.4982 C.ar    1  UNL1        0.0516
     21 C         -18.1312   -4.4222   19.0453 C.ar    1  UNL1        0.0147
     22 C         -19.4363   -4.8841   18.4679 C.ar    1  UNL1        0.0013
     23 C         -19.7241   -6.3509   18.3435 C.ar    1  UNL1        0.0016
     24 C         -18.7069   -7.3559   18.7964 C.ar    1  UNL1        0.0204
     25 C         -18.9948   -8.8228   18.6720 C.ar    1  UNL1        0.0989
     26 N         -17.9776   -9.8278   19.1249 N.ar    1  UNL1       -0.2423
     27 C         -16.6724   -9.3659   19.7024 C.ar    1  UNL1        0.0989
     28 C         -16.3845   -7.8991   19.8268 C.ar    1  UNL1        0.0219
     29 C         -17.4018   -6.8941   19.3738 C.ar    1  UNL1        0.0166
@<TRIPOS>BOND
     1     7     8    1
     2     8     9    1
     3     8    10    1
     4    10    11    1
     5    11     1    1
     6     1     2   am
     7     2     3    2
     8     2     4   am
     9     4    20    1
    10    20    21   ar
    11    21    22   ar
    12    22    23   ar
    13    23    24   ar
    14    24    25   ar
    15    25    26   ar
    16    26    27   ar
    17    27    28   ar
    18    28    29   ar
    19    11    12    1
    20    12    13   ar
    21    13    14   ar
    22    14    15   ar
    23    15    16    1
    24    15    17   ar
    25    17    18   ar
    26    18    19    1
    27    19     8    1
    28    29    20   ar
    29    18    12   ar
    30    29    24   ar
    31     1     5    1
    32     4     6    1
@<TRIPOS>MOLECULE
*****
 29 32 0 0 0
SMALL
GASTEIGER

@<TRIPOS>ATOM
      1 N          -8.8323  -17.3330   23.4557 N.am    1  UNL1       -0.2863
      2 C          -7.5163  -17.3909   22.7383 C.2     1  UNL1        0.3047
      3 O          -7.4616  -17.1832   21.2537 O.2     1  UNL1       -0.2525
      4 N          -6.2550  -17.6566   23.5054 N.am    1  UNL1       -0.2683
      5 H          -8.8682  -17.4693   24.4300 H       1  UNL1        0.1512
      6 H          -6.2908  -17.7930   24.4797 H       1  UNL1        0.1564
      7 C         -12.2084  -15.6013   19.5178 C.3     1  UNL1        0.0437
      8 C         -11.2956  -16.0825   20.6064 C.3     1  UNL1        0.1352
      9 C         -10.2920  -15.4619   19.6804 C.3     1  UNL1        0.0437
     10 C         -10.0343  -16.3482   21.3735 C.3     1  UNL1        0.0642
     11 C         -10.0936  -17.0673   22.6886 C.3     1  UNL1        0.1019
     12 C         -11.4143  -17.5207   23.2365 C.ar    1  UNL1        0.0298
     13 C         -11.4736  -18.2399   24.5516 C.ar    1  UNL1        0.0026
     14 C         -12.7943  -18.6933   25.0995 C.ar    1  UNL1        0.0296
     15 C         -14.0556  -18.4276   24.3324 C.ar    1  UNL1        0.1431
     16 F         -15.3763  -18.8811   24.8803 F       1  UNL1       -0.2041
     17 C         -13.9963  -17.7085   23.0173 C.ar    1  UNL1        0.0662
     18 C         -12.6757  -17.2551   22.4694 C.ar    1  UNL1        0.1379
     19 O         -12.6163  -16.5359   21.1543 O.3     1  UNL1       -0.4827
     20 C          -4.9389  -17.7146   22.7879 C.ar    1  UNL1        0.0516
     21 C          -3.8875  -16.6813   23.0649 C.ar    1  UNL1        0.0147
     22 C          -2.5715  -16.7393   22.3474 C.ar    1  UNL1        0.0013
     23 C          -2.3070  -17.8306   21.3530 C.ar    1  UNL1        0.0016
     24 C          -3.3583  -18.8639   21.0760 C.ar    1  UNL1        0.0204
     25 C          -3.0937  -19.9553   20.0815 C.ar    1  UNL1        0.0989
     26 N          -4.1451  -20.9886   19.8045 N.ar    1  UNL1       -0.2423
     27 C          -5.4612  -20.9306   20.5220 C.ar    1  UNL1        0.0989
     28 C          -5.7258  -19.8393   21.5164 C.ar    1  UNL1        0.0219
     29 C          -4.6743  -18.8059   21.7934 C.ar    1  UNL1        0.0166
@<TRIPOS>BOND
     1     7     8    1
     2     8     9    1
     3     8    10    1
     4    10    11    1
     5    11     1    1
     6     1     2   am
     7     2     3    2
     8     2     4   am
     9     4    20    1
    10    20    21   ar
    11    21    22   ar
    12    22    23   ar
    13    23    24   ar
    14    24    25   ar
    15    25    26   ar
    16    26    27   ar
    17    27    28   ar
    18    28    29   ar
    19    11    12    1
    20    12    13   ar
    21    13    14   ar
    22    14    15   ar
    23    15    16    1
    24    15    17   ar
    25    17    18   ar
    26    18    19    1
    27    19     8    1
    28    29    20   ar
    29    18    12   ar
    30    29    24   ar
    31     1     5    1
    32     4     6    1
@<TRIPOS>MOLECULE
*****
 29 32 0 0 0
SMALL
GASTEIGER

@<TRIPOS>ATOM
      1 N         -13.9937   -4.0044   20.4716 N.am    1  UNL1       -0.2863
      2 C         -14.6270   -2.8846   19.7002 C.2     1  UNL1        0.3047
      3 O         -14.5498   -2.8682   18.2022 O.2     1  UNL1       -0.2525
      4 N         -15.3374   -1.7812   20.4267 N.am    1  UNL1       -0.2683
      5 H         -14.0443   -4.0151   21.4547 H       1  UNL1        0.1512
      6 H         -15.3880   -1.7919   21.4098 H       1  UNL1        0.1564
      7 C          -9.9930   -6.8823   18.1017 C.3     1  UNL1        0.0437
      8 C         -11.1014   -6.1052   18.7478 C.3     1  UNL1        0.1352
      9 C          -9.9553   -5.1655   18.9793 C.3     1  UNL1        0.0437
     10 C         -11.8118   -5.0018   19.4744 C.3     1  UNL1        0.0642
     11 C         -13.2833   -5.1078   19.7451 C.3     1  UNL1        0.1019
     12 C         -14.0445   -6.3173   19.2892 C.ar    1  UNL1        0.0298
     13 C         -15.5161   -6.4234   19.5599 C.ar    1  UNL1        0.0026
     14 C         -16.2772   -7.6328   19.1041 C.ar    1  UNL1        0.0296
     15 C         -15.5668   -8.7363   18.3776 C.ar    1  UNL1        0.1431
     16 F         -16.3280   -9.9458   17.9218 F       1  UNL1       -0.2041
     17 C         -14.0953   -8.6302   18.1069 C.ar    1  UNL1        0.0662
     18 C         -13.3341   -7.4207   18.5627 C.ar    1  UNL1        0.1379
     19 O         -11.8625   -7.3146   18.2920 O.3     1  UNL1       -0.4827
     20 C         -15.9706   -0.6614   19.6552 C.ar    1  UNL1        0.0516
     21 C         -15.1151    0.4189   19.0629 C.ar    1  UNL1        0.0147
     22 C         -15.7484    1.5387   18.2914 C.ar    1  UNL1        0.0013
     23 C         -17.2372    1.5780   18.1124 C.ar    1  UNL1        0.0016
     24 C         -18.0927    0.4977   18.7048 C.ar    1  UNL1        0.0204
     25 C         -19.5814    0.5370   18.5257 C.ar    1  UNL1        0.0989
     26 N         -20.4369   -0.5433   19.1181 N.ar    1  UNL1       -0.2423
     27 C         -19.8036   -1.6631   19.8895 C.ar    1  UNL1        0.0989
     28 C         -18.3149   -1.7025   20.0686 C.ar    1  UNL1        0.0219
     29 C         -17.4594   -0.6220   19.4762 C.ar    1  UNL1        0.0166
@<TRIPOS>BOND
     1     7     8    1
     2     8     9    1
     3     8    10    1
     4    10    11    1
     5    11     1    1
     6     1     2   am
     7     2     3    2
     8     2     4   am
     9     4    20    1
    10    20    21   ar
    11    21    22   ar
    12    22    23   ar
    13    23    24   ar
    14    24    25   ar
    15    25    26   ar
    16    26    27   ar
    17    27    28   ar
    18    28    29   ar
    19    11    12    1
    20    12    13   ar
    21    13    14   ar
    22    14    15   ar
    23    15    16    1
    24    15    17   ar
    25    17    18   ar
    26    18    19    1
    27    19     8    1
    28    29    20   ar
    29    18    12   ar
    30    29    24   ar
    31     1     5    1
    32     4     6    1
