@<TRIPOS>MOLECULE
*****
 32 37 0 0 0
SMALL
GASTEIGER

@<TRIPOS>ATOM
      1 C          -8.0240  -18.9857   20.1363 C.3     1  UNL1        0.0749
      2 C          -8.3082  -18.0837   21.3006 C.3     1  UNL1        0.0444
      3 C          -9.7250  -17.8195   21.7163 C.ar    1  UNL1       -0.0101
      4 C         -10.8576  -18.4572   20.9676 C.ar    1  UNL1       -0.0091
      5 C         -12.2745  -18.1930   21.3833 C.ar    1  UNL1       -0.0032
      6 C         -12.5587  -17.2911   22.5476 C.ar    1  UNL1        0.0010
      7 C         -11.4261  -16.6533   23.2963 C.ar    1  UNL1        0.0142
      8 C         -10.0093  -16.9175   22.8806 C.ar    1  UNL1        0.0436
      9 C         -10.5734  -19.3592   19.8032 C.3     1  UNL1        0.0954
     10 N          -9.1566  -19.6234   19.3876 N.3     1  UNL1       -0.2934
     11 H          -9.0738  -19.3229   18.4164 H       1  UNL1        0.1236
     12 N          -8.8767  -16.2798   23.6293 N.pl3   1  UNL1       -0.3066
     13 C          -7.7477  -15.4999   23.0235 C.3     1  UNL1        0.1064
     14 C          -6.8474  -15.0481   24.1350 C.3     1  UNL1        0.0757
     15 C          -8.1016  -15.8093   23.8225 C.3     1  UNL1        0.0386
     16 C          -8.6742  -16.3100   25.1153 C.3     1  UNL1        0.0899
     17 C          -7.7740  -15.8582   26.2268 C.3     1  UNL1        0.0886
     18 N          -6.6451  -15.0784   25.6210 N.3     1  UNL1       -0.2957
     19 H          -5.7565  -15.5287   25.8402 H       1  UNL1        0.1233
     20 C          -6.6071  -19.2499   19.7206 C.3     1  UNL1        0.0886
     21 C          -5.6295  -21.3272   20.9369 C.3     1  UNL1        0.0899
     22 N          -5.6377  -19.8464   20.6975 N.3     1  UNL1       -0.2667
     23 C          -4.6765  -18.9621   21.4351 C.3     1  UNL1        0.0978
     24 C          -4.9553  -18.5724   22.8565 C.3     1  UNL1        0.0224
     25 C          -3.9940  -17.6881   23.5941 C.3     1  UNL1        0.0065
     26 C          -2.7540  -17.1935   22.9103 C.3     1  UNL1        0.0277
     27 C          -2.4751  -17.5832   21.4888 C.ar    1  UNL1       -0.0073
     28 C          -1.2351  -17.0886   20.8051 C.ar    1  UNL1       -0.0015
     29 C          -0.9563  -17.4783   19.3837 C.ar    1  UNL1        0.0203
     30 C          -1.9175  -18.3626   18.6461 C.ar    1  UNL1        0.0985
     31 N          -3.1576  -18.8572   19.3299 N.ar    1  UNL1       -0.2471
     32 C          -3.4364  -18.4675   20.7513 C.ar    1  UNL1        0.0695
@<TRIPOS>BOND
     1    21    22    1
     2    22    20    1
     3     1    20    1
     4     1     2    1
     5     2     3    1
     6     3     4   ar
     7     4     5   ar
     8     5     6   ar
     9     6     7   ar
    10     7     8   ar
    11     8    12    1
    12    12    13    1
    13    14    13    1
    14    14    15    1
    15    15    16    1
    16    16    17    1
    17    17    18    1
    18     4     9    1
    19     9    10    1
    20    23    22    1
    21    23    24    1
    22    24    25    1
    23    25    26    1
    24    26    27    1
    25    27    28   ar
    26    28    29   ar
    27    29    30   ar
    28    30    31   ar
    29    31    32   ar
    30    10     1    1
    31    32    23    1
    32     8     3   ar
    33    16    12    1
    34    32    27   ar
    35    18    14    1
    36    18    19    1
    37    10    11    1
@<TRIPOS>MOLECULE
*****
 32 37 0 0 0
SMALL
GASTEIGER

@<TRIPOS>ATOM
      1 C          -6.9776  -19.7412   21.4296 C.3     1  UNL1        0.0749
      2 C          -6.2479  -18.7262   22.2586 C.3     1  UNL1        0.0444
      3 C          -4.7547  -18.6174   22.1680 C.ar    1  UNL1       -0.0101
      4 C          -3.9911  -19.5236   21.2484 C.ar    1  UNL1       -0.0091
      5 C          -2.4977  -19.4148   21.1578 C.ar    1  UNL1       -0.0032
      6 C          -1.7680  -18.3998   21.9868 C.ar    1  UNL1        0.0010
      7 C          -2.5316  -17.4935   22.9064 C.ar    1  UNL1        0.0142
      8 C          -4.0249  -17.6023   22.9970 C.ar    1  UNL1        0.0436
      9 C          -4.7207  -20.5386   20.4194 C.3     1  UNL1        0.0954
     10 N          -6.2140  -20.6474   20.5100 N.3     1  UNL1       -0.2934
     11 H          -6.4226  -21.6033   20.7984 H       1  UNL1        0.1236
     12 N          -4.7885  -16.6961   23.9166 N.pl3   1  UNL1       -0.3066
     13 C          -4.4942  -16.4623   25.3687 C.3     1  UNL1        0.1064
     14 C          -5.5043  -15.4863   25.8951 C.3     1  UNL1        0.0757
     15 C          -5.0619  -16.2340   24.6724 C.3     1  UNL1        0.0386
     16 C          -5.9805  -15.8646   23.5456 C.3     1  UNL1        0.0899
     17 C          -6.9906  -14.8886   24.0720 C.3     1  UNL1        0.0886
     18 N          -6.6962  -14.6548   25.5240 N.3     1  UNL1       -0.2957
     19 H          -7.4997  -14.9302   26.0888 H       1  UNL1        0.1233
     20 C          -8.4710  -19.8501   21.5202 C.3     1  UNL1        0.0886
     21 C          -9.0805  -19.8714   18.9947 C.3     1  UNL1        0.0899
     22 N          -9.3281  -19.3701   20.3866 N.3     1  UNL1       -0.2667
     23 C         -10.4327  -18.3888   20.6450 C.3     1  UNL1        0.0978
     24 C         -10.7785  -17.3592   19.6104 C.3     1  UNL1        0.0224
     25 C         -11.8832  -16.3779   19.8687 C.3     1  UNL1        0.0065
     26 C         -12.6421  -16.4262   21.1616 C.3     1  UNL1        0.0277
     27 C         -12.2964  -17.4558   22.1963 C.ar    1  UNL1       -0.0073
     28 C         -13.0553  -17.5041   23.4892 C.ar    1  UNL1       -0.0015
     29 C         -12.7095  -18.5336   24.5238 C.ar    1  UNL1        0.0203
     30 C         -11.6048  -19.5149   24.2655 C.ar    1  UNL1        0.0985
     31 N         -10.8459  -19.4667   22.9726 N.ar    1  UNL1       -0.2471
     32 C         -11.1917  -18.4371   21.9380 C.ar    1  UNL1        0.0695
@<TRIPOS>BOND
     1    21    22    1
     2    22    20    1
     3     1    20    1
     4     1     2    1
     5     2     3    1
     6     3     4   ar
     7     4     5   ar
     8     5     6   ar
     9     6     7   ar
    10     7     8   ar
    11     8    12    1
    12    12    13    1
    13    14    13    1
    14    14    15    1
    15    15    16    1
    16    16    17    1
    17    17    18    1
    18     4     9    1
    19     9    10    1
    20    23    22    1
    21    23    24    1
    22    24    25    1
    23    25    26    1
    24    26    27    1
    25    27    28   ar
    26    28    29   ar
    27    29    30   ar
    28    30    31   ar
    29    31    32   ar
    30    10     1    1
    31    32    23    1
    32     8     3   ar
    33    16    12    1
    34    32    27   ar
    35    18    14    1
    36    18    19    1
    37    10    11    1
@<TRIPOS>MOLECULE
*****
 32 37 0 0 0
SMALL
GASTEIGER

@<TRIPOS>ATOM
      1 C          -7.1810  -19.6351   21.3546 C.3     1  UNL1        0.0749
      2 C          -6.4254  -18.6623   22.2107 C.3     1  UNL1        0.0444
      3 C          -4.9257  -18.6496   22.1867 C.ar    1  UNL1       -0.0101
      4 C          -4.1815  -19.6096   21.3066 C.ar    1  UNL1       -0.0091
      5 C          -2.6817  -19.5969   21.2826 C.ar    1  UNL1       -0.0032
      6 C          -1.9262  -18.6241   22.1387 C.ar    1  UNL1        0.0010
      7 C          -2.6704  -17.6641   23.0188 C.ar    1  UNL1        0.0142
      8 C          -4.1701  -17.6768   23.0428 C.ar    1  UNL1        0.0436
      9 C          -4.9370  -20.5823   20.4505 C.3     1  UNL1        0.0954
     10 N          -6.4368  -20.5951   20.4745 N.3     1  UNL1       -0.2934
     11 H          -6.7188  -21.5335   20.7578 H       1  UNL1        0.1236
     12 N          -4.9143  -16.7168   23.9229 N.pl3   1  UNL1       -0.3066
     13 C          -4.5907  -16.3991   25.3527 C.3     1  UNL1        0.1064
     14 C          -5.5892  -15.3919   25.8412 C.3     1  UNL1        0.0757
     15 C          -5.1721  -16.2108   24.6556 C.3     1  UNL1        0.0386
     16 C          -6.1127  -15.9059   23.5277 C.3     1  UNL1        0.0899
     17 C          -7.1112  -14.8987   24.0162 C.3     1  UNL1        0.0886
     18 N          -6.7876  -14.5811   25.4459 N.3     1  UNL1       -0.2957
     19 H          -7.5798  -14.8213   26.0418 H       1  UNL1        0.1233
     20 C          -8.6808  -19.6478   21.3785 C.3     1  UNL1        0.0886
     21 C          -8.8654  -20.6379   23.7735 C.3     1  UNL1        0.0899
     22 N          -9.4090  -19.7605   22.6850 N.3     1  UNL1       -0.2667
     23 C         -10.6809  -18.9957   22.9030 C.3     1  UNL1        0.0978
     24 C         -11.4897  -19.2240   24.1455 C.3     1  UNL1        0.0224
     25 C         -12.7616  -18.4593   24.3635 C.3     1  UNL1        0.0065
     26 C         -13.2247  -17.4663   23.3391 C.3     1  UNL1        0.0277
     27 C         -12.4159  -17.2380   22.0966 C.ar    1  UNL1       -0.0073
     28 C         -12.8790  -16.2450   21.0722 C.ar    1  UNL1       -0.0015
     29 C         -12.0702  -16.0167   19.8298 C.ar    1  UNL1        0.0203
     30 C         -10.7983  -16.7814   19.6117 C.ar    1  UNL1        0.0985
     31 N         -10.3352  -17.7744   20.6361 N.ar    1  UNL1       -0.2471
     32 C         -11.1440  -18.0027   21.8786 C.ar    1  UNL1        0.0695
@<TRIPOS>BOND
     1    21    22    1
     2    22    20    1
     3     1    20    1
     4     1     2    1
     5     2     3    1
     6     3     4   ar
     7     4     5   ar
     8     5     6   ar
     9     6     7   ar
    10     7     8   ar
    11     8    12    1
    12    12    13    1
    13    14    13    1
    14    14    15    1
    15    15    16    1
    16    16    17    1
    17    17    18    1
    18     4     9    1
    19     9    10    1
    20    23    22    1
    21    23    24    1
    22    24    25    1
    23    25    26    1
    24    26    27    1
    25    27    28   ar
    26    28    29   ar
    27    29    30   ar
    28    30    31   ar
    29    31    32   ar
    30    10     1    1
    31    32    23    1
    32     8     3   ar
    33    16    12    1
    34    32    27   ar
    35    18    14    1
    36    18    19    1
    37    10    11    1
@<TRIPOS>MOLECULE
*****
 32 37 0 0 0
SMALL
GASTEIGER

@<TRIPOS>ATOM
      1 C          -5.9237  -19.9026   21.4421 C.3     1  UNL1        0.0749
      2 C          -5.5178  -18.6837   22.2162 C.3     1  UNL1        0.0444
      3 C          -4.1910  -18.0354   21.9528 C.ar    1  UNL1       -0.0101
      4 C          -3.2703  -18.6061   20.9152 C.ar    1  UNL1       -0.0091
      5 C          -1.9434  -17.9578   20.6518 C.ar    1  UNL1       -0.0032
      6 C          -1.5375  -16.7388   21.4259 C.ar    1  UNL1        0.0010
      7 C          -2.4583  -16.1681   22.4634 C.ar    1  UNL1        0.0142
      8 C          -3.7850  -16.8163   22.7269 C.ar    1  UNL1        0.0436
      9 C          -3.6762  -19.8251   20.1411 C.3     1  UNL1        0.0954
     10 N          -5.0030  -20.4733   20.4046 N.3     1  UNL1       -0.2934
     11 H          -4.8106  -21.4366   20.6794 H       1  UNL1        0.1236
     12 N          -4.7058  -16.2456   23.7644 N.pl3   1  UNL1       -0.3066
     13 C          -4.4944  -16.2858   25.2488 C.3     1  UNL1        0.1064
     14 C          -5.6576  -15.5996   25.9015 C.3     1  UNL1        0.0757
     15 C          -5.0693  -15.9989   24.5807 C.3     1  UNL1        0.0386
     16 C          -5.9997  -15.5345   23.4996 C.3     1  UNL1        0.0899
     17 C          -7.1629  -14.8483   24.1523 C.3     1  UNL1        0.0886
     18 N          -6.9514  -14.8885   25.6367 N.3     1  UNL1       -0.2957
     19 H          -7.7196  -15.3902   26.0823 H       1  UNL1        0.1233
     20 C          -7.2506  -20.5510   21.7055 C.3     1  UNL1        0.0886
     21 C          -8.7470  -19.6315   19.7910 C.3     1  UNL1        0.0899
     22 N          -8.5148  -19.8836   21.2513 N.3     1  UNL1       -0.2667
     23 C          -9.5468  -19.4682   22.2575 C.3     1  UNL1        0.0978
     24 C          -9.6275  -20.1679   23.5818 C.3     1  UNL1        0.0224
     25 C         -10.6596  -19.7526   24.5879 C.3     1  UNL1        0.0065
     26 C         -11.6110  -18.6374   24.2697 C.3     1  UNL1        0.0277
     27 C         -11.5303  -17.9376   22.9454 C.ar    1  UNL1       -0.0073
     28 C         -12.4817  -16.8225   22.6272 C.ar    1  UNL1       -0.0015
     29 C         -12.4011  -16.1228   21.3029 C.ar    1  UNL1        0.0203
     30 C         -11.3690  -16.5381   20.2968 C.ar    1  UNL1        0.0985
     31 N         -10.4176  -17.6533   20.6150 N.ar    1  UNL1       -0.2471
     32 C         -10.4983  -18.3530   21.9393 C.ar    1  UNL1        0.0695
@<TRIPOS>BOND
     1    21    22    1
     2    22    20    1
     3     1    20    1
     4     1     2    1
     5     2     3    1
     6     3     4   ar
     7     4     5   ar
     8     5     6   ar
     9     6     7   ar
    10     7     8   ar
    11     8    12    1
    12    12    13    1
    13    14    13    1
    14    14    15    1
    15    15    16    1
    16    16    17    1
    17    17    18    1
    18     4     9    1
    19     9    10    1
    20    23    22    1
    21    23    24    1
    22    24    25    1
    23    25    26    1
    24    26    27    1
    25    27    28   ar
    26    28    29   ar
    27    29    30   ar
    28    30    31   ar
    29    31    32   ar
    30    10     1    1
    31    32    23    1
    32     8     3   ar
    33    16    12    1
    34    32    27   ar
    35    18    14    1
    36    18    19    1
    37    10    11    1
@<TRIPOS>MOLECULE
*****
 32 37 0 0 0
SMALL
GASTEIGER

@<TRIPOS>ATOM
      1 C          -8.7563  -19.2427   20.3916 C.3     1  UNL1        0.0749
      2 C          -8.8865  -18.1867   21.4489 C.3     1  UNL1        0.0444
      3 C         -10.2412  -17.6620   21.8220 C.ar    1  UNL1       -0.0101
      4 C         -11.4658  -18.1933   21.1379 C.ar    1  UNL1       -0.0091
      5 C         -12.8207  -17.6685   21.5111 C.ar    1  UNL1       -0.0032
      6 C         -12.9508  -16.6125   22.5684 C.ar    1  UNL1        0.0010
      7 C         -11.7262  -16.0812   23.2525 C.ar    1  UNL1        0.0142
      8 C         -10.3714  -16.6059   22.8793 C.ar    1  UNL1        0.0436
      9 C         -11.3357  -19.2493   20.0806 C.3     1  UNL1        0.0954
     10 N          -9.9810  -19.7740   19.7075 N.3     1  UNL1       -0.2934
     11 H          -9.8612  -19.5971   18.7101 H       1  UNL1        0.1236
     12 N          -9.1468  -16.0746   23.5635 N.pl3   1  UNL1       -0.3066
     13 C          -8.0100  -15.3535   22.9018 C.3     1  UNL1        0.1064
     14 C          -7.0046  -15.0043   23.9587 C.3     1  UNL1        0.0757
     15 C          -8.3285  -15.6658   23.7144 C.3     1  UNL1        0.0386
     16 C          -8.8439  -16.1710   25.0294 C.3     1  UNL1        0.0899
     17 C          -7.8384  -15.8219   26.0863 C.3     1  UNL1        0.0886
     18 N          -6.7018  -15.1008   25.4246 N.3     1  UNL1       -0.2957
     19 H          -5.8344  -15.6188   25.5655 H       1  UNL1        0.1233
     20 C          -7.4015  -19.7674   20.0184 C.3     1  UNL1        0.0886
     21 C          -6.8938  -20.7775   22.3577 C.3     1  UNL1        0.0899
     22 N          -6.4174  -20.1326   21.0899 N.3     1  UNL1       -0.2667
     23 C          -4.9568  -19.8529   20.8937 C.3     1  UNL1        0.0978
     24 C          -4.1673  -20.6512   19.8990 C.3     1  UNL1        0.0224
     25 C          -2.7068  -20.3715   19.7028 C.3     1  UNL1        0.0065
     26 C          -2.0357  -19.2935   20.5013 C.3     1  UNL1        0.0277
     27 C          -2.8252  -18.4951   21.4960 C.ar    1  UNL1       -0.0073
     28 C          -2.1541  -17.4172   22.2945 C.ar    1  UNL1       -0.0015
     29 C          -2.9436  -16.6189   23.2891 C.ar    1  UNL1        0.0203
     30 C          -4.4042  -16.8986   23.4853 C.ar    1  UNL1        0.0985
     31 N          -5.0753  -17.9766   22.6869 N.ar    1  UNL1       -0.2471
     32 C          -4.2858  -18.7748   21.6922 C.ar    1  UNL1        0.0695
@<TRIPOS>BOND
     1    21    22    1
     2    22    20    1
     3     1    20    1
     4     1     2    1
     5     2     3    1
     6     3     4   ar
     7     4     5   ar
     8     5     6   ar
     9     6     7   ar
    10     7     8   ar
    11     8    12    1
    12    12    13    1
    13    14    13    1
    14    14    15    1
    15    15    16    1
    16    16    17    1
    17    17    18    1
    18     4     9    1
    19     9    10    1
    20    23    22    1
    21    23    24    1
    22    24    25    1
    23    25    26    1
    24    26    27    1
    25    27    28   ar
    26    28    29   ar
    27    29    30   ar
    28    30    31   ar
    29    31    32   ar
    30    10     1    1
    31    32    23    1
    32     8     3   ar
    33    16    12    1
    34    32    27   ar
    35    18    14    1
    36    18    19    1
    37    10    11    1
@<TRIPOS>MOLECULE
*****
 32 37 0 0 0
SMALL
GASTEIGER

@<TRIPOS>ATOM
      1 C          -5.4477  -20.0062   20.9860 C.3     1  UNL1        0.0749
      2 C          -4.9364  -18.8553   21.8008 C.3     1  UNL1        0.0444
      3 C          -3.6449  -18.1888   21.4295 C.ar    1  UNL1       -0.0101
      4 C          -2.8648  -18.6732   20.2434 C.ar    1  UNL1       -0.0091
      5 C          -1.5733  -18.0067   19.8722 C.ar    1  UNL1       -0.0032
      6 C          -1.0619  -16.8558   20.6870 C.ar    1  UNL1        0.0010
      7 C          -1.8420  -16.3714   21.8731 C.ar    1  UNL1        0.0142
      8 C          -3.1335  -17.0379   22.2444 C.ar    1  UNL1        0.0436
      9 C          -3.3762  -19.8241   19.4286 C.3     1  UNL1        0.0954
     10 N          -4.6676  -20.4905   19.7999 N.3     1  UNL1       -0.2934
     11 H          -4.4537  -21.4733   19.9696 H       1  UNL1        0.1236
     12 N          -3.9136  -16.5535   23.4305 N.pl3   1  UNL1       -0.3066
     13 C          -4.8181  -15.3574   23.4621 C.3     1  UNL1        0.1064
     14 C          -5.3897  -15.2448   24.8444 C.3     1  UNL1        0.0757
     15 C          -4.4774  -16.0536   23.9705 C.3     1  UNL1        0.0386
     16 C          -3.9262  -17.1803   24.7932 C.3     1  UNL1        0.0899
     17 C          -4.4977  -17.0677   26.1755 C.3     1  UNL1        0.0886
     18 N          -5.4022  -15.8716   26.2070 N.3     1  UNL1       -0.2957
     19 H          -5.0664  -15.2019   26.8992 H       1  UNL1        0.1233
     20 C          -6.7393  -20.6727   21.3572 C.3     1  UNL1        0.0886
     21 C          -8.6756  -19.5955   20.0006 C.3     1  UNL1        0.0899
     22 N          -8.0224  -19.8969   21.3169 N.3     1  UNL1       -0.2667
     23 C          -8.6523  -19.4223   22.5928 C.3     1  UNL1        0.0978
     24 C          -9.2877  -20.4084   23.5276 C.3     1  UNL1        0.0224
     25 C          -9.9176  -19.9338   24.8035 C.3     1  UNL1        0.0065
     26 C          -9.9122  -18.4731   25.1446 C.3     1  UNL1        0.0277
     27 C          -9.2768  -17.4869   24.2098 C.ar    1  UNL1       -0.0073
     28 C          -9.2713  -16.0263   24.5509 C.ar    1  UNL1       -0.0015
     29 C          -8.6360  -15.0402   23.6161 C.ar    1  UNL1        0.0203
     30 C          -8.0060  -15.5148   22.3402 C.ar    1  UNL1        0.0985
     31 N          -8.0115  -16.9754   21.9991 N.ar    1  UNL1       -0.2471
     32 C          -8.6468  -17.9615   22.9339 C.ar    1  UNL1        0.0695
@<TRIPOS>BOND
     1    21    22    1
     2    22    20    1
     3     1    20    1
     4     1     2    1
     5     2     3    1
     6     3     4   ar
     7     4     5   ar
     8     5     6   ar
     9     6     7   ar
    10     7     8   ar
    11     8    12    1
    12    12    13    1
    13    14    13    1
    14    14    15    1
    15    15    16    1
    16    16    17    1
    17    17    18    1
    18     4     9    1
    19     9    10    1
    20    23    22    1
    21    23    24    1
    22    24    25    1
    23    25    26    1
    24    26    27    1
    25    27    28   ar
    26    28    29   ar
    27    29    30   ar
    28    30    31   ar
    29    31    32   ar
    30    10     1    1
    31    32    23    1
    32     8     3   ar
    33    16    12    1
    34    32    27   ar
    35    18    14    1
    36    18    19    1
    37    10    11    1
@<TRIPOS>MOLECULE
*****
 32 37 0 0 0
SMALL
GASTEIGER

@<TRIPOS>ATOM
      1 C         -15.0539   -3.7886   19.4793 C.3     1  UNL1        0.0749
      2 C         -13.6823   -4.2082   19.0404 C.3     1  UNL1        0.0444
      3 C         -12.6887   -3.1762   18.5959 C.ar    1  UNL1       -0.0101
      4 C         -13.0666   -1.7246   18.5903 C.ar    1  UNL1       -0.0091
      5 C         -12.0729   -0.6926   18.1458 C.ar    1  UNL1       -0.0032
      6 C         -10.7013   -1.1122   17.7069 C.ar    1  UNL1        0.0010
      7 C         -10.3234   -2.5638   17.7125 C.ar    1  UNL1        0.0142
      8 C         -11.3170   -3.5958   18.1570 C.ar    1  UNL1        0.0436
      9 C         -14.4382   -1.3050   19.0292 C.3     1  UNL1        0.0954
     10 N         -15.4318   -2.3370   19.4737 N.3     1  UNL1       -0.2934
     11 H         -16.2436   -2.2465   18.8628 H       1  UNL1        0.1236
     12 N         -10.9391   -5.0474   18.1626 N.pl3   1  UNL1       -0.3066
     13 C          -9.9612   -5.7003   19.0940 C.3     1  UNL1        0.1064
     14 C          -9.8904   -7.1574   18.7448 C.3     1  UNL1        0.0757
     15 C         -10.5385   -5.8534   18.3850 C.3     1  UNL1        0.0386
     16 C         -11.4726   -6.1010   17.2377 C.3     1  UNL1        0.0899
     17 C         -11.4018   -7.5581   16.8886 C.3     1  UNL1        0.0886
     18 N         -10.4240   -8.2109   17.8200 N.3     1  UNL1       -0.2957
     19 H          -9.6587   -8.6222   17.2856 H       1  UNL1        0.1233
     20 C         -16.0476   -4.8207   19.9238 C.3     1  UNL1        0.0886
     21 C         -17.2396   -4.7504   17.6163 C.3     1  UNL1        0.0899
     22 N         -16.9905   -5.4311   18.9297 N.3     1  UNL1       -0.2667
     23 C         -17.6843   -6.7221   19.2488 C.3     1  UNL1        0.0978
     24 C         -19.0200   -6.7070   19.9312 C.3     1  UNL1        0.0224
     25 C         -19.7138   -7.9980   20.2504 C.3     1  UNL1        0.0065
     26 C         -19.0720   -9.3041   19.8871 C.3     1  UNL1        0.0277
     27 C         -17.7363   -9.3193   19.2046 C.ar    1  UNL1       -0.0073
     28 C         -17.0945  -10.6254   18.8413 C.ar    1  UNL1       -0.0015
     29 C         -15.7588  -10.6405   18.1588 C.ar    1  UNL1        0.0203
     30 C         -15.0650   -9.3495   17.8397 C.ar    1  UNL1        0.0985
     31 N         -15.7068   -8.0434   18.2030 N.ar    1  UNL1       -0.2471
     32 C         -17.0424   -8.0283   18.8854 C.ar    1  UNL1        0.0695
@<TRIPOS>BOND
     1    21    22    1
     2    22    20    1
     3     1    20    1
     4     1     2    1
     5     2     3    1
     6     3     4   ar
     7     4     5   ar
     8     5     6   ar
     9     6     7   ar
    10     7     8   ar
    11     8    12    1
    12    12    13    1
    13    14    13    1
    14    14    15    1
    15    15    16    1
    16    16    17    1
    17    17    18    1
    18     4     9    1
    19     9    10    1
    20    23    22    1
    21    23    24    1
    22    24    25    1
    23    25    26    1
    24    26    27    1
    25    27    28   ar
    26    28    29   ar
    27    29    30   ar
    28    30    31   ar
    29    31    32   ar
    30    10     1    1
    31    32    23    1
    32     8     3   ar
    33    16    12    1
    34    32    27   ar
    35    18    14    1
    36    18    19    1
    37    10    11    1
@<TRIPOS>MOLECULE
*****
 32 37 0 0 0
SMALL
GASTEIGER

@<TRIPOS>ATOM
      1 C          -7.7280  -15.2235   22.2851 C.3     1  UNL1        0.0749
      2 C          -8.7366  -16.2976   22.5662 C.3     1  UNL1        0.0444
      3 C          -9.9541  -16.4284   21.6999 C.ar    1  UNL1       -0.0101
      4 C         -10.1631  -15.4851   20.5525 C.ar    1  UNL1       -0.0091
      5 C         -11.3807  -15.6160   19.6862 C.ar    1  UNL1       -0.0032
      6 C         -12.3892  -16.6900   19.9674 C.ar    1  UNL1        0.0010
      7 C         -12.1803  -17.6333   21.1148 C.ar    1  UNL1        0.0142
      8 C         -10.9628  -17.5025   21.9811 C.ar    1  UNL1        0.0436
      9 C          -9.1545  -14.4111   20.2714 C.3     1  UNL1        0.0954
     10 N          -7.9370  -14.2803   21.1376 N.3     1  UNL1       -0.2934
     11 H          -7.9544  -13.3388   21.5298 H       1  UNL1        0.1236
     12 N         -10.7539  -18.4457   23.1285 N.pl3   1  UNL1       -0.3066
     13 C         -11.4479  -18.3856   24.4569 C.3     1  UNL1        0.1064
     14 C         -10.9372  -19.5174   25.2984 C.3     1  UNL1        0.0757
     15 C         -10.8239  -18.8551   23.9574 C.3     1  UNL1        0.0386
     16 C          -9.8143  -19.6148   23.1490 C.3     1  UNL1        0.0899
     17 C          -9.3036  -20.7467   23.9905 C.3     1  UNL1        0.0886
     18 N          -9.9976  -20.6864   25.3189 N.3     1  UNL1       -0.2957
     19 H          -9.3107  -20.5654   26.0631 H       1  UNL1        0.1233
     20 C          -6.5104  -15.0927   23.1514 C.3     1  UNL1        0.0886
     21 C          -5.6212  -16.3998   25.2132 C.3     1  UNL1        0.0899
     22 N          -5.8711  -16.3170   23.7364 N.3     1  UNL1       -0.2667
     23 C          -5.4817  -17.4586   22.8447 C.3     1  UNL1        0.0978
     24 C          -6.4291  -18.6020   22.6331 C.3     1  UNL1        0.0224
     25 C          -6.0397  -19.7436   21.7414 C.3     1  UNL1        0.0065
     26 C          -4.7028  -19.7417   21.0613 C.3     1  UNL1        0.0277
     27 C          -3.7552  -18.5983   21.2729 C.ar    1  UNL1       -0.0073
     28 C          -2.4183  -18.5964   20.5928 C.ar    1  UNL1       -0.0015
     29 C          -1.4708  -17.4530   20.8044 C.ar    1  UNL1        0.0203
     30 C          -1.8602  -16.3114   21.6961 C.ar    1  UNL1        0.0985
     31 N          -3.1972  -16.3133   22.3762 N.ar    1  UNL1       -0.2471
     32 C          -4.1446  -17.4567   22.1646 C.ar    1  UNL1        0.0695
@<TRIPOS>BOND
     1    21    22    1
     2    22    20    1
     3     1    20    1
     4     1     2    1
     5     2     3    1
     6     3     4   ar
     7     4     5   ar
     8     5     6   ar
     9     6     7   ar
    10     7     8   ar
    11     8    12    1
    12    12    13    1
    13    14    13    1
    14    14    15    1
    15    15    16    1
    16    16    17    1
    17    17    18    1
    18     4     9    1
    19     9    10    1
    20    23    22    1
    21    23    24    1
    22    24    25    1
    23    25    26    1
    24    26    27    1
    25    27    28   ar
    26    28    29   ar
    27    29    30   ar
    28    30    31   ar
    29    31    32   ar
    30    10     1    1
    31    32    23    1
    32     8     3   ar
    33    16    12    1
    34    32    27   ar
    35    18    14    1
    36    18    19    1
    37    10    11    1
@<TRIPOS>MOLECULE
*****
 32 37 0 0 0
SMALL
GASTEIGER

@<TRIPOS>ATOM
      1 C          -7.9457  -17.7104   21.8051 C.3     1  UNL1        0.0749
      2 C          -6.5394  -17.4805   22.2733 C.3     1  UNL1        0.0444
      3 C          -6.2852  -16.7040   23.5312 C.ar    1  UNL1       -0.0101
      4 C          -7.4374  -16.1573   24.3209 C.ar    1  UNL1       -0.0091
      5 C          -7.1832  -15.3807   25.5788 C.ar    1  UNL1       -0.0032
      6 C          -5.7769  -15.1509   26.0471 C.ar    1  UNL1        0.0010
      7 C          -4.6247  -15.6975   25.2574 C.ar    1  UNL1        0.0142
      8 C          -4.8788  -16.4741   23.9995 C.ar    1  UNL1        0.0436
      9 C          -8.8438  -16.3872   23.8526 C.3     1  UNL1        0.0954
     10 N          -9.0979  -17.1637   22.5948 N.3     1  UNL1       -0.2934
     11 H          -9.6183  -16.5487   21.9691 H       1  UNL1        0.1236
     12 N          -3.7266  -17.0208   23.2099 N.pl3   1  UNL1       -0.3066
     13 C          -3.2531  -18.4441   23.2114 C.3     1  UNL1        0.1064
     14 C          -2.0794  -18.5431   22.2825 C.3     1  UNL1        0.0757
     15 C          -3.0974  -17.6023   22.8556 C.3     1  UNL1        0.0386
     16 C          -2.8456  -16.2402   22.2801 C.3     1  UNL1        0.0899
     17 C          -1.6720  -16.3392   21.3512 C.3     1  UNL1        0.0886
     18 N          -1.1985  -17.7625   21.3527 N.3     1  UNL1       -0.2957
     19 H          -0.2316  -17.8052   21.6746 H       1  UNL1        0.1233
     20 C          -8.1999  -18.4870   20.5471 C.3     1  UNL1        0.0886
     21 C          -9.8377  -20.1590   19.4192 C.3     1  UNL1        0.0899
     22 N          -9.5982  -18.8918   20.1852 N.3     1  UNL1       -0.2667
     23 C         -10.7570  -18.0293   20.5893 C.3     1  UNL1        0.0978
     24 C         -11.2264  -16.9307   19.6824 C.3     1  UNL1        0.0224
     25 C         -12.3853  -16.0682   20.0865 C.3     1  UNL1        0.0065
     26 C         -13.0747  -16.3044   21.3975 C.3     1  UNL1        0.0277
     27 C         -12.6053  -17.4031   22.3046 C.ar    1  UNL1       -0.0073
     28 C         -13.2947  -17.6393   23.6156 C.ar    1  UNL1       -0.0015
     29 C         -12.8253  -18.7379   24.5225 C.ar    1  UNL1        0.0203
     30 C         -11.6664  -19.6003   24.1185 C.ar    1  UNL1        0.0985
     31 N         -10.9770  -19.3642   22.8074 N.ar    1  UNL1       -0.2471
     32 C         -11.4464  -18.2655   21.9005 C.ar    1  UNL1        0.0695
@<TRIPOS>BOND
     1    21    22    1
     2    22    20    1
     3     1    20    1
     4     1     2    1
     5     2     3    1
     6     3     4   ar
     7     4     5   ar
     8     5     6   ar
     9     6     7   ar
    10     7     8   ar
    11     8    12    1
    12    12    13    1
    13    14    13    1
    14    14    15    1
    15    15    16    1
    16    16    17    1
    17    17    18    1
    18     4     9    1
    19     9    10    1
    20    23    22    1
    21    23    24    1
    22    24    25    1
    23    25    26    1
    24    26    27    1
    25    27    28   ar
    26    28    29   ar
    27    29    30   ar
    28    30    31   ar
    29    31    32   ar
    30    10     1    1
    31    32    23    1
    32     8     3   ar
    33    16    12    1
    34    32    27   ar
    35    18    14    1
    36    18    19    1
    37    10    11    1
