@<TRIPOS>MOLECULE
*****
 33 37 0 0 0
SMALL
GASTEIGER

@<TRIPOS>ATOM
      1 C           2.6046   -1.1452   20.8482 C.ar    1  UNL1        0.0004
      2 C           1.5174   -0.8882   19.8473 C.ar    1  UNL1        0.0031
      3 C           0.5047    0.1891   20.1001 C.ar    1  UNL1        0.0370
      4 C           0.5792    1.0092   21.3538 C.ar    1  UNL1        0.1415
      5 C           1.6663    0.7522   22.3547 C.ar    1  UNL1        0.0699
      6 C           2.6791   -0.3250   22.1019 C.ar    1  UNL1        0.0061
      7 C           1.9207    1.4483   23.6587 C.ar    1  UNL1        0.1718
      8 N           3.0521    1.0942   24.5777 N.ar    1  UNL1       -0.1258
      9 N           2.9813    2.0005   25.7709 N.ar    1  UNL1       -0.0913
     10 C           1.8061    2.9147   25.5893 C.ar    1  UNL1        0.3248
     11 N           1.1506    2.5736   24.2840 N.ar    1  UNL1       -0.2613
     12 C          -0.0640    3.2805   23.7596 C.3     1  UNL1        0.1592
     13 C          -0.8085    3.0368   22.4804 C.3     1  UNL1        0.2299
     14 O          -0.5222    2.0260   21.4097 O.3     1  UNL1       -0.4733
     15 C           6.7387   -3.8874   22.3941 C.3     1  UNL1        0.0521
     16 C           5.6845   -3.5936   21.3684 C.ar    1  UNL1        0.0594
     17 C           4.6717   -2.5163   21.6212 C.ar    1  UNL1        0.0147
     18 C           3.6174   -2.2225   20.5954 C.ar    1  UNL1        0.0027
     19 C           3.5758   -3.0059   19.3169 C.ar    1  UNL1        0.0207
     20 C           4.5886   -4.0831   19.0642 C.ar    1  UNL1        0.0984
     21 N           5.6429   -4.3770   20.0899 N.ar    1  UNL1       -0.2481
     22 O           1.3641    3.9828   26.5454 O.3     1  UNL1       -0.4223
     23 C           1.1613    3.6547   27.9949 C.ar    1  UNL1        0.1517
     24 C           1.5686    4.6393   29.0508 C.ar    1  UNL1        0.0378
     25 C           1.3658    4.3111   30.5004 C.ar    1  UNL1        0.0062
     26 C           0.7557    2.9986   30.8940 C.ar    1  UNL1        0.0374
     27 C           0.3483    2.0141   29.8382 C.ar    1  UNL1        0.1499
     28 C           0.5512    2.3422   28.3886 C.ar    1  UNL1        0.0747
     29 O          -0.2617    0.7016   30.2318 O.3     1  UNL1       -0.4044
     30 C          -0.8676   -0.1874   29.1864 C.3     1  UNL1        0.5753
     31 F          -1.4735   -1.0764   28.1411 F       1  UNL1       -0.1328
     32 F           0.4980   -0.6890   28.8215 F       1  UNL1       -0.1328
     33 F          -2.2333    0.3142   29.5514 F       1  UNL1       -0.1328
@<TRIPOS>BOND
     1    15    16    1
     2    16    17   ar
     3    17    18   ar
     4    18     1    1
     5     1     2   ar
     6     2     3   ar
     7     3     4   ar
     8     4     5   ar
     9     5     6   ar
    10     5     7    1
    11     7     8   ar
    12     8     9   ar
    13     9    10   ar
    14    10    22    1
    15    22    23    1
    16    23    24   ar
    17    24    25   ar
    18    25    26   ar
    19    26    27   ar
    20    27    29    1
    21    29    30    1
    22    30    31    1
    23    30    32    1
    24    30    33    1
    25    27    28   ar
    26    10    11   ar
    27    11    12    1
    28    12    13    1
    29    13    14    1
    30    18    19   ar
    31    19    20   ar
    32    20    21   ar
    33    21    16   ar
    34     6     1   ar
    35    11     7   ar
    36    14     4    1
    37    28    23   ar
@<TRIPOS>MOLECULE
*****
 33 37 0 0 0
SMALL
GASTEIGER

@<TRIPOS>ATOM
      1 C           6.4623   -3.3487   31.4282 C.ar    1  UNL1        0.0004
      2 C           6.8675   -4.7580   31.7436 C.ar    1  UNL1        0.0031
      3 C           7.1348   -5.7283   30.6314 C.ar    1  UNL1        0.0370
      4 C           6.9968   -5.2893   29.2038 C.ar    1  UNL1        0.1415
      5 C           6.5916   -3.8800   28.8883 C.ar    1  UNL1        0.0699
      6 C           6.3244   -2.9097   30.0005 C.ar    1  UNL1        0.0061
      7 C           6.3973   -3.2411   27.5452 C.ar    1  UNL1        0.1718
      8 N           5.9871   -1.8099   27.3624 N.ar    1  UNL1       -0.1258
      9 N           5.8965   -1.5380   25.8900 N.ar    1  UNL1       -0.0913
     10 C           6.2507   -2.8012   25.1628 C.ar    1  UNL1        0.3248
     11 N           6.5603   -3.8538   26.1857 N.ar    1  UNL1       -0.2613
     12 C           6.9577   -5.2567   25.8337 C.3     1  UNL1        0.1592
     13 C           7.2904   -6.3934   26.7541 C.3     1  UNL1        0.2299
     14 O           7.3078   -6.4079   28.2540 O.3     1  UNL1       -0.4733
     15 C           8.1042    0.4284   34.5965 C.3     1  UNL1        0.0521
     16 C           7.0160   -0.4897   34.1246 C.ar    1  UNL1        0.0594
     17 C           7.2833   -1.4601   33.0123 C.ar    1  UNL1        0.0147
     18 C           6.1951   -2.3783   32.5404 C.ar    1  UNL1        0.0027
     19 C           4.8396   -2.3261   33.1807 C.ar    1  UNL1        0.0207
     20 C           4.5723   -1.3558   34.2928 C.ar    1  UNL1        0.0984
     21 N           5.6605   -0.4376   34.7648 N.ar    1  UNL1       -0.2481
     22 O           6.2887   -2.9804   23.6740 O.3     1  UNL1       -0.4223
     23 C           5.1662   -2.4585   22.8268 C.ar    1  UNL1        0.1517
     24 C           4.1897   -1.4742   23.3991 C.ar    1  UNL1        0.0378
     25 C           3.0672   -0.9525   22.5519 C.ar    1  UNL1        0.0062
     26 C           2.9213   -1.4150   21.1325 C.ar    1  UNL1        0.0374
     27 C           3.8978   -2.3993   20.5602 C.ar    1  UNL1        0.1499
     28 C           5.0204   -2.9211   21.4075 C.ar    1  UNL1        0.0747
     29 O           3.7519   -2.8618   19.1408 O.3     1  UNL1       -0.4044
     30 C           4.2697   -4.2097   18.7342 C.3     1  UNL1        0.5753
     31 F           4.7874   -5.5576   18.3277 F       1  UNL1       -0.1328
     32 F           5.4733   -3.5613   18.1172 F       1  UNL1       -0.1328
     33 F           3.0661   -4.8581   19.3514 F       1  UNL1       -0.1328
@<TRIPOS>BOND
     1    15    16    1
     2    16    17   ar
     3    17    18   ar
     4    18     1    1
     5     1     2   ar
     6     2     3   ar
     7     3     4   ar
     8     4     5   ar
     9     5     6   ar
    10     5     7    1
    11     7     8   ar
    12     8     9   ar
    13     9    10   ar
    14    10    22    1
    15    22    23    1
    16    23    24   ar
    17    24    25   ar
    18    25    26   ar
    19    26    27   ar
    20    27    29    1
    21    29    30    1
    22    30    31    1
    23    30    32    1
    24    30    33    1
    25    27    28   ar
    26    10    11   ar
    27    11    12    1
    28    12    13    1
    29    13    14    1
    30    18    19   ar
    31    19    20   ar
    32    20    21   ar
    33    21    16   ar
    34     6     1   ar
    35    11     7   ar
    36    14     4    1
    37    28    23   ar
@<TRIPOS>MOLECULE
*****
 33 37 0 0 0
SMALL
GASTEIGER

@<TRIPOS>ATOM
      1 C           2.5833   -0.7691   20.2889 C.ar    1  UNL1        0.0004
      2 C           2.3683   -0.3249   18.8724 C.ar    1  UNL1        0.0031
      3 C           1.5706    0.9130   18.5875 C.ar    1  UNL1        0.0370
      4 C           0.9879    1.7068   19.7191 C.ar    1  UNL1        0.1415
      5 C           1.2029    1.2626   21.1356 C.ar    1  UNL1        0.0699
      6 C           2.0006    0.0247   21.4205 C.ar    1  UNL1        0.0061
      7 C           0.7140    1.9027   22.4009 C.ar    1  UNL1        0.1718
      8 N           0.9995    1.3552   23.7679 N.ar    1  UNL1       -0.1258
      9 N           0.3512    2.2592   24.7741 N.ar    1  UNL1       -0.0913
     10 C          -0.3350    3.3654   24.0290 C.ar    1  UNL1        0.3248
     11 N          -0.1109    3.1451   22.5623 N.ar    1  UNL1       -0.2613
     12 C          -0.6504    4.0543   21.4982 C.3     1  UNL1        0.1592
     13 C          -0.4984    3.9456   20.0099 C.3     1  UNL1        0.2299
     14 O           0.2308    2.9008   19.2181 O.3     1  UNL1       -0.4733
     15 C           4.6378   -5.2660   18.6898 C.3     1  UNL1        0.0521
     16 C           4.4083   -4.2555   19.7743 C.ar    1  UNL1        0.0594
     17 C           3.6105   -3.0175   19.4893 C.ar    1  UNL1        0.0147
     18 C           3.3810   -2.0071   20.5738 C.ar    1  UNL1        0.0027
     19 C           3.9492   -2.2345   21.9433 C.ar    1  UNL1        0.0207
     20 C           4.7469   -3.4723   22.2283 C.ar    1  UNL1        0.0984
     21 N           4.9765   -4.4829   21.1438 N.ar    1  UNL1       -0.2481
     22 O          -1.1095    4.4939   24.6429 O.3     1  UNL1       -0.4223
     23 C          -2.5867    4.3566   24.8645 C.ar    1  UNL1        0.1517
     24 C          -3.1761    4.6713   26.2074 C.ar    1  UNL1        0.0378
     25 C          -4.6533    4.5340   26.4289 C.ar    1  UNL1        0.0062
     26 C          -5.5410    4.0820   25.3075 C.ar    1  UNL1        0.0374
     27 C          -4.9516    3.7672   23.9646 C.ar    1  UNL1        0.1499
     28 C          -3.4744    3.9046   23.7431 C.ar    1  UNL1        0.0747
     29 O          -5.8393    3.3152   22.8432 O.3     1  UNL1       -0.4044
     30 C          -6.6067    4.3240   22.0408 C.3     1  UNL1        0.5753
     31 F          -7.3741    5.3326   21.2385 F       1  UNL1       -0.1328
     32 F          -5.4294    4.4926   21.1268 F       1  UNL1       -0.1328
     33 F          -7.7840    4.1553   22.9549 F       1  UNL1       -0.1328
@<TRIPOS>BOND
     1    15    16    1
     2    16    17   ar
     3    17    18   ar
     4    18     1    1
     5     1     2   ar
     6     2     3   ar
     7     3     4   ar
     8     4     5   ar
     9     5     6   ar
    10     5     7    1
    11     7     8   ar
    12     8     9   ar
    13     9    10   ar
    14    10    22    1
    15    22    23    1
    16    23    24   ar
    17    24    25   ar
    18    25    26   ar
    19    26    27   ar
    20    27    29    1
    21    29    30    1
    22    30    31    1
    23    30    32    1
    24    30    33    1
    25    27    28   ar
    26    10    11   ar
    27    11    12    1
    28    12    13    1
    29    13    14    1
    30    18    19   ar
    31    19    20   ar
    32    20    21   ar
    33    21    16   ar
    34     6     1   ar
    35    11     7   ar
    36    14     4    1
    37    28    23   ar
@<TRIPOS>MOLECULE
*****
 33 37 0 0 0
SMALL
GASTEIGER

@<TRIPOS>ATOM
      1 C           6.6188   -3.6573   30.0068 C.ar    1  UNL1        0.0004
      2 C           6.9956   -4.9254   30.7137 C.ar    1  UNL1        0.0031
      3 C           7.4547   -6.1157   29.9249 C.ar    1  UNL1        0.0370
      4 C           7.5371   -6.0379   28.4292 C.ar    1  UNL1        0.1415
      5 C           7.1603   -4.7698   27.7223 C.ar    1  UNL1        0.0699
      6 C           6.7011   -3.5794   28.5111 C.ar    1  UNL1        0.0061
      7 C           7.1698   -4.4812   26.2504 C.ar    1  UNL1        0.1718
      8 N           6.7665   -3.1606   25.6645 N.ar    1  UNL1       -0.1258
      9 N           6.9059   -3.2528   24.1738 N.ar    1  UNL1       -0.0913
     10 C           7.3953   -4.6304   23.8385 C.ar    1  UNL1        0.3248
     11 N           7.5585   -5.3897   25.1218 N.ar    1  UNL1       -0.2613
     12 C           8.0336   -6.8109   25.1864 C.3     1  UNL1        0.1592
     13 C           8.2375   -7.6748   26.3955 C.3     1  UNL1        0.2299
     14 O           8.0165   -7.3308   27.8388 O.3     1  UNL1       -0.4733
     15 C           4.2861   -1.6659   34.2013 C.3     1  UNL1        0.0521
     16 C           4.9932   -1.4712   32.8929 C.ar    1  UNL1        0.0594
     17 C           5.4524   -2.6616   32.1041 C.ar    1  UNL1        0.0147
     18 C           6.1595   -2.4669   30.7956 C.ar    1  UNL1        0.0027
     19 C           6.4075   -1.0818   30.2759 C.ar    1  UNL1        0.0207
     20 C           5.9483    0.1086   31.0647 C.ar    1  UNL1        0.0984
     21 N           5.2412   -0.0861   32.3732 N.ar    1  UNL1       -0.2481
     22 O           7.6730   -5.1564   22.4614 O.3     1  UNL1       -0.4223
     23 C           7.5765   -4.2426   21.2758 C.ar    1  UNL1        0.1517
     24 C           8.8214   -3.6622   20.6730 C.ar    1  UNL1        0.0378
     25 C           8.7248   -2.7483   19.4874 C.ar    1  UNL1        0.0062
     26 C           7.3835   -2.4149   18.9047 C.ar    1  UNL1        0.0374
     27 C           6.1386   -2.9954   19.5075 C.ar    1  UNL1        0.1499
     28 C           6.2352   -3.9092   20.6931 C.ar    1  UNL1        0.0747
     29 O           4.7973   -2.6620   18.9248 O.3     1  UNL1       -0.4044
     30 C           3.6842   -3.6660   18.9819 C.3     1  UNL1        0.5753
     31 F           2.5713   -4.6701   19.0389 F       1  UNL1       -0.1328
     32 F           2.8358   -2.6829   19.7324 F       1  UNL1       -0.1328
     33 F           4.5328   -4.6492   18.2313 F       1  UNL1       -0.1328
@<TRIPOS>BOND
     1    15    16    1
     2    16    17   ar
     3    17    18   ar
     4    18     1    1
     5     1     2   ar
     6     2     3   ar
     7     3     4   ar
     8     4     5   ar
     9     5     6   ar
    10     5     7    1
    11     7     8   ar
    12     8     9   ar
    13     9    10   ar
    14    10    22    1
    15    22    23    1
    16    23    24   ar
    17    24    25   ar
    18    25    26   ar
    19    26    27   ar
    20    27    29    1
    21    29    30    1
    22    30    31    1
    23    30    32    1
    24    30    33    1
    25    27    28   ar
    26    10    11   ar
    27    11    12    1
    28    12    13    1
    29    13    14    1
    30    18    19   ar
    31    19    20   ar
    32    20    21   ar
    33    21    16   ar
    34     6     1   ar
    35    11     7   ar
    36    14     4    1
    37    28    23   ar
@<TRIPOS>MOLECULE
*****
 33 37 0 0 0
SMALL
GASTEIGER

@<TRIPOS>ATOM
      1 C          -1.7599    2.8835   25.7497 C.ar    1  UNL1        0.0004
      2 C          -1.3158    2.2823   27.0502 C.ar    1  UNL1        0.0031
      3 C           0.0287    1.6252   27.1523 C.ar    1  UNL1        0.0370
      4 C           0.9292    1.5694   25.9540 C.ar    1  UNL1        0.1415
      5 C           0.4851    2.1706   24.6535 C.ar    1  UNL1        0.0699
      6 C          -0.8594    2.8277   24.5513 C.ar    1  UNL1        0.0061
      7 C           1.2216    2.2237   23.3478 C.ar    1  UNL1        0.1718
      8 N           0.6632    2.8594   22.1093 N.ar    1  UNL1       -0.1258
      9 N           1.6805    2.7172   21.0162 N.ar    1  UNL1       -0.0913
     10 C           2.8677    1.9937   21.5792 C.ar    1  UNL1        0.3248
     11 N           2.5841    1.6886   23.0202 N.ar    1  UNL1       -0.2613
     12 C           3.5466    0.9684   23.9173 C.3     1  UNL1        0.1592
     13 C           3.3844    0.6052   25.3636 C.3     1  UNL1        0.2299
     14 O           2.2194    0.8727   26.2700 O.3     1  UNL1       -0.4733
     15 C          -6.0173    4.0162   22.9943 C.3     1  UNL1        0.0521
     16 C          -5.2332    4.1070   24.2698 C.ar    1  UNL1        0.0594
     17 C          -3.8886    3.4499   24.3720 C.ar    1  UNL1        0.0147
     18 C          -3.1045    3.5406   25.6475 C.ar    1  UNL1        0.0027
     19 C          -3.6649    4.2884   26.8208 C.ar    1  UNL1        0.0207
     20 C          -5.0094    4.9455   26.7187 C.ar    1  UNL1        0.0984
     21 N          -5.7936    4.8548   25.4432 N.ar    1  UNL1       -0.2481
     22 O           4.1188    1.6376   20.8322 O.3     1  UNL1       -0.4223
     23 C           4.0990    0.5303   19.8205 C.ar    1  UNL1        0.1517
     24 C           3.4976    0.7626   18.4662 C.ar    1  UNL1        0.0378
     25 C           3.4779   -0.3448   17.4545 C.ar    1  UNL1        0.0062
     26 C           4.0595   -1.6842   17.7973 C.ar    1  UNL1        0.0374
     27 C           4.6609   -1.9165   19.1517 C.ar    1  UNL1        0.1499
     28 C           4.6806   -0.8091   20.1633 C.ar    1  UNL1        0.0747
     29 O           5.2425   -3.2559   19.4944 O.3     1  UNL1       -0.4044
     30 C           4.3430   -4.4459   19.6526 C.3     1  UNL1        0.5753
     31 F           3.4435   -5.6358   19.8109 F       1  UNL1       -0.1328
     32 F           4.7039   -4.9026   18.2703 F       1  UNL1       -0.1328
     33 F           3.9820   -3.9892   21.0351 F       1  UNL1       -0.1328
@<TRIPOS>BOND
     1    15    16    1
     2    16    17   ar
     3    17    18   ar
     4    18     1    1
     5     1     2   ar
     6     2     3   ar
     7     3     4   ar
     8     4     5   ar
     9     5     6   ar
    10     5     7    1
    11     7     8   ar
    12     8     9   ar
    13     9    10   ar
    14    10    22    1
    15    22    23    1
    16    23    24   ar
    17    24    25   ar
    18    25    26   ar
    19    26    27   ar
    20    27    29    1
    21    29    30    1
    22    30    31    1
    23    30    32    1
    24    30    33    1
    25    27    28   ar
    26    10    11   ar
    27    11    12    1
    28    12    13    1
    29    13    14    1
    30    18    19   ar
    31    19    20   ar
    32    20    21   ar
    33    21    16   ar
    34     6     1   ar
    35    11     7   ar
    36    14     4    1
    37    28    23   ar
@<TRIPOS>MOLECULE
*****
 33 37 0 0 0
SMALL
GASTEIGER

@<TRIPOS>ATOM
      1 C           3.2442   -1.0281   22.3163 C.ar    1  UNL1        0.0004
      2 C           3.1003   -0.7542   23.7840 C.ar    1  UNL1        0.0031
      3 C           2.2182    0.3637   24.2553 C.ar    1  UNL1        0.0370
      4 C           1.4800    1.2077   23.2589 C.ar    1  UNL1        0.1415
      5 C           1.6239    0.9337   21.7912 C.ar    1  UNL1        0.0699
      6 C           2.5060   -0.1842   21.3199 C.ar    1  UNL1        0.0061
      7 C           0.9822    1.6484   20.6391 C.ar    1  UNL1        0.1718
      8 N           1.2093    1.2741   19.2044 N.ar    1  UNL1       -0.1258
      9 N           0.4056    2.2079   18.3488 N.ar    1  UNL1       -0.0913
     10 C          -0.3182    3.1594   19.2547 C.ar    1  UNL1        0.3248
     11 N           0.0381    2.8137   20.6701 N.ar    1  UNL1       -0.2613
     12 C          -0.4974    3.5520   21.8610 C.3     1  UNL1        0.1592
     13 C          -0.2211    3.3074   23.3149 C.3     1  UNL1        0.2299
     14 O           0.6589    2.2640   23.9370 O.3     1  UNL1       -0.4733
     15 C           4.4874   -4.5705   18.7237 C.3     1  UNL1        0.0521
     16 C           4.7479   -3.9173   20.0486 C.ar    1  UNL1        0.0594
     17 C           3.8658   -2.7993   20.5200 C.ar    1  UNL1        0.0147
     18 C           4.1263   -2.1461   21.8449 C.ar    1  UNL1        0.0027
     19 C           5.2689   -2.6107   22.6984 C.ar    1  UNL1        0.0207
     20 C           6.1510   -3.7286   22.2271 C.ar    1  UNL1        0.0984
     21 N           5.8905   -4.3819   20.9022 N.ar    1  UNL1       -0.2481
     22 O          -1.2370    4.2630   18.8211 O.3     1  UNL1       -0.4223
     23 C          -2.7165    4.0248   18.7552 C.ar    1  UNL1        0.1517
     24 C          -3.4089    3.9708   17.4257 C.ar    1  UNL1        0.0378
     25 C          -4.8885    3.7326   17.3598 C.ar    1  UNL1        0.0062
     26 C          -5.6754    3.5484   18.6234 C.ar    1  UNL1        0.0374
     27 C          -4.9830    3.6024   19.9529 C.ar    1  UNL1        0.1499
     28 C          -3.5035    3.8406   20.0188 C.ar    1  UNL1        0.0747
     29 O          -5.7700    3.4182   21.2165 O.3     1  UNL1       -0.4044
     30 C          -5.2509    3.9712   22.5107 C.3     1  UNL1        0.5753
     31 F          -4.7318    4.5240   23.8049 F       1  UNL1       -0.1328
     32 F          -5.6401    5.3531   22.0764 F       1  UNL1       -0.1328
     33 F          -4.8617    2.5892   22.9450 F       1  UNL1       -0.1328
@<TRIPOS>BOND
     1    15    16    1
     2    16    17   ar
     3    17    18   ar
     4    18     1    1
     5     1     2   ar
     6     2     3   ar
     7     3     4   ar
     8     4     5   ar
     9     5     6   ar
    10     5     7    1
    11     7     8   ar
    12     8     9   ar
    13     9    10   ar
    14    10    22    1
    15    22    23    1
    16    23    24   ar
    17    24    25   ar
    18    25    26   ar
    19    26    27   ar
    20    27    29    1
    21    29    30    1
    22    30    31    1
    23    30    32    1
    24    30    33    1
    25    27    28   ar
    26    10    11   ar
    27    11    12    1
    28    12    13    1
    29    13    14    1
    30    18    19   ar
    31    19    20   ar
    32    20    21   ar
    33    21    16   ar
    34     6     1   ar
    35    11     7   ar
    36    14     4    1
    37    28    23   ar
@<TRIPOS>MOLECULE
*****
 33 37 0 0 0
SMALL
GASTEIGER

@<TRIPOS>ATOM
      1 C           3.4966   -1.7184   21.7728 C.ar    1  UNL1        0.0004
      2 C           4.0018   -2.5772   20.6515 C.ar    1  UNL1        0.0031
      3 C           5.1323   -3.5337   20.8902 C.ar    1  UNL1        0.0370
      4 C           5.7575   -3.6315   22.2502 C.ar    1  UNL1        0.1415
      5 C           5.2524   -2.7728   23.3714 C.ar    1  UNL1        0.0699
      6 C           4.1219   -1.8162   23.1328 C.ar    1  UNL1        0.0061
      7 C           5.7299   -2.7133   24.7921 C.ar    1  UNL1        0.1718
      8 N           5.1359   -1.8034   25.8262 N.ar    1  UNL1       -0.1258
      9 N           5.8694   -2.0257   27.1156 N.ar    1  UNL1       -0.0913
     10 C           6.9168   -3.0729   26.8784 C.ar    1  UNL1        0.3248
     11 N           6.8306   -3.4979   25.4424 N.ar    1  UNL1       -0.2613
     12 C           7.7256   -4.5358   24.8327 C.3     1  UNL1        0.1592
     13 C           7.7410   -5.0454   23.4220 C.3     1  UNL1        0.2299
     14 O           6.8651   -4.6429   22.2727 O.3     1  UNL1       -0.4733
     15 C           0.4518    2.1529   23.4289 C.3     1  UNL1        0.0521
     16 C           0.8437    1.1739   22.3622 C.ar    1  UNL1        0.0594
     17 C           1.9742    0.2172   22.6009 C.ar    1  UNL1        0.0147
     18 C           2.3661   -0.7618   21.5342 C.ar    1  UNL1        0.0027
     19 C           1.6276   -0.7842   20.2288 C.ar    1  UNL1        0.0207
     20 C           0.4971    0.1723   19.9901 C.ar    1  UNL1        0.0984
     21 N           0.1052    1.1514   21.0568 N.ar    1  UNL1       -0.2481
     22 O           7.8811   -3.6022   27.8982 O.3     1  UNL1       -0.4223
     23 C           7.4363   -3.8064   29.3161 C.ar    1  UNL1        0.1517
     24 C           7.4027   -5.1876   29.9001 C.ar    1  UNL1        0.0378
     25 C           6.9579   -5.3917   31.3181 C.ar    1  UNL1        0.0062
     26 C           6.5467   -4.2147   32.1519 C.ar    1  UNL1        0.0374
     27 C           6.5802   -2.8334   31.5679 C.ar    1  UNL1        0.1499
     28 C           7.0251   -2.6293   30.1499 C.ar    1  UNL1        0.0747
     29 O           6.1690   -1.6563   32.4017 O.3     1  UNL1       -0.4044
     30 C           5.0506   -1.7928   33.3920 C.3     1  UNL1        0.5753
     31 F           3.9322   -1.9293   34.3822 F       1  UNL1       -0.1328
     32 F           5.9372   -1.2422   34.4693 F       1  UNL1       -0.1328
     33 F           4.1640   -2.3434   32.3146 F       1  UNL1       -0.1328
@<TRIPOS>BOND
     1    15    16    1
     2    16    17   ar
     3    17    18   ar
     4    18     1    1
     5     1     2   ar
     6     2     3   ar
     7     3     4   ar
     8     4     5   ar
     9     5     6   ar
    10     5     7    1
    11     7     8   ar
    12     8     9   ar
    13     9    10   ar
    14    10    22    1
    15    22    23    1
    16    23    24   ar
    17    24    25   ar
    18    25    26   ar
    19    26    27   ar
    20    27    29    1
    21    29    30    1
    22    30    31    1
    23    30    32    1
    24    30    33    1
    25    27    28   ar
    26    10    11   ar
    27    11    12    1
    28    12    13    1
    29    13    14    1
    30    18    19   ar
    31    19    20   ar
    32    20    21   ar
    33    21    16   ar
    34     6     1   ar
    35    11     7   ar
    36    14     4    1
    37    28    23   ar
@<TRIPOS>MOLECULE
*****
 33 37 0 0 0
SMALL
GASTEIGER

@<TRIPOS>ATOM
      1 C           0.7784    1.5851   27.6900 C.ar    1  UNL1        0.0004
      2 C          -0.6392    2.0507   27.5364 C.ar    1  UNL1        0.0031
      3 C          -1.1527    2.4580   26.1872 C.ar    1  UNL1        0.0370
      4 C          -0.2487    2.3996   24.9916 C.ar    1  UNL1        0.1415
      5 C           1.1689    1.9339   25.1453 C.ar    1  UNL1        0.0699
      6 C           1.6824    1.5267   26.4945 C.ar    1  UNL1        0.0061
      7 C           2.2290    1.8010   24.0924 C.ar    1  UNL1        0.1718
      8 N           3.6206    1.3192   24.3771 N.ar    1  UNL1       -0.1258
      9 N           4.3851    1.3214   23.0865 N.ar    1  UNL1       -0.0913
     10 C           3.4658    1.8046   22.0042 C.ar    1  UNL1        0.3248
     11 N           2.1333    2.1010   22.6258 N.ar    1  UNL1       -0.2613
     12 C           0.9539    2.6080   21.8499 C.3     1  UNL1        0.1592
     13 C          -0.4211    2.9401   22.3489 C.3     1  UNL1        0.2299
     14 O          -0.9563    2.8474   23.7471 O.3     1  UNL1       -0.4733
     15 C           1.4373    2.5895   32.7454 C.3     1  UNL1        0.0521
     16 C           1.6214    1.6800   31.5670 C.ar    1  UNL1        0.0594
     17 C           1.1078    2.0873   30.2177 C.ar    1  UNL1        0.0147
     18 C           1.2920    1.1778   29.0393 C.ar    1  UNL1        0.0027
     19 C           1.9897   -0.1390   29.2100 C.ar    1  UNL1        0.0207
     20 C           2.5033   -0.5463   30.5591 C.ar    1  UNL1        0.0984
     21 N           2.3192    0.3632   31.7377 N.ar    1  UNL1       -0.2481
     22 O           3.8175    1.9634   20.5546 O.3     1  UNL1       -0.4223
     23 C           3.8776    0.7601   19.6612 C.ar    1  UNL1        0.1517
     24 C           3.9754    0.9339   18.1745 C.ar    1  UNL1        0.0378
     25 C           4.0356   -0.2695   17.2811 C.ar    1  UNL1        0.0062
     26 C           3.9980   -1.6467   17.8743 C.ar    1  UNL1        0.0374
     27 C           3.9002   -1.8205   19.3610 C.ar    1  UNL1        0.1499
     28 C           3.8400   -0.6171   20.2544 C.ar    1  UNL1        0.0747
     29 O           3.8626   -3.1976   19.9542 O.3     1  UNL1       -0.4044
     30 C           4.2867   -4.3796   19.1337 C.3     1  UNL1        0.5753
     31 F           4.7109   -5.5616   18.3133 F       1  UNL1       -0.1328
     32 F           2.8521   -4.6622   18.7992 F       1  UNL1       -0.1328
     33 F           5.7213   -4.0970   19.4683 F       1  UNL1       -0.1328
@<TRIPOS>BOND
     1    15    16    1
     2    16    17   ar
     3    17    18   ar
     4    18     1    1
     5     1     2   ar
     6     2     3   ar
     7     3     4   ar
     8     4     5   ar
     9     5     6   ar
    10     5     7    1
    11     7     8   ar
    12     8     9   ar
    13     9    10   ar
    14    10    22    1
    15    22    23    1
    16    23    24   ar
    17    24    25   ar
    18    25    26   ar
    19    26    27   ar
    20    27    29    1
    21    29    30    1
    22    30    31    1
    23    30    32    1
    24    30    33    1
    25    27    28   ar
    26    10    11   ar
    27    11    12    1
    28    12    13    1
    29    13    14    1
    30    18    19   ar
    31    19    20   ar
    32    20    21   ar
    33    21    16   ar
    34     6     1   ar
    35    11     7   ar
    36    14     4    1
    37    28    23   ar
@<TRIPOS>MOLECULE
*****
 33 37 0 0 0
SMALL
GASTEIGER

@<TRIPOS>ATOM
      1 C           2.5173   -0.1081   19.3753 C.ar    1  UNL1        0.0004
      2 C           1.7947    0.5974   18.2663 C.ar    1  UNL1        0.0031
      3 C           0.7211    1.5949   18.5860 C.ar    1  UNL1        0.0370
      4 C           0.3701    1.8869   20.0148 C.ar    1  UNL1        0.1415
      5 C           1.0927    1.1814   21.1239 C.ar    1  UNL1        0.0699
      6 C           2.1663    0.1839   20.8041 C.ar    1  UNL1        0.0061
      7 C           0.9002    1.3236   22.6046 C.ar    1  UNL1        0.1718
      8 N           1.6936    0.5542   23.6188 N.ar    1  UNL1       -0.1258
      9 N           1.2212    0.9615   24.9830 N.ar    1  UNL1       -0.0913
     10 C           0.1359    1.9826   24.8120 C.ar    1  UNL1        0.3248
     11 N          -0.0626    2.2064   23.3421 N.ar    1  UNL1       -0.2613
     12 C          -1.0705    3.1651   22.7809 C.3     1  UNL1        0.1592
     13 C          -1.3647    3.4778   21.3437 C.3     1  UNL1        0.2299
     14 O          -0.7235    2.9089   20.1126 O.3     1  UNL1       -0.4733
     15 C           4.1670   -5.0308   19.1617 C.3     1  UNL1        0.0521
     16 C           4.4158   -3.5670   18.9488 C.ar    1  UNL1        0.0594
     17 C           3.3421   -2.5695   19.2685 C.ar    1  UNL1        0.0147
     18 C           3.5909   -1.1057   19.0556 C.ar    1  UNL1        0.0027
     19 C           4.9134   -0.6394   18.5229 C.ar    1  UNL1        0.0207
     20 C           5.9870   -1.6369   18.2032 C.ar    1  UNL1        0.0984
     21 N           5.7383   -3.1007   18.4161 N.ar    1  UNL1       -0.2481
     22 O          -0.6185    2.6609   25.9169 O.3     1  UNL1       -0.4223
     23 C          -0.0600    2.6730   27.3090 C.ar    1  UNL1        0.1517
     24 C           0.2620    3.9771   27.9766 C.ar    1  UNL1        0.0378
     25 C           0.8204    3.9891   29.3688 C.ar    1  UNL1        0.0062
     26 C           1.0568    2.6972   30.0932 C.ar    1  UNL1        0.0374
     27 C           0.7348    1.3931   29.4256 C.ar    1  UNL1        0.1499
     28 C           0.1763    1.3810   28.0335 C.ar    1  UNL1        0.0747
     29 O           0.9712    0.1011   30.1501 O.3     1  UNL1       -0.4044
     30 C           2.3589   -0.4595   30.2505 C.3     1  UNL1        0.5753
     31 F           3.7466   -1.0200   30.3509 F       1  UNL1       -0.1328
     32 F           2.2377   -1.0086   28.8599 F       1  UNL1       -0.1328
     33 F           2.4801    0.0897   31.6410 F       1  UNL1       -0.1328
@<TRIPOS>BOND
     1    15    16    1
     2    16    17   ar
     3    17    18   ar
     4    18     1    1
     5     1     2   ar
     6     2     3   ar
     7     3     4   ar
     8     4     5   ar
     9     5     6   ar
    10     5     7    1
    11     7     8   ar
    12     8     9   ar
    13     9    10   ar
    14    10    22    1
    15    22    23    1
    16    23    24   ar
    17    24    25   ar
    18    25    26   ar
    19    26    27   ar
    20    27    29    1
    21    29    30    1
    22    30    31    1
    23    30    32    1
    24    30    33    1
    25    27    28   ar
    26    10    11   ar
    27    11    12    1
    28    12    13    1
    29    13    14    1
    30    18    19   ar
    31    19    20   ar
    32    20    21   ar
    33    21    16   ar
    34     6     1   ar
    35    11     7   ar
    36    14     4    1
    37    28    23   ar
