@<TRIPOS>MOLECULE
*****
 26 28 0 0 0
SMALL
GASTEIGER

@<TRIPOS>ATOM
      1 C          -8.3543  -18.8865   21.2631 C.2     1  UNL1        0.2252
      2 O          -8.2315  -18.9183   19.7686 O.2     1  UNL1       -0.2750
      3 N          -7.3920  -19.6638   22.1116 N.am    1  UNL1       -0.3004
      4 H          -7.4727  -19.6429   23.0925 H       1  UNL1        0.1497
      5 C          -9.4396  -18.0773   21.9094 C.3     1  UNL1        0.1154
      6 C         -10.7802  -19.3787   22.6435 C.3     1  UNL1        0.0335
      7 C          -9.8730  -18.3881   23.3113 C.3     1  UNL1        0.1377
      8 C          -8.8753  -17.3326   23.6860 C.3     1  UNL1        0.0613
      9 C          -8.8817  -17.1981   25.1800 C.3     1  UNL1        0.1290
     10 C          -8.9980  -17.1759   26.6753 C.3     1  UNL1        0.0305
     11 C          -8.1514  -16.2343   27.4794 C.3     1  UNL1        0.0025
     12 C          -7.1885  -15.3150   26.7883 C.3     1  UNL1        0.0002
     13 C          -7.0722  -15.3373   25.2930 C.3     1  UNL1        0.0025
     14 C          -7.9188  -16.2788   24.4889 C.3     1  UNL1        0.0305
     15 O          -9.8835  -18.1705   25.7286 O.3     1  UNL1       -0.2256
     16 O         -10.4962  -18.9060   24.5737 O.3     1  UNL1       -0.2251
     17 C          -6.3068  -20.4730   21.4653 C.3     1  UNL1        0.1163
     18 C          -4.9748  -19.8465   21.1771 C.ar    1  UNL1       -0.0026
     19 C          -4.4812  -19.7505   19.7638 C.ar    1  UNL1       -0.0026
     20 C          -3.1491  -19.1240   19.4756 C.ar    1  UNL1        0.0009
     21 C          -2.3106  -18.5937   20.6006 C.ar    1  UNL1        0.0140
     22 C          -2.8041  -18.6898   22.0137 C.ar    1  UNL1        0.0009
     23 C          -4.1362  -19.3162   22.3020 C.ar    1  UNL1       -0.0026
     24 C          -0.9784  -17.9672   20.3123 C.2     1  UNL1        0.0729
     25 O           0.1504  -18.8095   19.7962 O.co2   1  UNL1       -0.5446
     26 O          -0.7753  -16.4987   20.5400 O.co2   1  UNL1       -0.5446
@<TRIPOS>UNITY_ATOM_ATTR
25 1
charge -1
@<TRIPOS>BOND
     1     6     7    1
     2     7     5    1
     3     5     1    1
     4     1     2    2
     5     1     3   am
     6     3    17    1
     7    17    18    1
     8    18    19   ar
     9    19    20   ar
    10    20    21   ar
    11    21    24    1
    12    24    25   ar
    13    24    26   ar
    14    21    22   ar
    15    22    23   ar
    16     7     8    1
    17     8     9    1
    18     9    10    1
    19    10    11    1
    20    11    12    1
    21    12    13    1
    22    13    14    1
    23     9    15    1
    24    15    16    1
    25    16     7    1
    26    23    18   ar
    27    14     9    1
    28     3     4    1
@<TRIPOS>MOLECULE
*****
 26 28 0 0 0
SMALL
GASTEIGER

@<TRIPOS>ATOM
      1 C          -6.6517  -15.6607   24.5259 C.2     1  UNL1        0.2252
      2 O          -5.9887  -14.5707   25.3146 O.2     1  UNL1       -0.2750
      3 N          -5.8221  -16.7334   23.8845 N.am    1  UNL1       -0.3004
      4 H          -6.2573  -17.4488   23.3669 H       1  UNL1        0.1497
      5 C          -8.1444  -15.6783   24.3785 C.3     1  UNL1        0.1154
      6 C          -8.5969  -16.3781   26.2048 C.3     1  UNL1        0.0335
      7 C          -8.9284  -16.8750   24.8289 C.3     1  UNL1        0.1377
      8 C          -9.0961  -17.1218   23.3588 C.3     1  UNL1        0.0613
      9 C          -9.9145  -18.3673   23.1882 C.3     1  UNL1        0.1290
     10 C         -10.7377  -19.6211   23.1744 C.3     1  UNL1        0.0305
     11 C         -11.1462  -20.2357   21.8685 C.3     1  UNL1        0.0025
     12 C         -10.7314  -19.5965   20.5764 C.3     1  UNL1        0.0002
     13 C          -9.9082  -18.3427   20.5903 C.3     1  UNL1        0.0025
     14 C          -9.4997  -17.7281   21.8962 C.3     1  UNL1        0.0305
     15 O         -10.2526  -18.8903   24.5529 O.3     1  UNL1       -0.2256
     16 O          -9.6432  -17.9680   25.5669 O.3     1  UNL1       -0.2251
     17 C          -4.3295  -16.7159   24.0320 C.3     1  UNL1        0.1163
     18 C          -3.4573  -17.1209   22.8807 C.ar    1  UNL1       -0.0026
     19 C          -2.5895  -16.1025   22.2026 C.ar    1  UNL1       -0.0026
     20 C          -1.7174  -16.5076   21.0514 C.ar    1  UNL1        0.0009
     21 C          -1.7131  -17.9310   20.5783 C.ar    1  UNL1        0.0140
     22 C          -2.5808  -18.9493   21.2564 C.ar    1  UNL1        0.0009
     23 C          -3.4530  -18.5443   22.4076 C.ar    1  UNL1       -0.0026
     24 C          -0.8409  -18.3360   19.4270 C.2     1  UNL1        0.0729
     25 O          -1.2881  -18.0748   18.0193 O.co2   1  UNL1       -0.5446
     26 O           0.4783  -19.0021   19.6836 O.co2   1  UNL1       -0.5446
@<TRIPOS>UNITY_ATOM_ATTR
25 1
charge -1
@<TRIPOS>BOND
     1     6     7    1
     2     7     5    1
     3     5     1    1
     4     1     2    2
     5     1     3   am
     6     3    17    1
     7    17    18    1
     8    18    19   ar
     9    19    20   ar
    10    20    21   ar
    11    21    24    1
    12    24    25   ar
    13    24    26   ar
    14    21    22   ar
    15    22    23   ar
    16     7     8    1
    17     8     9    1
    18     9    10    1
    19    10    11    1
    20    11    12    1
    21    12    13    1
    22    13    14    1
    23     9    15    1
    24    15    16    1
    25    16     7    1
    26    23    18   ar
    27    14     9    1
    28     3     4    1
@<TRIPOS>MOLECULE
*****
 26 28 0 0 0
SMALL
GASTEIGER

@<TRIPOS>ATOM
      1 C          -7.7455  -18.3519   20.8772 C.2     1  UNL1        0.2252
      2 O          -7.3008  -17.1338   21.6311 O.2     1  UNL1       -0.2750
      3 N          -9.1848  -18.5068   20.4841 N.am    1  UNL1       -0.3004
      4 H          -9.4766  -19.3063   19.9892 H       1  UNL1        0.1497
      5 C          -6.7508  -19.4152   20.5163 C.3     1  UNL1        0.1154
      6 C          -6.6169  -20.3233   22.3015 C.3     1  UNL1        0.0335
      7 C          -5.5841  -19.6880   21.4185 C.3     1  UNL1        0.1377
      8 C          -4.7952  -18.9956   20.3470 C.3     1  UNL1        0.0613
      9 C          -3.3566  -18.9733   20.7716 C.3     1  UNL1        0.1290
     10 C          -1.9639  -19.0264   21.3260 C.3     1  UNL1        0.0305
     11 C          -0.8255  -18.4302   20.5525 C.3     1  UNL1        0.0025
     12 C          -1.0797  -17.7809   19.2244 C.3     1  UNL1        0.0002
     13 C          -2.4725  -17.7277   18.6700 C.3     1  UNL1        0.0025
     14 C          -3.6109  -18.3239   19.4435 C.3     1  UNL1        0.0305
     15 O          -3.2565  -19.6519   22.1056 O.3     1  UNL1       -0.2256
     16 O          -4.6332  -20.0936   22.5055 O.3     1  UNL1       -0.2251
     17 C         -10.1793  -17.4435   20.8449 C.3     1  UNL1        0.1163
     18 C         -11.2334  -17.7212   21.8753 C.ar    1  UNL1       -0.0026
     19 C         -10.8414  -18.2280   23.2316 C.ar    1  UNL1       -0.0026
     20 C         -11.8955  -18.5057   24.2620 C.ar    1  UNL1        0.0009
     21 C         -13.3416  -18.2766   23.9362 C.ar    1  UNL1        0.0140
     22 C         -13.7337  -17.7697   22.5800 C.ar    1  UNL1        0.0009
     23 C         -12.6796  -17.4920   21.5495 C.ar    1  UNL1       -0.0026
     24 C         -14.3957  -18.5543   24.9667 C.2     1  UNL1        0.0729
     25 O         -15.8008  -18.8587   24.5390 O.co2   1  UNL1       -0.5446
     26 O         -14.0446  -18.5275   26.4247 O.co2   1  UNL1       -0.5446
@<TRIPOS>UNITY_ATOM_ATTR
25 1
charge -1
@<TRIPOS>BOND
     1     6     7    1
     2     7     5    1
     3     5     1    1
     4     1     2    2
     5     1     3   am
     6     3    17    1
     7    17    18    1
     8    18    19   ar
     9    19    20   ar
    10    20    21   ar
    11    21    24    1
    12    24    25   ar
    13    24    26   ar
    14    21    22   ar
    15    22    23   ar
    16     7     8    1
    17     8     9    1
    18     9    10    1
    19    10    11    1
    20    11    12    1
    21    12    13    1
    22    13    14    1
    23     9    15    1
    24    15    16    1
    25    16     7    1
    26    23    18   ar
    27    14     9    1
    28     3     4    1
@<TRIPOS>MOLECULE
*****
 26 28 0 0 0
SMALL
GASTEIGER

@<TRIPOS>ATOM
      1 C          -7.2727  -19.8837   19.8803 C.2     1  UNL1        0.2252
      2 O          -7.4962  -18.4291   20.1701 O.2     1  UNL1       -0.2750
      3 N          -8.3398  -20.6845   19.1946 N.am    1  UNL1       -0.3004
      4 H          -8.1931  -21.6392   19.0044 H       1  UNL1        0.1497
      5 C          -5.9820  -20.5377   20.2763 C.3     1  UNL1        0.1154
      6 C          -6.2482  -20.5832   22.2654 C.3     1  UNL1        0.0335
      7 C          -5.1748  -19.9783   21.4099 C.3     1  UNL1        0.1377
      8 C          -4.2701  -19.4904   20.3175 C.3     1  UNL1        0.0613
      9 C          -3.1279  -18.7559   20.9548 C.3     1  UNL1        0.1290
     10 C          -2.0528  -18.0541   21.7304 C.3     1  UNL1        0.0305
     11 C          -0.9122  -17.4005   21.0081 C.3     1  UNL1        0.0025
     12 C          -0.8467  -17.4486   19.5103 C.3     1  UNL1        0.0002
     13 C          -1.9218  -18.1504   18.7348 C.3     1  UNL1        0.0025
     14 C          -3.0624  -18.8040   19.4570 C.3     1  UNL1        0.0305
     15 O          -3.3268  -18.7898   22.4412 O.3     1  UNL1       -0.2256
     16 O          -4.5918  -19.5454   22.7225 O.3     1  UNL1       -0.2251
     17 C          -9.6303  -20.0305   18.7987 C.3     1  UNL1        0.1163
     18 C         -10.4464  -19.3002   19.8237 C.ar    1  UNL1       -0.0026
     19 C         -10.7255  -19.9370   21.1528 C.ar    1  UNL1       -0.0026
     20 C         -11.5415  -19.2067   22.1779 C.ar    1  UNL1        0.0009
     21 C         -12.0784  -17.8395   21.8738 C.ar    1  UNL1        0.0140
     22 C         -11.7993  -17.2027   20.5448 C.ar    1  UNL1        0.0009
     23 C         -10.9833  -17.9330   19.5196 C.ar    1  UNL1       -0.0026
     24 C         -12.8945  -17.1092   22.8989 C.2     1  UNL1        0.0729
     25 O         -13.7761  -17.8752   23.8402 O.co2   1  UNL1       -0.5446
     26 O         -12.8288  -15.6130   22.9826 O.co2   1  UNL1       -0.5446
@<TRIPOS>UNITY_ATOM_ATTR
25 1
charge -1
@<TRIPOS>BOND
     1     6     7    1
     2     7     5    1
     3     5     1    1
     4     1     2    2
     5     1     3   am
     6     3    17    1
     7    17    18    1
     8    18    19   ar
     9    19    20   ar
    10    20    21   ar
    11    21    24    1
    12    24    25   ar
    13    24    26   ar
    14    21    22   ar
    15    22    23   ar
    16     7     8    1
    17     8     9    1
    18     9    10    1
    19    10    11    1
    20    11    12    1
    21    12    13    1
    22    13    14    1
    23     9    15    1
    24    15    16    1
    25    16     7    1
    26    23    18   ar
    27    14     9    1
    28     3     4    1
@<TRIPOS>MOLECULE
*****
 26 28 0 0 0
SMALL
GASTEIGER

@<TRIPOS>ATOM
      1 C          -7.4374  -15.6418   25.2441 C.2     1  UNL1        0.2252
      2 O          -6.7092  -15.2933   26.5082 O.2     1  UNL1       -0.2750
      3 N          -6.7005  -15.6718   23.9379 N.am    1  UNL1       -0.3004
      4 H          -7.1785  -15.9006   23.1081 H       1  UNL1        0.1497
      5 C          -8.9027  -15.9603   25.2860 C.3     1  UNL1        0.1154
      6 C          -9.0075  -17.3015   26.7759 C.3     1  UNL1        0.0335
      7 C          -9.3590  -17.3887   25.3203 C.3     1  UNL1        0.1377
      8 C          -9.6151  -17.1773   23.8575 C.3     1  UNL1        0.0613
      9 C         -10.1562  -18.4570   23.2920 C.3     1  UNL1        0.1290
     10 C         -10.6846  -19.7963   22.8712 C.3     1  UNL1        0.0305
     11 C         -11.0782  -20.0322   21.4432 C.3     1  UNL1        0.0025
     12 C         -10.9435  -18.9289   20.4359 C.3     1  UNL1        0.0002
     13 C         -10.4152  -17.5896   20.8567 C.3     1  UNL1        0.0025
     14 C         -10.0215  -17.3537   22.2848 C.3     1  UNL1        0.0305
     15 O         -10.2345  -19.4592   24.4053 O.3     1  UNL1       -0.2256
     16 O          -9.7418  -18.7990   25.6589 O.3     1  UNL1       -0.2251
     17 C          -5.2353  -15.3534   23.8959 C.3     1  UNL1        0.1163
     18 C          -4.2871  -16.2763   23.1894 C.ar    1  UNL1       -0.0026
     19 C          -3.1004  -15.7185   22.4611 C.ar    1  UNL1       -0.0026
     20 C          -2.1522  -16.6414   21.7545 C.ar    1  UNL1        0.0009
     21 C          -2.3908  -18.1221   21.7763 C.ar    1  UNL1        0.0140
     22 C          -3.5774  -18.6799   22.5046 C.ar    1  UNL1        0.0009
     23 C          -4.5257  -17.7570   23.2112 C.ar    1  UNL1       -0.0026
     24 C          -1.4425  -19.0450   21.0697 C.2     1  UNL1        0.0729
     25 O          -0.2572  -18.4868   20.3394 O.co2   1  UNL1       -0.5446
     26 O          -1.6797  -20.5259   21.0936 O.co2   1  UNL1       -0.5446
@<TRIPOS>UNITY_ATOM_ATTR
25 1
charge -1
@<TRIPOS>BOND
     1     6     7    1
     2     7     5    1
     3     5     1    1
     4     1     2    2
     5     1     3   am
     6     3    17    1
     7    17    18    1
     8    18    19   ar
     9    19    20   ar
    10    20    21   ar
    11    21    24    1
    12    24    25   ar
    13    24    26   ar
    14    21    22   ar
    15    22    23   ar
    16     7     8    1
    17     8     9    1
    18     9    10    1
    19    10    11    1
    20    11    12    1
    21    12    13    1
    22    13    14    1
    23     9    15    1
    24    15    16    1
    25    16     7    1
    26    23    18   ar
    27    14     9    1
    28     3     4    1
@<TRIPOS>MOLECULE
*****
 26 28 0 0 0
SMALL
GASTEIGER

@<TRIPOS>ATOM
      1 C          -8.3082  -15.9448   23.1061 C.2     1  UNL1        0.2252
      2 O          -7.9432  -15.2502   21.8278 O.2     1  UNL1       -0.2750
      3 N          -7.2850  -16.1050   24.1913 N.am    1  UNL1       -0.3004
      4 H          -7.5246  -16.5608   25.0304 H       1  UNL1        0.1497
      5 C          -9.6965  -16.4792   23.2995 C.3     1  UNL1        0.1154
      6 C         -11.5426  -16.0591   22.6325 C.3     1  UNL1        0.0335
      7 C         -10.4769  -16.9829   22.1218 C.3     1  UNL1        0.1377
      8 C          -9.2480  -17.8013   21.8572 C.3     1  UNL1        0.0613
      9 C          -9.4917  -18.6178   20.6227 C.3     1  UNL1        0.1290
     10 C          -9.8775  -19.3675   19.3821 C.3     1  UNL1        0.0305
     11 C          -8.9113  -20.3290   18.7560 C.3     1  UNL1        0.0025
     12 C          -7.5594  -20.5407   19.3704 C.3     1  UNL1        0.0002
     13 C          -7.1737  -19.7910   20.6110 C.3     1  UNL1        0.0025
     14 C          -8.1398  -18.8295   21.2371 C.3     1  UNL1        0.0305
     15 O         -10.8713  -18.3040   20.1243 O.3     1  UNL1       -0.2256
     16 O         -11.4802  -17.2935   21.0508 O.3     1  UNL1       -0.2251
     17 C          -5.8968  -15.5706   23.9979 C.3     1  UNL1        0.1163
     18 C          -4.8547  -16.4154   23.3270 C.ar    1  UNL1       -0.0026
     19 C          -5.0778  -17.8892   23.1594 C.ar    1  UNL1       -0.0026
     20 C          -4.0357  -18.7340   22.4885 C.ar    1  UNL1        0.0009
     21 C          -2.7704  -18.1050   21.9851 C.ar    1  UNL1        0.0140
     22 C          -2.5472  -16.6313   22.1527 C.ar    1  UNL1        0.0009
     23 C          -3.5894  -15.7864   22.8236 C.ar    1  UNL1       -0.0026
     24 C          -1.7282  -18.9499   21.3141 C.2     1  UNL1        0.0729
     25 O          -0.5826  -18.2990   20.5973 O.co2   1  UNL1       -0.5446
     26 O          -1.8318  -20.4456   21.3601 O.co2   1  UNL1       -0.5446
@<TRIPOS>UNITY_ATOM_ATTR
25 1
charge -1
@<TRIPOS>BOND
     1     6     7    1
     2     7     5    1
     3     5     1    1
     4     1     2    2
     5     1     3   am
     6     3    17    1
     7    17    18    1
     8    18    19   ar
     9    19    20   ar
    10    20    21   ar
    11    21    24    1
    12    24    25   ar
    13    24    26   ar
    14    21    22   ar
    15    22    23   ar
    16     7     8    1
    17     8     9    1
    18     9    10    1
    19    10    11    1
    20    11    12    1
    21    12    13    1
    22    13    14    1
    23     9    15    1
    24    15    16    1
    25    16     7    1
    26    23    18   ar
    27    14     9    1
    28     3     4    1
@<TRIPOS>MOLECULE
*****
 26 28 0 0 0
SMALL
GASTEIGER

@<TRIPOS>ATOM
      1 C          -6.6937  -17.3559   22.9684 C.2     1  UNL1        0.2252
      2 O          -5.2241  -17.1345   23.1714 O.2     1  UNL1       -0.2750
      3 N          -7.1875  -18.6660   22.4298 N.am    1  UNL1       -0.3004
      4 H          -8.1520  -18.8113   22.2966 H       1  UNL1        0.1497
      5 C          -7.6696  -16.2673   23.3041 C.3     1  UNL1        0.1154
      6 C          -7.7456  -15.1113   21.6648 C.3     1  UNL1        0.0335
      7 C          -8.7856  -15.9421   22.3561 C.3     1  UNL1        0.1377
      8 C          -9.5923  -16.8410   23.2457 C.3     1  UNL1        0.0613
      9 C         -10.9896  -16.8977   22.7029 C.3     1  UNL1        0.1290
     10 C         -12.3379  -16.8572   22.0469 C.3     1  UNL1        0.0305
     11 C         -13.4781  -17.6402   22.6272 C.3     1  UNL1        0.0025
     12 C         -13.2700  -18.4637   23.8636 C.3     1  UNL1        0.0002
     13 C         -11.9217  -18.5042   24.5196 C.3     1  UNL1        0.0025
     14 C         -10.7815  -17.7212   23.9392 C.3     1  UNL1        0.0305
     15 O         -11.0464  -16.0338   21.4779 O.3     1  UNL1       -0.2256
     16 O          -9.6842  -15.4433   21.2636 O.3     1  UNL1       -0.2251
     17 C          -6.2115  -19.7545   22.0942 C.3     1  UNL1        0.1163
     18 C          -4.9404  -19.4248   21.3692 C.ar    1  UNL1       -0.0026
     19 C          -3.6174  -19.6191   22.0488 C.ar    1  UNL1       -0.0026
     20 C          -2.3463  -19.2894   21.3238 C.ar    1  UNL1        0.0009
     21 C          -2.3982  -18.7654   19.9193 C.ar    1  UNL1        0.0140
     22 C          -3.7212  -18.5712   19.2397 C.ar    1  UNL1        0.0009
     23 C          -4.9924  -18.9009   19.9647 C.ar    1  UNL1       -0.0026
     24 C          -1.1270  -18.4358   19.1943 C.2     1  UNL1        0.0729
     25 O          -1.1798  -17.8927   17.7971 O.co2   1  UNL1       -0.5446
     26 O           0.1967  -18.6491   19.8667 O.co2   1  UNL1       -0.5446
@<TRIPOS>UNITY_ATOM_ATTR
25 1
charge -1
@<TRIPOS>BOND
     1     6     7    1
     2     7     5    1
     3     5     1    1
     4     1     2    2
     5     1     3   am
     6     3    17    1
     7    17    18    1
     8    18    19   ar
     9    19    20   ar
    10    20    21   ar
    11    21    24    1
    12    24    25   ar
    13    24    26   ar
    14    21    22   ar
    15    22    23   ar
    16     7     8    1
    17     8     9    1
    18     9    10    1
    19    10    11    1
    20    11    12    1
    21    12    13    1
    22    13    14    1
    23     9    15    1
    24    15    16    1
    25    16     7    1
    26    23    18   ar
    27    14     9    1
    28     3     4    1
@<TRIPOS>MOLECULE
*****
 26 28 0 0 0
SMALL
GASTEIGER

@<TRIPOS>ATOM
      1 C           8.4038   -9.8518   27.5681 C.2     1  UNL1        0.2252
      2 O           9.5340  -10.7805   27.8995 O.2     1  UNL1       -0.2750
      3 N           6.9846  -10.3023   27.7508 N.am    1  UNL1       -0.3004
      4 H           6.2428   -9.6927   27.5333 H       1  UNL1        0.1497
      5 C           8.6925   -8.4725   27.0540 C.3     1  UNL1        0.1154
      6 C           7.2610   -7.9787   25.7362 C.3     1  UNL1        0.0335
      7 C           7.6217   -7.4225   27.0818 C.3     1  UNL1        0.1377
      8 C           8.2063   -7.0857   28.4215 C.3     1  UNL1        0.0613
      9 C           7.4213   -5.9438   28.9960 C.3     1  UNL1        0.1290
     10 C           6.5498   -4.8065   29.4396 C.3     1  UNL1        0.0305
     11 C           6.7921   -4.1490   30.7659 C.3     1  UNL1        0.0025
     12 C           7.9058   -4.6290   31.6486 C.3     1  UNL1        0.0002
     13 C           8.7773   -5.7664   31.2050 C.3     1  UNL1        0.0025
     14 C           8.5351   -6.4238   29.8787 C.3     1  UNL1        0.0305
     15 O           6.3517   -5.5748   28.0113 O.3     1  UNL1       -0.2256
     16 O           6.4755   -6.4887   26.8282 O.3     1  UNL1       -0.2251
     17 C           6.6960  -11.6816   28.2648 C.3     1  UNL1        0.1163
     18 C           5.2975  -12.2220   28.2178 C.ar    1  UNL1       -0.0026
     19 C           4.3551  -11.9642   29.3560 C.ar    1  UNL1       -0.0026
     20 C           2.9567  -12.5046   29.3090 C.ar    1  UNL1        0.0009
     21 C           2.5006  -13.3029   28.1238 C.ar    1  UNL1        0.0140
     22 C           3.4429  -13.5607   26.9856 C.ar    1  UNL1        0.0009
     23 C           4.8414  -13.0203   27.0326 C.ar    1  UNL1       -0.0026
     24 C           1.1020  -13.8433   28.0768 C.2     1  UNL1        0.0729
     25 O          -0.0663  -12.9140   28.2227 O.co2   1  UNL1       -0.5446
     26 O           0.8720  -15.3129   27.8840 O.co2   1  UNL1       -0.5446
@<TRIPOS>UNITY_ATOM_ATTR
25 1
charge -1
@<TRIPOS>BOND
     1     6     7    1
     2     7     5    1
     3     5     1    1
     4     1     2    2
     5     1     3   am
     6     3    17    1
     7    17    18    1
     8    18    19   ar
     9    19    20   ar
    10    20    21   ar
    11    21    24    1
    12    24    25   ar
    13    24    26   ar
    14    21    22   ar
    15    22    23   ar
    16     7     8    1
    17     8     9    1
    18     9    10    1
    19    10    11    1
    20    11    12    1
    21    12    13    1
    22    13    14    1
    23     9    15    1
    24    15    16    1
    25    16     7    1
    26    23    18   ar
    27    14     9    1
    28     3     4    1
@<TRIPOS>MOLECULE
*****
 26 28 0 0 0
SMALL
GASTEIGER

@<TRIPOS>ATOM
      1 C         -11.8898   -7.2888   18.0964 C.2     1  UNL1        0.2252
      2 O         -11.8870   -7.5529   16.6200 O.2     1  UNL1       -0.2750
      3 N         -13.0043   -7.8164   18.9507 N.am    1  UNL1       -0.3004
      4 H         -13.0061   -7.6430   19.9198 H       1  UNL1        0.1497
      5 C         -10.7780   -6.4971   18.7189 C.3     1  UNL1        0.1154
      6 C          -9.2956   -5.5107   17.7921 C.3     1  UNL1        0.0335
      7 C         -10.6012   -5.0494   18.3688 C.3     1  UNL1        0.1377
      8 C         -11.9437   -4.8907   19.0186 C.3     1  UNL1        0.0613
      9 C         -12.3238   -3.4412   18.9496 C.3     1  UNL1        0.1290
     10 C         -12.5670   -1.9680   18.8072 C.3     1  UNL1        0.0305
     11 C         -13.8326   -1.3621   19.3375 C.3     1  UNL1        0.0025
     12 C         -14.8548   -2.2295   20.0103 C.3     1  UNL1        0.0002
     13 C         -14.6116   -3.7027   20.1527 C.3     1  UNL1        0.0025
     14 C         -13.3461   -4.3086   19.6224 C.3     1  UNL1        0.0305
     15 O         -11.2161   -2.7041   18.2571 O.3     1  UNL1       -0.2256
     16 O         -10.1514   -3.6980   17.8981 O.3     1  UNL1       -0.2251
     17 C         -14.1160   -8.6081   18.3283 C.3     1  UNL1        0.1163
     18 C         -15.5163   -8.4714   18.8483 C.ar    1  UNL1       -0.0026
     19 C         -16.3760   -9.6891   19.0166 C.ar    1  UNL1       -0.0026
     20 C         -17.7763   -9.5525   19.5366 C.ar    1  UNL1        0.0009
     21 C         -18.3170   -8.1982   19.8882 C.ar    1  UNL1        0.0140
     22 C         -17.4574   -6.9806   19.7198 C.ar    1  UNL1        0.0009
     23 C         -16.0570   -7.1172   19.1998 C.ar    1  UNL1       -0.0026
     24 C         -19.7174   -8.0617   20.4081 C.2     1  UNL1        0.0729
     25 O         -20.3710   -6.7125   20.4568 O.co2   1  UNL1       -0.5446
     26 O         -20.4640   -9.2743   20.8793 O.co2   1  UNL1       -0.5446
@<TRIPOS>UNITY_ATOM_ATTR
25 1
charge -1
@<TRIPOS>BOND
     1     6     7    1
     2     7     5    1
     3     5     1    1
     4     1     2    2
     5     1     3   am
     6     3    17    1
     7    17    18    1
     8    18    19   ar
     9    19    20   ar
    10    20    21   ar
    11    21    24    1
    12    24    25   ar
    13    24    26   ar
    14    21    22   ar
    15    22    23   ar
    16     7     8    1
    17     8     9    1
    18     9    10    1
    19    10    11    1
    20    11    12    1
    21    12    13    1
    22    13    14    1
    23     9    15    1
    24    15    16    1
    25    16     7    1
    26    23    18   ar
    27    14     9    1
    28     3     4    1
