@<TRIPOS>MOLECULE
*****
 77 79 0 0 0
SMALL
GASTEIGER

@<TRIPOS>ATOM
      1 C          -2.0523    5.7468   16.3156 C.3     1  UNL1        0.0062
      2 C          -1.6417    5.8219   17.7564 C.3     1  UNL1        0.0673
      3 C          -0.1778    5.6396   17.4850 C.3     1  UNL1        0.1178
      4 O          -0.3331    5.5328   15.9969 O.3     1  UNL1       -0.3840
      5 C           1.3132    5.4759   17.4730 C.3     1  UNL1        0.0490
      6 C           1.4178    5.3406   15.9828 C.3     1  UNL1        0.0072
      7 C           2.7859    5.3359   17.7206 C.2     1  UNL1       -0.0240
      8 C           4.1957    5.2236   18.2206 C.2     1  UNL1       -0.0045
      9 C           5.4996    5.1427   18.9576 C.2     1  UNL1       -0.0003
     10 C           6.6581    5.0954   19.9092 C.2     1  UNL1       -0.0000
     11 C           7.6360    5.0834   21.0466 C.2     1  UNL1       -0.0000
     12 C           8.4035    5.1068   22.3351 C.2     1  UNL1       -0.0000
     13 C           8.9374    5.1650   23.7358 C.2     1  UNL1        0.0000
     14 C           9.2213    5.2563   25.2058 C.2     1  UNL1        0.0000
     15 C           9.2467    5.3779   26.7006 C.2     1  UNL1       -0.0000
     16 C           9.0129    5.5260   28.1748 C.2     1  UNL1       -0.0000
     17 C           8.5268    5.6962   29.5837 C.2     1  UNL1       -0.0000
     18 C           7.8033    5.8833   30.8843 C.2     1  UNL1       -0.0003
     19 C           6.8644    6.0816   32.0371 C.2     1  UNL1       -0.0022
     20 C           5.7385    6.2851   33.0073 C.2     1  UNL1        0.0030
     21 C           4.4600    6.4876   33.7651 C.3     1  UNL1        0.1423
     22 C           3.0676    6.6829   34.2877 C.3     1  UNL1        0.0643
     23 C           1.2164    6.9049   34.5284 C.3     1  UNL1        0.1278
     24 O          -0.0195    6.9692   33.6808 O.3     1  UNL1       -0.3363
     25 C          -1.3600    7.1689   34.3235 C.3     1  UNL1        0.1881
     26 O          -1.9489    7.1781   33.6620 O.3     1  UNL1       -0.3634
     27 C          -2.7698    7.2811   33.8236 C.3     1  UNL1        0.0853
     28 C          -4.0738    7.3621   33.0865 C.3     1  UNL1        0.1179
     29 O          -4.9082    7.5555   34.3180 O.3     1  UNL1       -0.3842
     30 C          -5.2323    7.4093   32.1349 C.3     1  UNL1        0.0611
     31 C          -6.2102    7.4214   30.9975 C.3     1  UNL1        0.1396
     32 O          -7.4169    7.6252   31.8648 O.3     1  UNL1       -0.3819
     33 C          -6.9776    7.3980   29.7090 C.3     1  UNL1        0.1373
     34 O          -8.3182    7.5977   30.3517 O.3     1  UNL1       -0.3820
     35 C          -7.5115    7.3397   28.3084 C.3     1  UNL1        0.0342
     36 C          -7.7954    7.2485   26.8383 C.3     1  UNL1        0.0319
     37 C          -7.8208    7.1269   25.3435 C.3     1  UNL1        0.1130
     38 O          -9.3084    7.2793   25.2252 O.3     1  UNL1       -0.3844
     39 C          -7.5870    6.9788   23.8693 C.3     1  UNL1        0.0590
     40 C          -7.1010    6.8086   22.4605 C.3     1  UNL1        0.1241
     41 O          -8.4630    6.9056   21.8396 O.3     1  UNL1       -0.3838
     42 C          -6.3774    6.6215   21.1598 C.3     1  UNL1        0.1387
     43 C          -5.4385    6.4232   20.0070 C.2     1  UNL1        0.3194
     44 O          -6.5107    6.4530   18.9585 O.2     1  UNL1       -0.2500
     45 O          -4.3127    6.2197   19.0369 O.3     1  UNL1       -0.4521
     46 C          -3.0342    6.0172   18.2791 C.3     1  UNL1        0.1712
     47 C          -3.6873    5.9762   16.9293 C.3     1  UNL1        0.0474
     48 C          -1.4646    7.3043   35.8137 C.3     1  UNL1        0.0857
     49 C          -0.2287    7.2399   36.6613 C.3     1  UNL1        0.1228
     50 O          -0.3334    7.3753   38.1515 O.3     1  UNL1       -0.3838
     51 C           1.1118    7.0402   36.0186 C.3     1  UNL1        0.0908
     52 H          -1.2708    5.6156   15.7629 H       1  UNL1        0.2104
     53 H          -1.4879    7.0576   32.8171 H       1  UNL1        0.2128
     54 H          -4.3345    7.5580   35.1002 H       1  UNL1        0.2103
     55 H          -7.1429    7.6726   32.7941 H       1  UNL1        0.2104
     56 H          -9.0054    7.6157   29.6673 H       1  UNL1        0.2104
     57 H          -9.6928    7.3947   26.1082 H       1  UNL1        0.2103
     58 H          -8.3864    6.8171   20.8767 H       1  UNL1        0.2104
     59 H          -1.2580    7.5345   38.3975 H       1  UNL1        0.2104
     60 C           2.3478    6.9759   36.8661 C.2     1  UNL1        0.0547
     61 O           3.5443    7.6859   37.4267 O.co2   1  UNL1       -0.5490
     62 O           3.0050    5.8932   37.6697 O.co2   1  UNL1       -0.5490
     63 O           5.1132    6.5286   35.1148 O.3     1  UNL1       -0.3266
     64 C           5.4843    5.2509   35.8076 C.3     1  UNL1        0.2647
     65 O           5.2070    3.9324   35.1484 O.3     1  UNL1       -0.3286
     66 C           5.5781    2.6547   35.8412 C.3     1  UNL1        0.1460
     67 C           5.3008    1.3362   35.1820 C.3     1  UNL1        0.0348
     68 C           6.2267    2.6957   37.1931 C.3     1  UNL1        0.1541
     69 O           6.5978    1.4180   37.8858 O.3     1  UNL1       -0.3805
     70 C           6.5040    4.0142   37.8523 C.3     1  UNL1        0.1127
     71 N           7.1525    4.0551   39.2042 N.3     1  UNL1       -0.3181
     72 C           6.1329    5.2918   37.1596 C.3     1  UNL1        0.1835
     73 O           6.4102    6.6103   37.8188 O.3     1  UNL1       -0.3783
     74 H           6.3519    0.6641   37.3272 H       1  UNL1        0.2105
     75 H           7.2648    5.0253   39.4982 H       1  UNL1        0.1190
     76 H           8.0672    3.6063   39.1562 H       1  UNL1        0.1190
     77 H           6.1111    7.3299   37.2411 H       1  UNL1        0.2106
@<TRIPOS>UNITY_ATOM_ATTR
61 1
charge -1
@<TRIPOS>BOND
     1     2     1    1
     2     2     3    1
     3     3     4    1
     4     3     5    1
     5     5     6    1
     6     5     7    1
     7     7     8    2
     8     8     9    1
     9     9    10    2
    10    10    11    1
    11    11    12    2
    12    12    13    1
    13    13    14    2
    14    14    15    1
    15    15    16    2
    16    16    17    1
    17    17    18    2
    18    18    19    1
    19    19    20    2
    20    20    21    1
    21    21    63    1
    22    64    63    1
    23    64    65    1
    24    65    66    1
    25    66    67    1
    26    66    68    1
    27    68    69    1
    28    68    70    1
    29    70    71    1
    30    70    72    1
    31    72    73    1
    32    21    22    1
    33    23    22    1
    34    23    24    1
    35    24    25    1
    36    25    26    1
    37    25    27    1
    38    27    28    1
    39    28    29    1
    40    28    30    1
    41    30    31    1
    42    31    32    1
    43    31    33    1
    44    33    34    1
    45    33    35    1
    46    35    36    1
    47    36    37    1
    48    37    38    1
    49    37    39    1
    50    39    40    1
    51    40    41    1
    52    40    42    1
    53    42    43    1
    54    43    44    2
    55    43    45    1
    56    45    46    1
    57    46    47    1
    58    25    48    1
    59    48    49    1
    60    49    50    1
    61    49    51    1
    62    51    60    1
    63    60    61   ar
    64    60    62   ar
    65    46     2    1
    66    72    64    1
    67    51    23    1
    68     4    52    1
    69    69    74    1
    70    71    75    1
    71    71    76    1
    72    73    77    1
    73    26    53    1
    74    29    54    1
    75    32    55    1
    76    34    56    1
    77    38    57    1
    78    41    58    1
    79    50    59    1
