@<TRIPOS>MOLECULE
*****
 33 36 0 0 0
SMALL
GASTEIGER

@<TRIPOS>ATOM
      1 C          -0.7084    4.8189   21.4185 C.2     1  UNL1        0.2491
      2 O          -1.0275    5.7539   20.2898 O.2     1  UNL1       -0.2699
      3 N          -1.2024    5.1183   22.8028 N.am    1  UNL1       -0.2742
      4 C          -2.0155    6.3527   23.0584 C.3     1  UNL1        0.1152
      5 C          -0.8833    4.1834   23.9316 C.3     1  UNL1        0.0972
      6 C          -1.8047    3.1492   24.5072 C.3     1  UNL1        0.0431
      7 C          -1.0776    2.4452   25.6143 C.3     1  UNL1        0.0968
      8 N           0.2933    3.0443   25.7230 N.am    1  UNL1       -0.2623
      9 C           1.3572    2.6401   26.7000 C.2     1  UNL1        0.3073
     10 O           2.6872    3.3337   26.6901 O.2     1  UNL1       -0.2523
     11 N           1.0911    1.5423   27.6870 N.am    1  UNL1       -0.2626
     12 C          -0.1835    0.7619   27.8154 C.3     1  UNL1        0.0964
     13 C          -0.0094   -0.2305   28.9266 C.3     1  UNL1        0.0388
     14 C           1.3727   -0.0634   29.4850 C.3     1  UNL1        0.0727
     15 N           1.9699   -0.8533   30.6117 N.3     1  UNL1       -0.3208
     16 C           2.0529    1.0322   28.7189 C.3     1  UNL1        0.1104
     17 C           0.4134    4.1186   24.6830 C.3     1  UNL1        0.1147
     18 H           2.9224   -0.5320   30.7847 H       1  UNL1        0.1189
     19 H           1.9846   -1.8424   30.3631 H       1  UNL1        0.1189
     20 C           1.7309    1.1159   20.6518 C.ar    1  UNL1        0.0000
     21 C           0.2343    1.0588   20.5684 C.ar    1  UNL1        0.0001
     22 C          -0.5788    2.2931   20.8240 C.ar    1  UNL1        0.0045
     23 C           0.1047    3.5846   21.1630 C.ar    1  UNL1        0.0536
     24 C           1.6013    3.6417   21.2464 C.ar    1  UNL1        0.0045
     25 C           2.4143    2.4074   20.9908 C.ar    1  UNL1        0.0001
     26 C           4.1701   -2.5870   19.8851 C.ar    1  UNL1       -0.0222
     27 C           3.8118   -2.2025   21.2900 C.ar    1  UNL1       -0.0043
     28 C           2.9987   -0.9682   21.5456 C.ar    1  UNL1       -0.0003
     29 C           2.5440   -0.1184   20.3963 C.ar    1  UNL1       -0.0000
     30 C           2.9023   -0.5029   18.9914 C.ar    1  UNL1       -0.0003
     31 C           3.7154   -1.7372   18.7358 C.ar    1  UNL1       -0.0043
     32 C           4.3917   -4.9623   18.8560 C.3     1  UNL1        0.0050
     33 C           4.9832   -3.8214   19.6296 C.3     1  UNL1        0.0264
@<TRIPOS>BOND
     1    32    33    1
     2    33    26    1
     3    26    27   ar
     4    27    28   ar
     5    28    29   ar
     6    29    20    1
     7    20    21   ar
     8    21    22   ar
     9    22    23   ar
    10    23     1    1
    11     1     2    2
    12     1     3   am
    13     3     4    1
    14     5     3    1
    15     5     6    1
    16     6     7    1
    17     7     8    1
    18     8     9   am
    19     9    10    2
    20     9    11   am
    21    11    12    1
    22    12    13    1
    23    13    14    1
    24    14    15    1
    25    14    16    1
    26     8    17    1
    27    23    24   ar
    28    24    25   ar
    29    29    30   ar
    30    30    31   ar
    31    31    26   ar
    32    25    20   ar
    33    17     5    1
    34    16    11    1
    35    15    18    1
    36    15    19    1
@<TRIPOS>MOLECULE
*****
 33 36 0 0 0
SMALL
GASTEIGER

@<TRIPOS>ATOM
      1 C         -17.3826    0.0478   18.7024 C.2     1  UNL1        0.2491
      2 O         -17.1486    1.5215   18.5502 O.2     1  UNL1       -0.2699
      3 N         -18.7812   -0.4811   18.8217 N.am    1  UNL1       -0.2742
      4 C         -19.9457    0.4638   18.7888 C.3     1  UNL1        0.1152
      5 C         -19.0152   -1.9549   18.9739 C.3     1  UNL1        0.0972
      6 C         -19.0836   -2.7077   20.2695 C.3     1  UNL1        0.0431
      7 C         -19.3327   -4.1527   19.9535 C.3     1  UNL1        0.0968
      8 N         -19.4183   -4.2931   18.4625 N.am    1  UNL1       -0.2623
      9 C         -19.6579   -5.5679   17.7093 C.2     1  UNL1        0.3073
     10 O         -19.7186   -5.5533   16.2106 O.2     1  UNL1       -0.2523
     11 N         -19.8370   -6.8572   18.4547 N.am    1  UNL1       -0.2626
     12 C         -19.8019   -7.0263   19.9448 C.3     1  UNL1        0.0964
     13 C         -20.0258   -8.4773   20.2520 C.3     1  UNL1        0.0388
     14 C         -20.1992   -9.2049   18.9518 C.3     1  UNL1        0.0727
     15 N         -20.4459  -10.6757   18.7906 N.3     1  UNL1       -0.3208
     16 C         -20.0825   -8.2036   17.8411 C.3     1  UNL1        0.1104
     17 C         -19.2221   -2.9348   17.8571 C.3     1  UNL1        0.1147
     18 H         -20.5243  -10.9006   17.7988 H       1  UNL1        0.1189
     19 H         -21.3119  -10.9293   19.2663 H       1  UNL1        0.1189
     20 C         -13.8890   -2.7868   18.8012 C.ar    1  UNL1        0.0000
     21 C         -14.4001   -2.1817   20.0750 C.ar    1  UNL1        0.0001
     22 C         -15.5646   -1.2368   20.0421 C.ar    1  UNL1        0.0045
     23 C         -16.2181   -0.8971   18.7354 C.ar    1  UNL1        0.0536
     24 C         -15.7070   -1.5023   17.4616 C.ar    1  UNL1        0.0045
     25 C         -14.5425   -2.4471   17.4945 C.ar    1  UNL1        0.0001
     26 C         -10.3954   -5.6215   18.9000 C.ar    1  UNL1       -0.0222
     27 C         -10.1593   -4.1429   18.8108 C.ar    1  UNL1       -0.0043
     28 C         -11.3238   -3.1980   18.7779 C.ar    1  UNL1       -0.0003
     29 C         -12.7245   -3.7317   18.8342 C.ar    1  UNL1       -0.0000
     30 C         -12.9606   -5.2103   18.9234 C.ar    1  UNL1       -0.0003
     31 C         -11.7961   -6.1552   18.9563 C.ar    1  UNL1       -0.0043
     32 C          -9.4512   -8.0356   18.7268 C.3     1  UNL1        0.0050
     33 C          -9.2309   -6.5663   18.9330 C.3     1  UNL1        0.0264
@<TRIPOS>BOND
     1    32    33    1
     2    33    26    1
     3    26    27   ar
     4    27    28   ar
     5    28    29   ar
     6    29    20    1
     7    20    21   ar
     8    21    22   ar
     9    22    23   ar
    10    23     1    1
    11     1     2    2
    12     1     3   am
    13     3     4    1
    14     5     3    1
    15     5     6    1
    16     6     7    1
    17     7     8    1
    18     8     9   am
    19     9    10    2
    20     9    11   am
    21    11    12    1
    22    12    13    1
    23    13    14    1
    24    14    15    1
    25    14    16    1
    26     8    17    1
    27    23    24   ar
    28    24    25   ar
    29    29    30   ar
    30    30    31   ar
    31    31    26   ar
    32    25    20   ar
    33    17     5    1
    34    16    11    1
    35    15    18    1
    36    15    19    1
@<TRIPOS>MOLECULE
*****
 33 36 0 0 0
SMALL
GASTEIGER

@<TRIPOS>ATOM
      1 C           0.1495    5.2465   19.1230 C.2     1  UNL1        0.2491
      2 O          -0.4418    6.5932   18.8288 O.2     1  UNL1       -0.2699
      3 N           0.9103    4.5127   18.0588 N.am    1  UNL1       -0.2742
      4 C           1.0798    5.1257   16.7003 C.3     1  UNL1        0.1152
      5 C           1.5017    3.1659   18.3530 C.3     1  UNL1        0.0972
      6 C           0.7749    1.8546   18.3066 C.3     1  UNL1        0.0431
      7 C           1.7478    0.7723   18.6702 C.3     1  UNL1        0.0968
      8 N           3.0759    1.4148   18.9413 N.am    1  UNL1       -0.2623
      9 C           4.3350    0.7029   19.3387 C.2     1  UNL1        0.3073
     10 O           5.5939    1.4826   19.5776 O.2     1  UNL1       -0.2523
     11 N           4.3351   -0.7888   19.4973 N.am    1  UNL1       -0.2626
     12 C           3.1589   -1.6972   19.2932 C.3     1  UNL1        0.0964
     13 C           3.6082   -3.1036   19.5575 C.3     1  UNL1        0.0388
     14 C           5.0620   -3.0645   19.9249 C.3     1  UNL1        0.0727
     15 N           5.9167   -4.2482   20.2690 N.3     1  UNL1       -0.3208
     16 C           5.5112   -1.6338   19.8876 C.3     1  UNL1        0.1104
     17 C           2.9238    2.8941   18.7453 C.3     1  UNL1        0.1147
     18 H           6.8644   -3.9341   20.4778 H       1  UNL1        0.1189
     19 H           5.9385   -4.8930   19.4790 H       1  UNL1        0.1189
     20 C          -0.3590    3.4076   23.1986 C.ar    1  UNL1        0.0000
     21 C          -1.4199    3.2224   22.1545 C.ar    1  UNL1        0.0001
     22 C          -1.2504    3.8354   20.7960 C.ar    1  UNL1        0.0045
     23 C          -0.0200    4.6335   20.4815 C.ar    1  UNL1        0.0536
     24 C           1.0410    4.8187   21.5256 C.ar    1  UNL1        0.0045
     25 C           0.8715    4.2058   22.8841 C.ar    1  UNL1        0.0001
     26 C          -0.8674    1.5688   27.2741 C.ar    1  UNL1       -0.0222
     27 C           0.1349    0.9996   26.3143 C.ar    1  UNL1       -0.0043
     28 C           0.3044    1.6126   24.9558 C.ar    1  UNL1       -0.0003
     29 C          -0.5284    2.7947   24.5571 C.ar    1  UNL1       -0.0000
     30 C          -1.5308    3.3638   25.5170 C.ar    1  UNL1       -0.0003
     31 C          -1.7002    2.7509   26.8755 C.ar    1  UNL1       -0.0043
     32 C          -1.3542   -0.5044   28.7623 C.3     1  UNL1        0.0050
     33 C          -1.0369    0.9559   28.6327 C.3     1  UNL1        0.0264
@<TRIPOS>BOND
     1    32    33    1
     2    33    26    1
     3    26    27   ar
     4    27    28   ar
     5    28    29   ar
     6    29    20    1
     7    20    21   ar
     8    21    22   ar
     9    22    23   ar
    10    23     1    1
    11     1     2    2
    12     1     3   am
    13     3     4    1
    14     5     3    1
    15     5     6    1
    16     6     7    1
    17     7     8    1
    18     8     9   am
    19     9    10    2
    20     9    11   am
    21    11    12    1
    22    12    13    1
    23    13    14    1
    24    14    15    1
    25    14    16    1
    26     8    17    1
    27    23    24   ar
    28    24    25   ar
    29    29    30   ar
    30    30    31   ar
    31    31    26   ar
    32    25    20   ar
    33    17     5    1
    34    16    11    1
    35    15    18    1
    36    15    19    1
@<TRIPOS>MOLECULE
*****
 33 36 0 0 0
SMALL
GASTEIGER

@<TRIPOS>ATOM
      1 C           5.1813   -2.2720   19.1475 C.2     1  UNL1        0.2491
      2 O           5.6414   -2.8097   17.8250 O.2     1  UNL1       -0.2699
      3 N           5.8448   -2.7264   20.4136 N.am    1  UNL1       -0.2742
      4 C           6.9684   -3.7186   20.3573 C.3     1  UNL1        0.1152
      5 C           5.3847   -2.1887   21.7363 C.3     1  UNL1        0.0972
      6 C           4.5453   -2.9200   22.7415 C.3     1  UNL1        0.0431
      7 C           4.3250   -2.0086   23.9123 C.3     1  UNL1        0.0968
      8 N           5.0284   -0.7139   23.6307 N.am    1  UNL1       -0.2623
      9 C           5.0695    0.4820   24.5351 C.2     1  UNL1        0.3073
     10 O           5.8171    1.7133   24.1166 O.2     1  UNL1       -0.2523
     11 N           4.3632    0.4467   25.8579 N.am    1  UNL1       -0.2626
     12 C           3.5795   -0.7079   26.4084 C.3     1  UNL1        0.0964
     13 C           3.0485   -0.3084   27.7531 C.3     1  UNL1        0.0388
     14 C           3.5039    1.0930   28.0337 C.3     1  UNL1        0.0727
     15 N           3.2001    1.8881   29.2688 N.3     1  UNL1       -0.3208
     16 C           4.3164    1.5596   26.8624 C.3     1  UNL1        0.1104
     17 C           5.6832   -0.8253   22.2858 C.3     1  UNL1        0.1147
     18 H           3.6336    2.8085   29.1958 H       1  UNL1        0.1189
     19 H           3.5699    1.4019   30.0857 H       1  UNL1        0.1189
     20 C           1.8105    0.7045   19.3165 C.ar    1  UNL1        0.0000
     21 C           1.6211   -0.6756   19.8728 C.ar    1  UNL1        0.0001
     22 C           2.7447   -1.6677   19.8164 C.ar    1  UNL1        0.0045
     23 C           4.0577   -1.2798   19.2038 C.ar    1  UNL1        0.0536
     24 C           4.2472    0.1002   18.6476 C.ar    1  UNL1        0.0045
     25 C           3.1236    1.0924   18.7039 C.ar    1  UNL1        0.0001
     26 C          -1.5602    3.6809   19.4856 C.ar    1  UNL1       -0.0222
     27 C          -1.2689    2.8096   20.6713 C.ar    1  UNL1       -0.0043
     28 C          -0.1453    1.8175   20.6149 C.ar    1  UNL1       -0.0003
     29 C           0.6870    1.6966   19.3729 C.ar    1  UNL1       -0.0000
     30 C           0.3956    2.5680   18.1872 C.ar    1  UNL1       -0.0003
     31 C          -0.7280    3.5601   18.2436 C.ar    1  UNL1       -0.0043
     32 C          -4.1002    4.2133   19.3618 C.3     1  UNL1        0.0050
     33 C          -2.6838    4.6731   19.5420 C.3     1  UNL1        0.0264
@<TRIPOS>BOND
     1    32    33    1
     2    33    26    1
     3    26    27   ar
     4    27    28   ar
     5    28    29   ar
     6    29    20    1
     7    20    21   ar
     8    21    22   ar
     9    22    23   ar
    10    23     1    1
    11     1     2    2
    12     1     3   am
    13     3     4    1
    14     5     3    1
    15     5     6    1
    16     6     7    1
    17     7     8    1
    18     8     9   am
    19     9    10    2
    20     9    11   am
    21    11    12    1
    22    12    13    1
    23    13    14    1
    24    14    15    1
    25    14    16    1
    26     8    17    1
    27    23    24   ar
    28    24    25   ar
    29    29    30   ar
    30    30    31   ar
    31    31    26   ar
    32    25    20   ar
    33    17     5    1
    34    16    11    1
    35    15    18    1
    36    15    19    1
@<TRIPOS>MOLECULE
*****
 33 36 0 0 0
SMALL
GASTEIGER

@<TRIPOS>ATOM
      1 C          -0.9974    4.2178   26.7516 C.2     1  UNL1        0.2491
      2 O          -0.3182    4.3635   28.0810 O.2     1  UNL1       -0.2699
      3 N          -2.2749    4.9545   26.4774 N.am    1  UNL1       -0.2742
      4 C          -2.8732    5.8368   27.5326 C.3     1  UNL1        0.1152
      5 C          -2.9541    4.8089   25.1479 C.3     1  UNL1        0.0972
      6 C          -3.6762    3.5898   24.6555 C.3     1  UNL1        0.0431
      7 C          -4.1989    3.8843   23.2807 C.3     1  UNL1        0.0968
      8 N          -3.7998    5.2854   22.9234 N.am    1  UNL1       -0.2623
      9 C          -4.1147    5.9911   21.6378 C.2     1  UNL1        0.3073
     10 O          -3.6468    7.3997   21.4214 O.2     1  UNL1       -0.2523
     11 N          -4.8975    5.2882   20.5686 N.am    1  UNL1       -0.2626
     12 C          -5.4291    3.8874   20.6418 C.3     1  UNL1        0.0964
     13 C          -6.1463    3.5962   19.3570 C.3     1  UNL1        0.0388
     14 C          -6.0580    4.8169   18.4898 C.3     1  UNL1        0.0727
     15 N          -6.6394    4.9658   17.1151 N.3     1  UNL1       -0.3208
     16 C          -5.2862    5.8626   19.2386 C.3     1  UNL1        0.1104
     17 C          -3.0305    5.8568   24.0773 C.3     1  UNL1        0.1147
     18 H          -6.4304    5.8976   16.7566 H       1  UNL1        0.1189
     19 H          -7.6503    4.8368   17.1576 H       1  UNL1        0.1189
     20 C           0.7976    1.5708   23.5859 C.ar    1  UNL1        0.0000
     21 C           0.8386    3.0619   23.4285 C.ar    1  UNL1        0.0001
     22 C           0.2403    3.9443   24.4837 C.ar    1  UNL1        0.0045
     23 C          -0.3990    3.3355   25.6964 C.ar    1  UNL1        0.0536
     24 C          -0.4400    1.8444   25.8538 C.ar    1  UNL1        0.0045
     25 C           0.1583    0.9620   24.7986 C.ar    1  UNL1        0.0001
     26 C           2.5926   -1.0762   20.4203 C.ar    1  UNL1       -0.0222
     27 C           1.3253   -0.3245   20.1393 C.ar    1  UNL1       -0.0043
     28 C           0.7270    0.5578   21.1946 C.ar    1  UNL1       -0.0003
     29 C           1.3959    0.6885   22.5307 C.ar    1  UNL1       -0.0000
     30 C           2.6632   -0.0632   22.8116 C.ar    1  UNL1       -0.0003
     31 C           3.2616   -0.9455   21.7564 C.ar    1  UNL1       -0.0043
     32 C           3.5373   -3.3823   19.6858 C.3     1  UNL1        0.0050
     33 C           3.1909   -1.9585   19.3650 C.3     1  UNL1        0.0264
@<TRIPOS>BOND
     1    32    33    1
     2    33    26    1
     3    26    27   ar
     4    27    28   ar
     5    28    29   ar
     6    29    20    1
     7    20    21   ar
     8    21    22   ar
     9    22    23   ar
    10    23     1    1
    11     1     2    2
    12     1     3   am
    13     3     4    1
    14     5     3    1
    15     5     6    1
    16     6     7    1
    17     7     8    1
    18     8     9   am
    19     9    10    2
    20     9    11   am
    21    11    12    1
    22    12    13    1
    23    13    14    1
    24    14    15    1
    25    14    16    1
    26     8    17    1
    27    23    24   ar
    28    24    25   ar
    29    29    30   ar
    30    30    31   ar
    31    31    26   ar
    32    25    20   ar
    33    17     5    1
    34    16    11    1
    35    15    18    1
    36    15    19    1
@<TRIPOS>MOLECULE
*****
 33 36 0 0 0
SMALL
GASTEIGER

@<TRIPOS>ATOM
      1 C           0.7730    3.7253   26.7921 C.2     1  UNL1        0.2491
      2 O           1.4973    3.7083   28.1055 O.2     1  UNL1       -0.2699
      3 N          -0.3572    4.6864   26.5713 N.am    1  UNL1       -0.2742
      4 C          -0.7632    5.6304   27.6640 C.3     1  UNL1        0.1152
      5 C          -1.0815    4.7035   25.2578 C.3     1  UNL1        0.0972
      6 C          -0.6666    5.4618   24.0320 C.3     1  UNL1        0.0431
      7 C          -1.6766    5.1922   22.9562 C.3     1  UNL1        0.0968
      8 N          -2.7157    4.2672   23.5172 N.am    1  UNL1       -0.2623
      9 C          -3.9125    3.7373   22.7844 C.2     1  UNL1        0.3073
     10 O          -4.8702    2.8157   23.4797 O.2     1  UNL1       -0.2523
     11 N          -4.1516    4.1291   21.3563 N.am    1  UNL1       -0.2626
     12 C          -3.2857    5.0374   20.5345 C.3     1  UNL1        0.0964
     13 C          -3.8974    5.1511   19.1696 C.3     1  UNL1        0.0388
     14 C          -5.1413    4.3130   19.1480 C.3     1  UNL1        0.0727
     15 N          -6.0658    4.1374   17.9799 N.3     1  UNL1       -0.3208
     16 C          -5.2984    3.6814   20.4994 C.3     1  UNL1        0.1104
     17 C          -2.3479    3.9652   24.9397 C.3     1  UNL1        0.1147
     18 H          -6.8305    3.5153   18.2420 H       1  UNL1        0.1189
     19 H          -5.5518    3.7332   17.1971 H       1  UNL1        0.1189
     20 C           1.9910    0.8931   23.5140 C.ar    1  UNL1        0.0000
     21 C           2.7938    2.1342   23.7696 C.ar    1  UNL1        0.0001
     22 C           2.3878    3.0782   24.8623 C.ar    1  UNL1        0.0045
     23 C           1.1790    2.7812   25.6994 C.ar    1  UNL1        0.0536
     24 C           0.3763    1.5402   25.4438 C.ar    1  UNL1        0.0045
     25 C           0.7823    0.5961   24.3511 C.ar    1  UNL1        0.0001
     26 C           3.2091   -1.9390   20.2360 C.ar    1  UNL1       -0.0222
     27 C           2.1371   -0.9198   19.9868 C.ar    1  UNL1       -0.0043
     28 C           1.7311    0.0242   21.0794 C.ar    1  UNL1       -0.0003
     29 C           2.3971   -0.0509   22.4214 C.ar    1  UNL1       -0.0000
     30 C           3.4690   -1.0701   22.6706 C.ar    1  UNL1       -0.0003
     31 C           3.8750   -2.0141   21.5780 C.ar    1  UNL1       -0.0043
     32 C           3.5628   -4.3643   19.3741 C.3     1  UNL1        0.0050
     33 C           3.6151   -2.8831   19.1434 C.3     1  UNL1        0.0264
@<TRIPOS>BOND
     1    32    33    1
     2    33    26    1
     3    26    27   ar
     4    27    28   ar
     5    28    29   ar
     6    29    20    1
     7    20    21   ar
     8    21    22   ar
     9    22    23   ar
    10    23     1    1
    11     1     2    2
    12     1     3   am
    13     3     4    1
    14     5     3    1
    15     5     6    1
    16     6     7    1
    17     7     8    1
    18     8     9   am
    19     9    10    2
    20     9    11   am
    21    11    12    1
    22    12    13    1
    23    13    14    1
    24    14    15    1
    25    14    16    1
    26     8    17    1
    27    23    24   ar
    28    24    25   ar
    29    29    30   ar
    30    30    31   ar
    31    31    26   ar
    32    25    20   ar
    33    17     5    1
    34    16    11    1
    35    15    18    1
    36    15    19    1
@<TRIPOS>MOLECULE
*****
 33 36 0 0 0
SMALL
GASTEIGER

@<TRIPOS>ATOM
      1 C           7.0158   -2.4669   20.7118 C.2     1  UNL1        0.2491
      2 O           7.1889   -2.4062   19.2231 O.2     1  UNL1       -0.2699
      3 N           7.9814   -3.2537   21.5476 N.am    1  UNL1       -0.2742
      4 C           9.1200   -3.9798   20.8947 C.3     1  UNL1        0.1152
      5 C           7.8083   -3.3144   23.0364 C.3     1  UNL1        0.0972
      6 C           7.9599   -2.1658   23.9892 C.3     1  UNL1        0.0431
      7 C           7.6986   -2.6759   25.3754 C.3     1  UNL1        0.0968
      8 N           7.3854   -4.1397   25.2793 N.am    1  UNL1       -0.2623
      9 C           7.0613   -5.0492   26.4273 C.2     1  UNL1        0.3073
     10 O           6.7679   -6.4986   26.1760 O.2     1  UNL1       -0.2523
     11 N           7.0306   -4.5093   27.8264 N.am    1  UNL1       -0.2626
     12 C           7.3009   -3.0901   28.2299 C.3     1  UNL1        0.0964
     13 C           7.1616   -2.9974   29.7205 C.3     1  UNL1        0.0388
     14 C           6.8051   -4.3594   30.2382 C.3     1  UNL1        0.0727
     15 N           6.5707   -4.7231   31.6745 N.3     1  UNL1       -0.3208
     16 C           6.7241   -5.2937   29.0676 C.3     1  UNL1        0.1104
     17 C           7.4532   -4.5343   23.8338 C.3     1  UNL1        0.1147
     18 H           6.3442   -5.7154   31.7413 H       1  UNL1        0.1189
     19 H           5.7954   -4.1719   32.0426 H       1  UNL1        0.1189
     20 C           3.6000   -0.2885   22.6704 C.ar    1  UNL1        0.0000
     21 C           3.4849   -1.7551   22.3778 C.ar    1  UNL1        0.0001
     22 C           4.6235   -2.4812   21.7249 C.ar    1  UNL1        0.0045
     23 C           5.8772   -1.7407   21.3647 C.ar    1  UNL1        0.0536
     24 C           5.9923   -0.2741   21.6573 C.ar    1  UNL1        0.0045
     25 C           4.8537    0.4520   22.3102 C.ar    1  UNL1        0.0001
     26 C           0.1841    1.8900   24.6291 C.ar    1  UNL1       -0.0222
     27 C           1.2270    1.2180   25.4721 C.ar    1  UNL1       -0.0043
     28 C           2.3656    0.4919   24.8192 C.ar    1  UNL1       -0.0003
     29 C           2.4613    0.4377   23.3233 C.ar    1  UNL1       -0.0000
     30 C           1.4184    1.1096   22.4803 C.ar    1  UNL1       -0.0003
     31 C           0.2798    1.8358   23.1331 C.ar    1  UNL1       -0.0043
     32 C          -1.1460    2.5298   26.7671 C.3     1  UNL1        0.0050
     33 C          -0.9545    2.6161   25.2819 C.3     1  UNL1        0.0264
@<TRIPOS>BOND
     1    32    33    1
     2    33    26    1
     3    26    27   ar
     4    27    28   ar
     5    28    29   ar
     6    29    20    1
     7    20    21   ar
     8    21    22   ar
     9    22    23   ar
    10    23     1    1
    11     1     2    2
    12     1     3   am
    13     3     4    1
    14     5     3    1
    15     5     6    1
    16     6     7    1
    17     7     8    1
    18     8     9   am
    19     9    10    2
    20     9    11   am
    21    11    12    1
    22    12    13    1
    23    13    14    1
    24    14    15    1
    25    14    16    1
    26     8    17    1
    27    23    24   ar
    28    24    25   ar
    29    29    30   ar
    30    30    31   ar
    31    31    26   ar
    32    25    20   ar
    33    17     5    1
    34    16    11    1
    35    15    18    1
    36    15    19    1
@<TRIPOS>MOLECULE
*****
 33 36 0 0 0
SMALL
GASTEIGER

@<TRIPOS>ATOM
      1 C           2.6205    3.0385   27.7283 C.2     1  UNL1        0.2491
      2 O           3.7393    3.0977   28.7257 O.2     1  UNL1       -0.2699
      3 N           1.3757    3.8457   27.9490 N.am    1  UNL1       -0.2742
      4 C           1.2496    4.7121   29.1669 C.3     1  UNL1        0.1152
      5 C           0.2568    3.7865   26.9516 C.3     1  UNL1        0.0972
      6 C          -0.8779    2.8055   26.9567 C.3     1  UNL1        0.0431
      7 C          -1.7598    3.1106   25.7823 C.3     1  UNL1        0.0968
      8 N          -1.1701    4.2803   25.0514 N.am    1  UNL1       -0.2623
      9 C          -1.7287    4.9199   23.8149 C.2     1  UNL1        0.3073
     10 O          -1.0252    6.0893   23.1922 O.2     1  UNL1       -0.2523
     11 N          -2.9906    4.3901   23.2010 N.am    1  UNL1       -0.2626
     12 C          -3.8001    3.2337   23.7087 C.3     1  UNL1        0.0964
     13 C          -4.9744    3.0526   22.7932 C.3     1  UNL1        0.0388
     14 C          -4.8908    4.0970   21.7198 C.3     1  UNL1        0.0727
     15 N          -5.8625    4.2824   20.5923 N.3     1  UNL1       -0.3208
     16 C          -3.6647    4.9237   21.9719 C.3     1  UNL1        0.1104
     17 C           0.0762    4.6980   25.7740 C.3     1  UNL1        0.1147
     18 H          -5.5639    5.0657   20.0114 H       1  UNL1        0.1189
     19 H          -6.7901    4.4741   20.9709 H       1  UNL1        0.1189
     20 C           2.9986    0.4392   24.0745 C.ar    1  UNL1        0.0000
     21 C           2.6073   -0.1675   25.3893 C.ar    1  UNL1        0.0001
     22 C           2.4813    0.6989   26.6072 C.ar    1  UNL1        0.0045
     23 C           2.7465    2.1720   26.5104 C.ar    1  UNL1        0.0536
     24 C           3.1379    2.7787   25.1956 C.ar    1  UNL1        0.0045
     25 C           3.2639    1.9123   23.9776 C.ar    1  UNL1        0.0001
     26 C           3.3767   -2.1601   20.4206 C.ar    1  UNL1       -0.0222
     27 C           2.4462   -0.9838   20.4111 C.ar    1  UNL1       -0.0043
     28 C           2.3201   -0.1173   21.6291 C.ar    1  UNL1       -0.0003
     29 C           3.1247   -0.4273   22.8565 C.ar    1  UNL1       -0.0000
     30 C           4.0552   -1.6036   22.8660 C.ar    1  UNL1       -0.0003
     31 C           4.1813   -2.4701   21.6480 C.ar    1  UNL1       -0.0043
     32 C           4.8574   -3.4662   18.7320 C.3     1  UNL1        0.0050
     33 C           3.5028   -3.0266   19.2027 C.3     1  UNL1        0.0264
@<TRIPOS>BOND
     1    32    33    1
     2    33    26    1
     3    26    27   ar
     4    27    28   ar
     5    28    29   ar
     6    29    20    1
     7    20    21   ar
     8    21    22   ar
     9    22    23   ar
    10    23     1    1
    11     1     2    2
    12     1     3   am
    13     3     4    1
    14     5     3    1
    15     5     6    1
    16     6     7    1
    17     7     8    1
    18     8     9   am
    19     9    10    2
    20     9    11   am
    21    11    12    1
    22    12    13    1
    23    13    14    1
    24    14    15    1
    25    14    16    1
    26     8    17    1
    27    23    24   ar
    28    24    25   ar
    29    29    30   ar
    30    30    31   ar
    31    31    26   ar
    32    25    20   ar
    33    17     5    1
    34    16    11    1
    35    15    18    1
    36    15    19    1
@<TRIPOS>MOLECULE
*****
 33 36 0 0 0
SMALL
GASTEIGER

@<TRIPOS>ATOM
      1 C           6.6541   -1.8268   18.7940 C.2     1  UNL1        0.2491
      2 O           7.0016   -2.1417   17.3692 O.2     1  UNL1       -0.2699
      3 N           7.5492   -2.2912   19.9045 N.am    1  UNL1       -0.2742
      4 C           8.7917   -3.0705   19.5901 C.3     1  UNL1        0.1152
      5 C           7.2017   -1.9763   21.3293 C.3     1  UNL1        0.0972
      6 C           7.0259   -0.6052   21.9117 C.3     1  UNL1        0.0431
      7 C           6.6846   -0.7588   23.3642 C.3     1  UNL1        0.0968
      8 N           6.6495   -2.2249   23.6797 N.am    1  UNL1       -0.2623
      9 C           6.3477   -2.8319   25.0177 C.2     1  UNL1        0.3073
     10 O           6.3491   -4.3229   25.1824 O.2     1  UNL1       -0.2523
     11 N           6.0446   -1.9480   26.1911 N.am    1  UNL1       -0.2626
     12 C           6.0067   -0.4485   26.1788 C.3     1  UNL1        0.0964
     13 C           5.6649    0.0179   27.5629 C.3     1  UNL1        0.0388
     14 C           5.4915   -1.1934   28.4305 C.3     1  UNL1        0.0727
     15 N           5.1443   -1.1903   29.8898 N.3     1  UNL1       -0.3208
     16 C           5.7262   -2.4083   27.5827 C.3     1  UNL1        0.1104
     17 C           6.9690   -2.9774   22.4220 C.3     1  UNL1        0.1147
     18 H           5.0899   -2.1509   30.2284 H       1  UNL1        0.1189
     19 H           4.2435   -0.7309   30.0240 H       1  UNL1        0.1189
     20 C           2.9265    0.5110   19.7370 C.ar    1  UNL1        0.0000
     21 C           2.9484   -0.9761   19.9315 C.ar    1  UNL1        0.0001
     22 C           4.1909   -1.7554   19.6171 C.ar    1  UNL1        0.0045
     23 C           5.4116   -1.0475   19.1084 C.ar    1  UNL1        0.0536
     24 C           5.3897    0.4396   18.9139 C.ar    1  UNL1        0.0045
     25 C           4.1471    1.2189   19.2282 C.ar    1  UNL1        0.0001
     26 C          -0.8011    2.8489   20.6800 C.ar    1  UNL1       -0.0222
     27 C          -0.1262    2.0483   21.7540 C.ar    1  UNL1       -0.0043
     28 C           1.1163    1.2690   21.4396 C.ar    1  UNL1       -0.0003
     29 C           1.6839    1.2903   20.0514 C.ar    1  UNL1       -0.0000
     30 C           1.0090    2.0910   18.9774 C.ar    1  UNL1       -0.0003
     31 C          -0.2336    2.8702   19.2918 C.ar    1  UNL1       -0.0043
     32 C          -3.3555    3.2240   20.3897 C.3     1  UNL1        0.0050
     33 C          -2.0437    3.6282   20.9944 C.3     1  UNL1        0.0264
@<TRIPOS>BOND
     1    32    33    1
     2    33    26    1
     3    26    27   ar
     4    27    28   ar
     5    28    29   ar
     6    29    20    1
     7    20    21   ar
     8    21    22   ar
     9    22    23   ar
    10    23     1    1
    11     1     2    2
    12     1     3   am
    13     3     4    1
    14     5     3    1
    15     5     6    1
    16     6     7    1
    17     7     8    1
    18     8     9   am
    19     9    10    2
    20     9    11   am
    21    11    12    1
    22    12    13    1
    23    13    14    1
    24    14    15    1
    25    14    16    1
    26     8    17    1
    27    23    24   ar
    28    24    25   ar
    29    29    30   ar
    30    30    31   ar
    31    31    26   ar
    32    25    20   ar
    33    17     5    1
    34    16    11    1
    35    15    18    1
    36    15    19    1
