@<TRIPOS>MOLECULE
*****
 38 44 0 0 0
SMALL
GASTEIGER

@<TRIPOS>ATOM
      1 C           7.5390   -4.9093   28.9655 C.2     1  UNL1        0.1040
      2 N           7.7887   -6.1907   29.7041 N.2     1  UNL1       -0.1483
      3 N           7.4047   -5.9812   31.1389 N.2     1  UNL1       -0.1520
      4 C           6.9176   -4.5702   31.2870 C.2     1  UNL1        0.0860
      5 C           6.4092   -3.8031   32.4715 C.3     1  UNL1        0.0697
      6 C           5.9838   -2.3735   32.3127 C.2     1  UNL1       -0.0378
      7 C           6.0668   -1.7111   30.9695 C.2     1  UNL1       -0.0080
      8 C           6.5752   -2.4781   29.7850 C.2     1  UNL1        0.0022
      9 C           7.0006   -3.9078   29.9438 C.2     1  UNL1        0.0350
     10 C           5.4754   -1.6063   33.4973 C.3     1  UNL1        0.0315
     11 C           4.3461   -1.2126   34.4026 C.3     1  UNL1        0.0179
     12 C           5.7241   -0.6713   34.6435 C.3     1  UNL1        0.0927
     13 C           7.1898   -0.4888   34.3818 C.2     1  UNL1        0.2293
     14 O           7.9736   -1.1267   33.2733 O.2     1  UNL1       -0.2744
     15 N           7.7340    0.4435   35.4232 N.am    1  UNL1       -0.2839
     16 C           6.6047    0.8372   36.3286 C.ar    1  UNL1        0.0467
     17 C           6.5470    1.7341   37.5295 C.ar    1  UNL1        0.0144
     18 C           5.2472    1.9420   38.2485 C.ar    1  UNL1        0.0013
     19 C           4.0049    1.2530   37.7666 C.ar    1  UNL1       -0.0002
     20 C           4.0626    0.3561   36.5657 C.ar    1  UNL1       -0.0026
     21 C           5.3625    0.1483   35.8467 C.ar    1  UNL1       -0.0008
     22 H           8.6684    0.7442   35.4992 H       1  UNL1        0.1549
     23 C           6.6836   -4.9003   26.5122 C.2     1  UNL1        0.0016
     24 C           7.7845   -4.6712   27.5049 C.2     1  UNL1        0.0209
     25 C           7.4204   -4.1860   22.1308 C.ar    1  UNL1       -0.0061
     26 C           6.4346   -3.3342   22.8742 C.ar    1  UNL1       -0.0029
     27 C           6.1890   -3.5723   24.3347 C.ar    1  UNL1       -0.0003
     28 C           6.9292   -4.6622   25.0518 C.ar    1  UNL1        0.0000
     29 C           7.9149   -5.5141   24.3083 C.ar    1  UNL1       -0.0003
     30 C           8.1605   -5.2760   22.8479 C.ar    1  UNL1       -0.0029
     31 C           7.6660   -3.9480   20.6703 C.3     1  UNL1        0.0992
     32 C           3.7257   -0.7760   17.4435 C.3     1  UNL1        0.0897
     33 N           4.7107   -1.5690   18.2502 N.3     1  UNL1       -0.2691
     34 C           5.9902   -0.9333   18.7072 C.3     1  UNL1        0.0897
     35 C           6.9753   -1.7263   19.5139 C.3     1  UNL1        0.0899
     36 N           6.6809   -3.1550   19.8636 N.3     1  UNL1       -0.2665
     37 C           5.4015   -3.7906   19.4066 C.3     1  UNL1        0.0899
     38 C           4.4163   -2.9976   18.5998 C.3     1  UNL1        0.0897
@<TRIPOS>BOND
     1    32    33    1
     2    33    34    1
     3    34    35    1
     4    35    36    1
     5    36    31    1
     6    31    25    1
     7    25    26   ar
     8    26    27   ar
     9    27    28   ar
    10    28    23    1
    11    23    24    2
    12    24     1    1
    13     1     2    2
    14     2     3    1
    15     3     4    2
    16     4     5    1
    17     5     6    1
    18    10     6    1
    19    10    11    1
    20    12    11    1
    21    12    13    1
    22    13    14    2
    23    13    15   am
    24    15    16    1
    25    16    17   ar
    26    17    18   ar
    27    18    19   ar
    28    19    20   ar
    29    20    21   ar
    30     6     7    2
    31     7     8    1
    32     8     9    2
    33    28    29   ar
    34    29    30   ar
    35    36    37    1
    36    37    38    1
    37    38    33    1
    38    30    25   ar
    39     9     1    1
    40     9     4    1
    41    12    10    1
    42    21    16   ar
    43    21    12    1
    44    15    22    1
@<TRIPOS>MOLECULE
*****
 38 44 0 0 0
SMALL
GASTEIGER

@<TRIPOS>ATOM
      1 C           7.3672   -4.5703   29.5759 C.2     1  UNL1        0.1040
      2 N           7.7893   -6.0066   29.4808 N.2     1  UNL1       -0.1483
      3 N           7.6760   -6.4290   28.0460 N.2     1  UNL1       -0.1520
      4 C           7.1839   -5.2538   27.2543 C.2     1  UNL1        0.0860
      5 C           6.8849   -5.0813   25.7946 C.3     1  UNL1        0.0697
      6 C           6.3950   -3.7601   25.2804 C.2     1  UNL1       -0.0378
      7 C           6.2041   -2.6114   26.2260 C.2     1  UNL1       -0.0080
      8 C           6.5031   -2.7839   27.6857 C.2     1  UNL1        0.0022
      9 C           6.9930   -4.1051   28.1998 C.2     1  UNL1        0.0350
     10 C           6.0960   -3.5875   23.8206 C.3     1  UNL1        0.0315
     11 C           5.1313   -3.6627   22.6745 C.3     1  UNL1        0.0179
     12 C           6.5428   -3.2134   22.4384 C.3     1  UNL1        0.0927
     13 C           7.9539   -2.8731   22.8166 C.2     1  UNL1        0.2293
     14 O           8.5398   -2.9485   24.1953 O.2     1  UNL1       -0.2744
     15 N           8.6761   -2.4442   21.5738 N.am    1  UNL1       -0.2839
     16 C           7.7114   -2.5195   20.4276 C.ar    1  UNL1        0.0467
     17 C           7.8632   -2.2165   18.9665 C.ar    1  UNL1        0.0144
     18 C           6.6965   -2.3889   18.0396 C.ar    1  UNL1        0.0013
     19 C           5.3780   -2.8643   18.5740 C.ar    1  UNL1       -0.0002
     20 C           5.2262   -3.1673   20.0352 C.ar    1  UNL1       -0.0026
     21 C           6.3929   -2.9948   20.9620 C.ar    1  UNL1       -0.0008
     22 H           9.6180   -2.1628   21.5199 H       1  UNL1        0.1549
     23 C           6.0889   -2.9717   31.1761 C.2     1  UNL1        0.0016
     24 C           7.3264   -3.7444   30.8274 C.2     1  UNL1        0.0209
     25 C           5.9667   -0.4939   34.9305 C.ar    1  UNL1       -0.0061
     26 C           7.2444   -0.6172   34.1545 C.ar    1  UNL1       -0.0029
     27 C           7.2852   -1.4431   32.9030 C.ar    1  UNL1       -0.0003
     28 C           6.0482   -2.1458   32.4275 C.ar    1  UNL1        0.0000
     29 C           4.7704   -2.0225   33.2036 C.ar    1  UNL1       -0.0003
     30 C           4.7297   -1.1966   34.4550 C.ar    1  UNL1       -0.0029
     31 C           5.9259    0.3320   36.1820 C.3     1  UNL1        0.0992
     32 C           1.4567    4.2392   37.0536 C.3     1  UNL1        0.0897
     33 N           2.5740    3.2624   36.8357 N.3     1  UNL1       -0.2691
     34 C           3.6302    3.5477   35.8095 C.3     1  UNL1        0.0897
     35 C           4.7475    2.5709   35.5916 C.3     1  UNL1        0.0899
     36 N           4.8087    1.3088   36.3999 N.3     1  UNL1       -0.2665
     37 C           3.7525    1.0234   37.4261 C.3     1  UNL1        0.0899
     38 C           2.6351    2.0003   37.6440 C.3     1  UNL1        0.0897
@<TRIPOS>BOND
     1    32    33    1
     2    33    34    1
     3    34    35    1
     4    35    36    1
     5    36    31    1
     6    31    25    1
     7    25    26   ar
     8    26    27   ar
     9    27    28   ar
    10    28    23    1
    11    23    24    2
    12    24     1    1
    13     1     2    2
    14     2     3    1
    15     3     4    2
    16     4     5    1
    17     5     6    1
    18    10     6    1
    19    10    11    1
    20    12    11    1
    21    12    13    1
    22    13    14    2
    23    13    15   am
    24    15    16    1
    25    16    17   ar
    26    17    18   ar
    27    18    19   ar
    28    19    20   ar
    29    20    21   ar
    30     6     7    2
    31     7     8    1
    32     8     9    2
    33    28    29   ar
    34    29    30   ar
    35    36    37    1
    36    37    38    1
    37    38    33    1
    38    30    25   ar
    39     9     1    1
    40     9     4    1
    41    12    10    1
    42    21    16   ar
    43    21    12    1
    44    15    22    1
@<TRIPOS>MOLECULE
*****
 38 44 0 0 0
SMALL
GASTEIGER

@<TRIPOS>ATOM
      1 C           7.1495   -5.2852   28.2863 C.2     1  UNL1        0.1040
      2 N           7.6707   -6.5102   28.9776 N.2     1  UNL1       -0.1483
      3 N           7.8953   -6.1679   30.4206 N.2     1  UNL1       -0.1520
      4 C           7.5129   -4.7313   30.6212 C.2     1  UNL1        0.0860
      5 C           7.5248   -3.8495   31.8345 C.3     1  UNL1        0.0697
      6 C           7.0759   -2.4222   31.7287 C.2     1  UNL1       -0.0378
      7 C           6.6150   -1.8767   30.4096 C.2     1  UNL1       -0.0080
      8 C           6.6030   -2.7585   29.1963 C.2     1  UNL1        0.0022
      9 C           7.0520   -4.1858   29.3021 C.2     1  UNL1        0.0350
     10 C           7.0878   -1.5403   32.9421 C.3     1  UNL1        0.0315
     11 C           7.8252   -0.6312   33.8800 C.3     1  UNL1        0.0179
     12 C           6.3711   -0.9220   34.1058 C.3     1  UNL1        0.0927
     13 C           5.0379   -1.5465   33.8185 C.2     1  UNL1        0.2293
     14 O           4.7239   -2.4696   32.6786 O.2     1  UNL1       -0.2744
     15 N           4.0739   -1.0858   34.8713 N.am    1  UNL1       -0.2839
     16 C           4.8112   -0.1766   35.8092 C.ar    1  UNL1        0.0467
     17 C           4.3733    0.5721   37.0329 C.ar    1  UNL1        0.0144
     18 C           5.3551    1.4221   37.7835 C.ar    1  UNL1        0.0013
     19 C           6.7750    1.5234   37.3103 C.ar    1  UNL1       -0.0002
     20 C           7.2129    0.7746   36.0867 C.ar    1  UNL1       -0.0026
     21 C           6.2311   -0.0754   35.3361 C.ar    1  UNL1       -0.0008
     22 H           3.1239   -1.3362   34.9354 H       1  UNL1        0.1549
     23 C           7.5097   -4.2021   25.9523 C.2     1  UNL1        0.0016
     24 C           6.7891   -5.1784   26.8341 C.2     1  UNL1        0.0209
     25 C           6.4285   -3.8819   21.5959 C.ar    1  UNL1       -0.0061
     26 C           7.7401   -4.4867   22.0006 C.ar    1  UNL1       -0.0029
     27 C           8.1005   -4.5935   23.4528 C.ar    1  UNL1       -0.0003
     28 C           7.1493   -4.0954   24.5002 C.ar    1  UNL1        0.0000
     29 C           5.8376   -3.4906   24.0955 C.ar    1  UNL1       -0.0003
     30 C           5.4772   -3.3838   22.6434 C.ar    1  UNL1       -0.0029
     31 C           6.0680   -3.7751   20.1437 C.3     1  UNL1        0.0992
     32 C           2.7658    0.8436   18.2041 C.3     1  UNL1        0.0897
     33 N           3.5913   -0.3111   18.6890 N.3     1  UNL1       -0.2691
     34 C           5.0860   -0.2667   18.5703 C.3     1  UNL1        0.0897
     35 C           5.9116   -1.4213   19.0552 C.3     1  UNL1        0.0899
     36 N           5.2425   -2.6205   19.6588 N.3     1  UNL1       -0.2665
     37 C           3.7479   -2.6649   19.7776 C.3     1  UNL1        0.0899
     38 C           2.9223   -1.5102   19.2926 C.3     1  UNL1        0.0897
@<TRIPOS>BOND
     1    32    33    1
     2    33    34    1
     3    34    35    1
     4    35    36    1
     5    36    31    1
     6    31    25    1
     7    25    26   ar
     8    26    27   ar
     9    27    28   ar
    10    28    23    1
    11    23    24    2
    12    24     1    1
    13     1     2    2
    14     2     3    1
    15     3     4    2
    16     4     5    1
    17     5     6    1
    18    10     6    1
    19    10    11    1
    20    12    11    1
    21    12    13    1
    22    13    14    2
    23    13    15   am
    24    15    16    1
    25    16    17   ar
    26    17    18   ar
    27    18    19   ar
    28    19    20   ar
    29    20    21   ar
    30     6     7    2
    31     7     8    1
    32     8     9    2
    33    28    29   ar
    34    29    30   ar
    35    36    37    1
    36    37    38    1
    37    38    33    1
    38    30    25   ar
    39     9     1    1
    40     9     4    1
    41    12    10    1
    42    21    16   ar
    43    21    12    1
    44    15    22    1
@<TRIPOS>MOLECULE
*****
 38 44 0 0 0
SMALL
GASTEIGER

@<TRIPOS>ATOM
      1 C           0.4533    2.4418   27.7880 C.2     1  UNL1        0.1040
      2 N          -0.9646    2.6502   27.3454 N.2     1  UNL1       -0.1483
      3 N          -1.0919    2.1381   25.9413 N.2     1  UNL1       -0.1520
      4 C           0.2474    1.6132   25.5162 C.2     1  UNL1        0.0860
      5 C           0.7207    0.9886   24.2372 C.3     1  UNL1        0.0697
      6 C           2.1491    0.5517   24.0996 C.2     1  UNL1       -0.0378
      7 C           3.1041    0.7394   25.2410 C.2     1  UNL1       -0.0080
      8 C           2.6308    1.3640   26.5200 C.2     1  UNL1        0.0022
      9 C           1.2024    1.8009   26.6575 C.2     1  UNL1        0.0350
     10 C           2.6224   -0.0730   22.8206 C.3     1  UNL1        0.0315
     11 C           2.9622   -1.2947   22.0196 C.3     1  UNL1        0.0179
     12 C           3.1025    0.0669   21.4064 C.3     1  UNL1        0.0927
     13 C           3.0381    1.5650   21.3665 C.2     1  UNL1        0.2293
     14 O           2.6043    2.4591   22.4900 O.2     1  UNL1       -0.2744
     15 N           3.4838    2.0120   20.0057 N.am    1  UNL1       -0.2839
     16 C           3.8236    0.7902   19.2047 C.ar    1  UNL1        0.0467
     17 C           4.3171    0.6169   17.7988 C.ar    1  UNL1        0.0144
     18 C           4.5750   -0.7585   17.2587 C.ar    1  UNL1        0.0013
     19 C           4.3394   -1.9606   18.1244 C.ar    1  UNL1       -0.0002
     20 C           3.8458   -1.7873   19.5302 C.ar    1  UNL1       -0.0026
     21 C           3.5880   -0.4120   20.0703 C.ar    1  UNL1       -0.0008
     22 H           3.5429    2.9437   19.6932 H       1  UNL1        0.1549
     23 C           0.5443    2.1083   30.3631 C.2     1  UNL1        0.0016
     24 C           1.0223    2.8098   29.1264 C.2     1  UNL1        0.0209
     25 C           2.2513    3.2122   34.3777 C.ar    1  UNL1       -0.0061
     26 C           1.2420    4.1062   33.7204 C.ar    1  UNL1       -0.0029
     27 C           0.6730    3.7383   32.3821 C.ar    1  UNL1       -0.0003
     28 C           1.1133    2.4763   31.7013 C.ar    1  UNL1        0.0000
     29 C           2.1226    1.5823   32.3587 C.ar    1  UNL1       -0.0003
     30 C           2.6915    1.9502   33.6969 C.ar    1  UNL1       -0.0029
     31 C           2.8203    3.5801   35.7160 C.3     1  UNL1        0.0992
     32 C           0.8406    0.8409   40.6735 C.3     1  UNL1        0.0897
     33 N           1.3355    1.5257   39.4342 N.3     1  UNL1       -0.2691
     34 C           0.7228    2.8239   38.9990 C.3     1  UNL1        0.0897
     35 C           1.2177    3.5087   37.7597 C.3     1  UNL1        0.0899
     36 N           2.3254    2.8953   36.9554 N.3     1  UNL1       -0.2665
     37 C           2.9381    1.5972   37.3904 C.3     1  UNL1        0.0899
     38 C           2.4431    0.9123   38.6299 C.3     1  UNL1        0.0897
@<TRIPOS>BOND
     1    32    33    1
     2    33    34    1
     3    34    35    1
     4    35    36    1
     5    36    31    1
     6    31    25    1
     7    25    26   ar
     8    26    27   ar
     9    27    28   ar
    10    28    23    1
    11    23    24    2
    12    24     1    1
    13     1     2    2
    14     2     3    1
    15     3     4    2
    16     4     5    1
    17     5     6    1
    18    10     6    1
    19    10    11    1
    20    12    11    1
    21    12    13    1
    22    13    14    2
    23    13    15   am
    24    15    16    1
    25    16    17   ar
    26    17    18   ar
    27    18    19   ar
    28    19    20   ar
    29    20    21   ar
    30     6     7    2
    31     7     8    1
    32     8     9    2
    33    28    29   ar
    34    29    30   ar
    35    36    37    1
    36    37    38    1
    37    38    33    1
    38    30    25   ar
    39     9     1    1
    40     9     4    1
    41    12    10    1
    42    21    16   ar
    43    21    12    1
    44    15    22    1
@<TRIPOS>MOLECULE
*****
 38 44 0 0 0
SMALL
GASTEIGER

@<TRIPOS>ATOM
      1 C           6.7126   -3.5721   29.6499 C.2     1  UNL1        0.1040
      2 N           6.6607   -5.0702   29.7056 N.2     1  UNL1       -0.1483
      3 N           6.6812   -5.5874   28.2977 N.2     1  UNL1       -0.1520
      4 C           6.7457   -4.4089   27.3719 C.2     1  UNL1        0.0860
      5 C           6.7894   -4.3091   25.8759 C.3     1  UNL1        0.0697
      6 C           6.8524   -2.9637   25.2156 C.2     1  UNL1       -0.0378
      7 C           6.8717   -1.7183   26.0513 C.2     1  UNL1       -0.0080
      8 C           6.8281   -1.8181   27.5473 C.2     1  UNL1        0.0022
      9 C           6.7651   -3.1634   28.2076 C.2     1  UNL1        0.0350
     10 C           6.8960   -2.8639   23.7195 C.3     1  UNL1        0.0315
     11 C           7.6658   -2.9402   22.4344 C.3     1  UNL1        0.0179
     12 C           6.2017   -2.6145   22.4134 C.3     1  UNL1        0.0927
     13 C           4.8465   -2.3576   23.0027 C.2     1  UNL1        0.2293
     14 O           4.4994   -2.3875   24.4617 O.2     1  UNL1       -0.2744
     15 N           3.8993   -2.0654   21.8769 N.am    1  UNL1       -0.2839
     16 C           4.6691   -2.1418   20.5918 C.ar    1  UNL1        0.0467
     17 C           4.2582   -1.9461   19.1625 C.ar    1  UNL1        0.0144
     18 C           5.2703   -2.0899   18.0648 C.ar    1  UNL1        0.0013
     19 C           6.6933   -2.4293   18.3964 C.ar    1  UNL1       -0.0002
     20 C           7.1042   -2.6249   19.8256 C.ar    1  UNL1       -0.0026
     21 C           6.0921   -2.4811   20.9233 C.ar    1  UNL1       -0.0008
     22 H           2.9407   -1.8596   21.9659 H       1  UNL1        0.1549
     23 C           5.4167   -2.1012   31.3550 C.2     1  UNL1        0.0016
     24 C           6.7119   -2.6454   30.8294 C.2     1  UNL1        0.0209
     25 C           5.4151    0.6788   34.8936 C.ar    1  UNL1       -0.0061
     26 C           4.7366   -0.6556   34.9879 C.ar    1  UNL1       -0.0029
     27 C           4.7371   -1.5824   33.8084 C.ar    1  UNL1       -0.0003
     28 C           5.4162   -1.1746   32.5345 C.ar    1  UNL1        0.0000
     29 C           6.0947    0.1599   32.4403 C.ar    1  UNL1       -0.0003
     30 C           6.0942    1.0865   33.6198 C.ar    1  UNL1       -0.0029
     31 C           5.4146    1.6055   36.0731 C.3     1  UNL1        0.0992
     32 C           0.3809    2.4409   39.2297 C.3     1  UNL1        0.0897
     33 N           1.6393    2.2321   38.4406 N.3     1  UNL1       -0.2691
     34 C           1.9882    3.1698   37.3230 C.3     1  UNL1        0.0897
     35 C           3.2465    2.9610   36.5339 C.3     1  UNL1        0.0899
     36 N           4.1562    1.8144   36.8623 N.3     1  UNL1       -0.2665
     37 C           3.8074    0.8766   37.9798 C.3     1  UNL1        0.0899
     38 C           2.5490    1.0854   38.7690 C.3     1  UNL1        0.0897
@<TRIPOS>BOND
     1    32    33    1
     2    33    34    1
     3    34    35    1
     4    35    36    1
     5    36    31    1
     6    31    25    1
     7    25    26   ar
     8    26    27   ar
     9    27    28   ar
    10    28    23    1
    11    23    24    2
    12    24     1    1
    13     1     2    2
    14     2     3    1
    15     3     4    2
    16     4     5    1
    17     5     6    1
    18    10     6    1
    19    10    11    1
    20    12    11    1
    21    12    13    1
    22    13    14    2
    23    13    15   am
    24    15    16    1
    25    16    17   ar
    26    17    18   ar
    27    18    19   ar
    28    19    20   ar
    29    20    21   ar
    30     6     7    2
    31     7     8    1
    32     8     9    2
    33    28    29   ar
    34    29    30   ar
    35    36    37    1
    36    37    38    1
    37    38    33    1
    38    30    25   ar
    39     9     1    1
    40     9     4    1
    41    12    10    1
    42    21    16   ar
    43    21    12    1
    44    15    22    1
@<TRIPOS>MOLECULE
*****
 38 44 0 0 0
SMALL
GASTEIGER

@<TRIPOS>ATOM
      1 C           7.4599   -5.1254   26.8662 C.2     1  UNL1        0.1040
      2 N           8.0085   -6.3866   27.4650 N.2     1  UNL1       -0.1483
      3 N           7.8546   -6.2977   28.9544 N.2     1  UNL1       -0.1520
      4 C           7.2108   -4.9816   29.2761 C.2     1  UNL1        0.0860
      5 C           6.8153   -4.3494   30.5776 C.3     1  UNL1        0.0697
      6 C           6.1757   -2.9926   30.5884 C.2     1  UNL1       -0.0378
      7 C           5.9318   -2.2681   29.2978 C.2     1  UNL1       -0.0080
      8 C           6.3273   -2.9003   27.9964 C.2     1  UNL1        0.0022
      9 C           6.9669   -4.2571   27.9855 C.2     1  UNL1        0.0350
     10 C           5.7801   -2.3602   31.8899 C.3     1  UNL1        0.0315
     11 C           4.7460   -2.0932   32.9429 C.3     1  UNL1        0.0179
     12 C           6.1292   -1.5321   33.0908 C.3     1  UNL1        0.0927
     13 C           7.5537   -1.2767   32.6965 C.2     1  UNL1        0.2293
     14 O           8.2282   -1.7785   31.4543 O.2     1  UNL1       -0.2744
     15 N           8.1852   -0.4313   33.7626 N.am    1  UNL1       -0.2839
     16 C           7.1510   -0.1643   34.8158 C.ar    1  UNL1        0.0467
     17 C           7.2022    0.6105   36.0991 C.ar    1  UNL1        0.0144
     18 C           5.9827    0.7049   36.9673 C.ar    1  UNL1        0.0013
     19 C           4.7120    0.0246   36.5521 C.ar    1  UNL1       -0.0002
     20 C           4.6608   -0.7502   35.2688 C.ar    1  UNL1       -0.0026
     21 C           5.8803   -0.8446   34.4006 C.ar    1  UNL1       -0.0008
     22 H           9.1152   -0.1084   33.7698 H       1  UNL1        0.1549
     23 C           6.1610   -4.2213   24.8057 C.2     1  UNL1        0.0016
     24 C           7.4125   -4.7913   25.4046 C.2     1  UNL1        0.0209
     25 C           6.0190   -3.2190   20.4211 C.ar    1  UNL1       -0.0061
     26 C           7.3263   -3.5676   21.0688 C.ar    1  UNL1       -0.0029
     27 C           7.3736   -3.9017   22.5304 C.ar    1  UNL1       -0.0003
     28 C           6.1137   -3.8872   23.3442 C.ar    1  UNL1        0.0000
     29 C           4.8064   -3.5387   22.6964 C.ar    1  UNL1       -0.0003
     30 C           4.7591   -3.2046   21.2349 C.ar    1  UNL1       -0.0029
     31 C           5.9717   -2.8849   18.9595 C.3     1  UNL1        0.0992
     32 C           5.9326    2.8489   17.1925 C.3     1  UNL1        0.0897
     33 N           5.9424    1.4154   17.6343 N.3     1  UNL1       -0.2691
     34 C           7.2446    0.6871   17.7887 C.3     1  UNL1        0.0897
     35 C           7.2543   -0.7464   18.2305 C.3     1  UNL1        0.0899
     36 N           5.9619   -1.4515   18.5177 N.3     1  UNL1       -0.2665
     37 C           4.6598   -0.7232   18.3633 C.3     1  UNL1        0.0899
     38 C           4.6500    0.7103   17.9215 C.3     1  UNL1        0.0897
@<TRIPOS>BOND
     1    32    33    1
     2    33    34    1
     3    34    35    1
     4    35    36    1
     5    36    31    1
     6    31    25    1
     7    25    26   ar
     8    26    27   ar
     9    27    28   ar
    10    28    23    1
    11    23    24    2
    12    24     1    1
    13     1     2    2
    14     2     3    1
    15     3     4    2
    16     4     5    1
    17     5     6    1
    18    10     6    1
    19    10    11    1
    20    12    11    1
    21    12    13    1
    22    13    14    2
    23    13    15   am
    24    15    16    1
    25    16    17   ar
    26    17    18   ar
    27    18    19   ar
    28    19    20   ar
    29    20    21   ar
    30     6     7    2
    31     7     8    1
    32     8     9    2
    33    28    29   ar
    34    29    30   ar
    35    36    37    1
    36    37    38    1
    37    38    33    1
    38    30    25   ar
    39     9     1    1
    40     9     4    1
    41    12    10    1
    42    21    16   ar
    43    21    12    1
    44    15    22    1
@<TRIPOS>MOLECULE
*****
 38 44 0 0 0
SMALL
GASTEIGER

@<TRIPOS>ATOM
      1 C           4.8561   -3.0452   20.4922 C.2     1  UNL1        0.1040
      2 N           5.3237   -3.5269   19.1508 N.2     1  UNL1       -0.1483
      3 N           4.7606   -2.6091   18.1065 N.2     1  UNL1       -0.1520
      4 C           3.9451   -1.5600   18.8025 C.2     1  UNL1        0.0860
      5 C           3.1564   -0.3942   18.2842 C.3     1  UNL1        0.0697
      6 C           2.4267    0.5021   19.2403 C.2     1  UNL1       -0.0378
      7 C           2.4857    0.2326   20.7147 C.2     1  UNL1       -0.0080
      8 C           3.2744   -0.9332   21.2331 C.2     1  UNL1        0.0022
      9 C           4.0041   -1.8296   20.2769 C.2     1  UNL1        0.0350
     10 C           1.6379    1.6681   18.7220 C.3     1  UNL1        0.0315
     11 C           0.3337    2.2575   18.2733 C.3     1  UNL1        0.0179
     12 C           1.5760    3.0979   18.2730 C.3     1  UNL1        0.0927
     13 C           3.0319    3.3915   18.4835 C.2     1  UNL1        0.2293
     14 O           4.0617    2.4258   18.9904 O.2     1  UNL1       -0.2744
     15 N           3.2771    4.8202   18.0982 N.am    1  UNL1       -0.2839
     16 C           1.9728    5.4097   17.6494 C.ar    1  UNL1        0.0467
     17 C           1.6066    6.7782   17.1564 C.ar    1  UNL1        0.0144
     18 C           0.1891    7.0822   16.7715 C.ar    1  UNL1        0.0013
     19 C          -0.8622    6.0178   16.8795 C.ar    1  UNL1       -0.0002
     20 C          -0.4960    4.6493   17.3725 C.ar    1  UNL1       -0.0026
     21 C           0.9215    4.3453   17.7575 C.ar    1  UNL1       -0.0008
     22 H           4.1422    5.2888   18.1335 H       1  UNL1        0.1549
     23 C           6.6140   -3.8279   22.2378 C.2     1  UNL1        0.0016
     24 C           5.1832   -3.6695   21.8163 C.2     1  UNL1        0.0209
     25 C           7.5950   -5.7007   26.2102 C.ar    1  UNL1       -0.0061
     26 C           8.1042   -6.3205   24.9427 C.ar    1  UNL1       -0.0029
     27 C           7.7772   -5.6962   23.6185 C.ar    1  UNL1       -0.0003
     28 C           6.9410   -4.4522   23.5619 C.ar    1  UNL1        0.0000
     29 C           6.4319   -3.8324   24.8295 C.ar    1  UNL1       -0.0003
     30 C           6.7589   -4.4567   26.1536 C.ar    1  UNL1       -0.0029
     31 C           7.9220   -6.3250   27.5344 C.3     1  UNL1        0.0992
     32 C           8.3394   -2.9012   32.4439 C.3     1  UNL1        0.0897
     33 N           8.2350   -3.7571   31.2166 N.3     1  UNL1       -0.2691
     34 C           9.3193   -3.7183   30.1806 C.3     1  UNL1        0.0897
     35 C           9.2149   -4.5742   28.9533 C.3     1  UNL1        0.0899
     36 N           8.0264   -5.4691   28.7618 N.3     1  UNL1       -0.2665
     37 C           6.9422   -5.5079   29.7976 C.3     1  UNL1        0.0899
     38 C           7.0465   -4.6520   31.0250 C.3     1  UNL1        0.0897
@<TRIPOS>BOND
     1    32    33    1
     2    33    34    1
     3    34    35    1
     4    35    36    1
     5    36    31    1
     6    31    25    1
     7    25    26   ar
     8    26    27   ar
     9    27    28   ar
    10    28    23    1
    11    23    24    2
    12    24     1    1
    13     1     2    2
    14     2     3    1
    15     3     4    2
    16     4     5    1
    17     5     6    1
    18    10     6    1
    19    10    11    1
    20    12    11    1
    21    12    13    1
    22    13    14    2
    23    13    15   am
    24    15    16    1
    25    16    17   ar
    26    17    18   ar
    27    18    19   ar
    28    19    20   ar
    29    20    21   ar
    30     6     7    2
    31     7     8    1
    32     8     9    2
    33    28    29   ar
    34    29    30   ar
    35    36    37    1
    36    37    38    1
    37    38    33    1
    38    30    25   ar
    39     9     1    1
    40     9     4    1
    41    12    10    1
    42    21    16   ar
    43    21    12    1
    44    15    22    1
@<TRIPOS>MOLECULE
*****
 38 44 0 0 0
SMALL
GASTEIGER

@<TRIPOS>ATOM
      1 C          -2.4239    4.1281   19.4101 C.2     1  UNL1        0.1040
      2 N          -2.5601    4.2297   17.9198 N.2     1  UNL1       -0.1483
      3 N          -1.3543    3.5885   17.2993 N.2     1  UNL1       -0.1520
      4 C          -0.4729    3.0907   18.4063 C.2     1  UNL1        0.0860
      5 C           0.8463    2.3767   18.3948 C.3     1  UNL1        0.0697
      6 C           1.5044    1.9963   19.6880 C.2     1  UNL1       -0.0378
      7 C           0.8433    2.3299   20.9925 C.2     1  UNL1       -0.0080
      8 C          -0.4758    3.0438   21.0040 C.2     1  UNL1        0.0022
      9 C          -1.1339    3.4242   19.7108 C.2     1  UNL1        0.0350
     10 C           2.8236    1.2824   19.6766 C.3     1  UNL1        0.0315
     11 C           4.3220    1.3228   19.6232 C.3     1  UNL1        0.0179
     12 C           3.6099    0.0055   19.7103 C.3     1  UNL1        0.0927
     13 C           2.4228   -0.9075   19.7945 C.2     1  UNL1        0.2293
     14 O           0.9844   -0.4831   19.8237 O.2     1  UNL1       -0.2744
     15 N           2.9266   -2.3195   19.8443 N.am    1  UNL1       -0.2839
     16 C           4.4251   -2.2791   19.7909 C.ar    1  UNL1        0.0467
     17 C           5.4596   -3.3652   19.8070 C.ar    1  UNL1        0.0144
     18 C           6.9165   -3.0143   19.7403 C.ar    1  UNL1        0.0013
     19 C           7.3388   -1.5773   19.6575 C.ar    1  UNL1       -0.0002
     20 C           6.3043   -0.4913   19.6414 C.ar    1  UNL1       -0.0026
     21 C           4.8475   -0.8422   19.7081 C.ar    1  UNL1       -0.0008
     22 H           2.3713   -3.1304   19.9020 H       1  UNL1        0.1549
     23 C          -4.4165    3.7104   21.0242 C.2     1  UNL1        0.0016
     24 C          -3.4054    4.6406   20.4221 C.2     1  UNL1        0.0209
     25 C          -7.3609    5.2479   24.0601 C.ar    1  UNL1       -0.0061
     26 C          -6.2422    4.3460   24.4902 C.ar    1  UNL1       -0.0029
     27 C          -5.2607    3.8335   23.4782 C.ar    1  UNL1       -0.0003
     28 C          -5.3979    4.2229   22.0362 C.ar    1  UNL1        0.0000
     29 C          -6.5167    5.1249   21.6061 C.ar    1  UNL1       -0.0003
     30 C          -7.4981    5.6373   22.6180 C.ar    1  UNL1       -0.0029
     31 C          -8.3424    5.7604   25.0721 C.3     1  UNL1        0.0992
     32 C         -14.2303    5.4725   23.9541 C.3     1  UNL1        0.0897
     33 N         -12.7583    5.5444   24.2336 N.3     1  UNL1       -0.2691
     34 C         -12.0445    6.8617   24.1605 C.3     1  UNL1        0.0897
     35 C         -10.5726    6.9337   24.4399 C.3     1  UNL1        0.0899
     36 N          -9.8143    5.6884   24.7926 N.3     1  UNL1       -0.2665
     37 C         -10.5280    4.3712   24.8657 C.3     1  UNL1        0.0899
     38 C         -12.0001    4.2991   24.5862 C.3     1  UNL1        0.0897
@<TRIPOS>BOND
     1    32    33    1
     2    33    34    1
     3    34    35    1
     4    35    36    1
     5    36    31    1
     6    31    25    1
     7    25    26   ar
     8    26    27   ar
     9    27    28   ar
    10    28    23    1
    11    23    24    2
    12    24     1    1
    13     1     2    2
    14     2     3    1
    15     3     4    2
    16     4     5    1
    17     5     6    1
    18    10     6    1
    19    10    11    1
    20    12    11    1
    21    12    13    1
    22    13    14    2
    23    13    15   am
    24    15    16    1
    25    16    17   ar
    26    17    18   ar
    27    18    19   ar
    28    19    20   ar
    29    20    21   ar
    30     6     7    2
    31     7     8    1
    32     8     9    2
    33    28    29   ar
    34    29    30   ar
    35    36    37    1
    36    37    38    1
    37    38    33    1
    38    30    25   ar
    39     9     1    1
    40     9     4    1
    41    12    10    1
    42    21    16   ar
    43    21    12    1
    44    15    22    1
@<TRIPOS>MOLECULE
*****
 38 44 0 0 0
SMALL
GASTEIGER

@<TRIPOS>ATOM
      1 C           2.3715    2.6556   29.0266 C.2     1  UNL1        0.1040
      2 N           2.7164    4.0769   29.3596 N.2     1  UNL1       -0.1483
      3 N           1.6207    4.9555   28.8328 N.2     1  UNL1       -0.1520
      4 C           0.5986    4.0771   28.1742 C.2     1  UNL1        0.0860
      5 C          -0.6947    4.3880   27.4809 C.3     1  UNL1        0.0697
      6 C          -1.5240    3.2774   26.9073 C.2     1  UNL1       -0.0378
      7 C          -1.0599    1.8561   27.0271 C.2     1  UNL1       -0.0080
      8 C           0.2333    1.5452   27.7204 C.2     1  UNL1        0.0022
      9 C           1.0626    2.6557   28.2939 C.2     1  UNL1        0.0350
     10 C          -2.8174    3.5883   26.2140 C.3     1  UNL1        0.0315
     11 C          -4.2808    3.9106   26.2782 C.3     1  UNL1        0.0179
     12 C          -3.5940    3.8043   24.9490 C.3     1  UNL1        0.0927
     13 C          -2.4403    3.5806   24.0167 C.2     1  UNL1        0.2293
     14 O          -1.0324    3.2545   24.4185 O.2     1  UNL1       -0.2744
     15 N          -2.9418    3.7404   22.6121 N.am    1  UNL1       -0.2839
     16 C          -4.4054    4.0628   22.6762 C.ar    1  UNL1        0.0467
     17 C          -5.4231    4.3255   21.6061 C.ar    1  UNL1        0.0144
     18 C          -6.8439    4.6277   21.9803 C.ar    1  UNL1        0.0013
     19 C          -7.2469    4.6672   23.4246 C.ar    1  UNL1       -0.0002
     20 C          -6.2292    4.4044   24.4947 C.ar    1  UNL1       -0.0026
     21 C          -4.8084    4.1023   24.1205 C.ar    1  UNL1       -0.0008
     22 H          -2.4047    3.6497   21.7920 H       1  UNL1        0.1549
     23 C           3.6738    1.2381   30.7715 C.2     1  UNL1        0.0016
     24 C           3.1916    1.4464   29.3665 C.2     1  UNL1        0.0209
     25 C           6.1339   -2.3894   31.7912 C.ar    1  UNL1       -0.0061
     26 C           6.6894   -1.3398   30.8749 C.ar    1  UNL1       -0.0029
     27 C           5.8694   -0.1306   30.5349 C.ar    1  UNL1       -0.0003
     28 C           4.4938    0.0289   31.1114 C.ar    1  UNL1        0.0000
     29 C           3.9382   -1.0207   32.0277 C.ar    1  UNL1       -0.0003
     30 C           4.7583   -2.2298   32.3676 C.ar    1  UNL1       -0.0029
     31 C           6.9539   -3.5986   32.1311 C.3     1  UNL1        0.0992
     32 C           8.4795   -7.4945   27.8307 C.3     1  UNL1        0.0897
     33 N           8.0981   -6.5206   28.9058 N.3     1  UNL1       -0.2691
     34 C           6.9638   -5.5645   28.6837 C.3     1  UNL1        0.0897
     35 C           6.5824   -4.5905   29.7588 C.3     1  UNL1        0.0899
     36 N           7.3353   -4.5725   31.0560 N.3     1  UNL1       -0.2665
     37 C           8.4696   -5.5286   31.2782 C.3     1  UNL1        0.0899
     38 C           8.8510   -6.5026   30.2031 C.3     1  UNL1        0.0897
@<TRIPOS>BOND
     1    32    33    1
     2    33    34    1
     3    34    35    1
     4    35    36    1
     5    36    31    1
     6    31    25    1
     7    25    26   ar
     8    26    27   ar
     9    27    28   ar
    10    28    23    1
    11    23    24    2
    12    24     1    1
    13     1     2    2
    14     2     3    1
    15     3     4    2
    16     4     5    1
    17     5     6    1
    18    10     6    1
    19    10    11    1
    20    12    11    1
    21    12    13    1
    22    13    14    2
    23    13    15   am
    24    15    16    1
    25    16    17   ar
    26    17    18   ar
    27    18    19   ar
    28    19    20   ar
    29    20    21   ar
    30     6     7    2
    31     7     8    1
    32     8     9    2
    33    28    29   ar
    34    29    30   ar
    35    36    37    1
    36    37    38    1
    37    38    33    1
    38    30    25   ar
    39     9     1    1
    40     9     4    1
    41    12    10    1
    42    21    16   ar
    43    21    12    1
    44    15    22    1
