@<TRIPOS>MOLECULE
*****
 31 34 0 0 0
SMALL
GASTEIGER

@<TRIPOS>ATOM
      1 C          -4.7871  -19.7424   20.8175 C.3     1  UNL1        0.1176
      2 N          -6.1851  -19.2900   21.1192 N.am    1  UNL1       -0.2468
      3 C          -7.4406  -19.8405   20.5104 C.2     1  UNL1        0.3141
      4 O          -7.5186  -20.9399   19.4929 O.2     1  UNL1       -0.2519
      5 N          -8.6045  -19.0985   21.0976 N.am    1  UNL1       -0.2077
      6 C          -8.0683  -18.0894   22.0693 C.2     1  UNL1        0.2616
      7 O          -9.0311  -17.2046   22.8043 O.2     1  UNL1       -0.2718
      8 C          -6.5730  -18.2078   22.0827 C.3     1  UNL1        0.2205
      9 C          -6.9609  -17.1256   23.0462 C.2     1  UNL1        0.2584
     10 O          -8.2831  -16.5536   23.4641 O.2     1  UNL1       -0.2719
     11 N          -5.7054  -16.5751   23.6550 N.am    1  UNL1       -0.2514
     12 C          -4.5415  -17.3171   23.0678 C.ar    1  UNL1        0.0527
     13 C          -3.0627  -17.2043   23.2924 C.ar    1  UNL1        0.0155
     14 C          -2.1202  -18.1006   22.5452 C.ar    1  UNL1        0.0127
     15 C          -2.6564  -19.1096   21.5735 C.ar    1  UNL1        0.0575
     16 CL         -1.7138  -20.0059   20.8263 Cl      1  UNL1       -0.0823
     17 C          -4.1352  -19.2224   21.3489 C.ar    1  UNL1        0.0108
     18 C          -5.0777  -18.3262   22.0961 C.ar    1  UNL1        0.0252
     19 C         -10.0506  -19.3256   20.7705 C.3     1  UNL1        0.1313
     20 C         -11.1107  -18.5155   21.4561 C.ar    1  UNL1        0.0265
     21 C         -11.6363  -18.9461   22.7933 C.ar    1  UNL1        0.0110
     22 C         -12.6964  -18.1360   23.4789 C.ar    1  UNL1        0.0576
     23 CL        -13.2220  -18.5667   24.8161 Cl      1  UNL1       -0.0823
     24 C         -13.2310  -16.8952   22.8270 C.ar    1  UNL1        0.0137
     25 C         -12.7054  -16.4646   21.4897 C.ar    1  UNL1        0.0302
     26 C         -11.6453  -17.2747   20.8042 C.ar    1  UNL1        0.1378
     27 F         -11.1198  -16.8441   19.4670 F       1  UNL1       -0.2044
     28 C          -5.6274  -15.4757   24.6725 C.3     1  UNL1        0.1398
     29 C          -5.5191  -15.8097   26.1309 C.2     1  UNL1        0.0708
     30 O          -4.5177  -16.8253   26.5953 O.co2   1  UNL1       -0.5474
     31 O          -6.4122  -15.1281   27.1247 O.co2   1  UNL1       -0.5474
@<TRIPOS>UNITY_ATOM_ATTR
30 1
charge -1
@<TRIPOS>BOND
     1     1     2    1
     2     2     3   am
     3     3     4    2
     4     3     5   am
     5     5    19    1
     6    19    20    1
     7    20    21   ar
     8    21    22   ar
     9    22    23    1
    10    22    24   ar
    11    24    25   ar
    12    25    26   ar
    13    26    27    1
    14     5     6   am
    15     6     7    2
    16     6     8    1
    17     8     9    1
    18     9    10    2
    19     9    11   am
    20    11    28    1
    21    28    29    1
    22    29    30   ar
    23    29    31   ar
    24    11    12    1
    25    12    13   ar
    26    13    14   ar
    27    14    15   ar
    28    15    16    1
    29    15    17   ar
    30    17    18   ar
    31     8     2    1
    32    18    12   ar
    33    26    20   ar
    34    18     8    1
@<TRIPOS>MOLECULE
*****
 31 34 0 0 0
SMALL
GASTEIGER

@<TRIPOS>ATOM
      1 C          -4.4650  -19.7516   20.7624 C.3     1  UNL1        0.1176
      2 N          -5.8679  -19.3946   21.1555 N.am    1  UNL1       -0.2468
      3 C          -7.1198  -20.0356   20.6343 C.2     1  UNL1        0.3141
      4 O          -7.1887  -21.1463   19.6285 O.2     1  UNL1       -0.2519
      5 N          -8.2908  -19.3711   21.2955 N.am    1  UNL1       -0.2077
      6 C          -7.7626  -18.3193   22.2254 C.2     1  UNL1        0.2616
      7 O          -8.7335  -17.4972   23.0201 O.2     1  UNL1       -0.2718
      8 C          -6.2651  -18.3338   22.1390 C.3     1  UNL1        0.2205
      9 C          -6.6623  -17.2731   23.1223 C.2     1  UNL1        0.2584
     10 O          -7.9904  -16.7905   23.6258 O.2     1  UNL1       -0.2719
     11 N          -5.4104  -16.6320   23.6435 N.am    1  UNL1       -0.2514
     12 C          -4.2394  -17.2966   22.9823 C.ar    1  UNL1        0.0527
     13 C          -2.7604  -17.0798   23.1068 C.ar    1  UNL1        0.0155
     14 C          -1.8097  -17.9149   22.3015 C.ar    1  UNL1        0.0127
     15 C          -2.3379  -18.9667   21.3716 C.ar    1  UNL1        0.0575
     16 CL         -1.3871  -19.8018   20.5662 Cl      1  UNL1       -0.0823
     17 C          -3.8169  -19.1834   21.2470 C.ar    1  UNL1        0.0108
     18 C          -4.7677  -18.3483   22.0524 C.ar    1  UNL1        0.0252
     19 C          -9.7362  -19.7005   21.0670 C.3     1  UNL1        0.1313
     20 C         -10.7736  -18.6202   21.1492 C.ar    1  UNL1        0.0265
     21 C         -10.8803  -17.5981   20.0565 C.ar    1  UNL1        0.0110
     22 C         -11.9177  -16.5178   20.1387 C.ar    1  UNL1        0.0576
     23 CL        -12.0245  -15.4958   19.0460 Cl      1  UNL1       -0.0823
     24 C         -12.8485  -16.4596   21.3137 C.ar    1  UNL1        0.0137
     25 C         -12.7418  -17.4816   22.4064 C.ar    1  UNL1        0.0302
     26 C         -11.7043  -18.5619   22.3242 C.ar    1  UNL1        0.1378
     27 F         -11.5976  -19.5840   23.4169 F       1  UNL1       -0.2044
     28 C          -5.3415  -15.5214   24.6494 C.3     1  UNL1        0.1398
     29 C          -5.3513  -15.8361   26.1161 C.2     1  UNL1        0.0708
     30 O          -4.4052  -16.8601   26.6697 O.co2   1  UNL1       -0.5474
     31 O          -6.3071  -15.1269   27.0290 O.co2   1  UNL1       -0.5474
@<TRIPOS>UNITY_ATOM_ATTR
30 1
charge -1
@<TRIPOS>BOND
     1     1     2    1
     2     2     3   am
     3     3     4    2
     4     3     5   am
     5     5    19    1
     6    19    20    1
     7    20    21   ar
     8    21    22   ar
     9    22    23    1
    10    22    24   ar
    11    24    25   ar
    12    25    26   ar
    13    26    27    1
    14     5     6   am
    15     6     7    2
    16     6     8    1
    17     8     9    1
    18     9    10    2
    19     9    11   am
    20    11    28    1
    21    28    29    1
    22    29    30   ar
    23    29    31   ar
    24    11    12    1
    25    12    13   ar
    26    13    14   ar
    27    14    15   ar
    28    15    16    1
    29    15    17   ar
    30    17    18   ar
    31     8     2    1
    32    18    12   ar
    33    26    20   ar
    34    18     8    1
@<TRIPOS>MOLECULE
*****
 31 34 0 0 0
SMALL
GASTEIGER

@<TRIPOS>ATOM
      1 C         -12.2031   -7.3280   18.2878 C.3     1  UNL1        0.1176
      2 N         -13.5436   -6.7126   18.0155 N.am    1  UNL1       -0.2468
      3 C         -14.7978   -7.4537   17.6579 C.2     1  UNL1        0.3141
      4 O         -14.9316   -8.9404   17.5098 O.2     1  UNL1       -0.2519
      5 N         -15.8947   -6.4471   17.4744 N.am    1  UNL1       -0.2077
      6 C         -15.3185   -5.0839   17.7186 C.2     1  UNL1        0.2616
      7 O         -16.2117   -3.8848   17.5988 O.2     1  UNL1       -0.2718
      8 C         -13.8654   -5.2479   18.0530 C.3     1  UNL1        0.2205
      9 C         -14.1872   -3.7833   18.0905 C.2     1  UNL1        0.2584
     10 O         -15.4476   -3.0064   17.8500 O.2     1  UNL1       -0.2719
     11 N         -12.9331   -3.0422   18.4481 N.am    1  UNL1       -0.2514
     12 C         -11.8362   -4.0488   18.6316 C.ar    1  UNL1        0.0527
     13 C         -10.3871   -3.9001   18.9895 C.ar    1  UNL1        0.0155
     14 C          -9.5143   -5.1147   19.1032 C.ar    1  UNL1        0.0127
     15 C         -10.0905   -6.4779   18.8590 C.ar    1  UNL1        0.0575
     16 CL         -9.2176   -7.6925   18.9728 Cl      1  UNL1       -0.0823
     17 C         -11.5396   -6.6265   18.5011 C.ar    1  UNL1        0.0108
     18 C         -12.4124   -5.4120   18.3874 C.ar    1  UNL1        0.0252
     19 C         -17.3179   -6.7505   17.1106 C.3     1  UNL1        0.1313
     20 C         -18.1673   -7.5766   18.0304 C.ar    1  UNL1        0.0265
     21 C         -18.8909   -8.7805   17.5040 C.ar    1  UNL1        0.0110
     22 C         -19.7403   -9.6066   18.4238 C.ar    1  UNL1        0.0576
     23 CL        -20.4638  -10.8105   17.8974 Cl      1  UNL1       -0.0823
     24 C         -19.8662   -9.2288   19.8700 C.ar    1  UNL1        0.0137
     25 C         -19.1427   -8.0249   20.3964 C.ar    1  UNL1        0.0302
     26 C         -18.2932   -7.1988   19.4766 C.ar    1  UNL1        0.1378
     27 F         -17.5697   -5.9949   20.0030 F       1  UNL1       -0.2044
     28 C         -12.7993   -1.5556   18.5961 C.3     1  UNL1        0.1398
     29 C         -12.1575   -0.7481   17.5070 C.2     1  UNL1        0.0708
     30 O         -13.0105   -0.0320   16.5022 O.co2   1  UNL1       -0.5474
     31 O         -10.6626   -0.6567   17.4227 O.co2   1  UNL1       -0.5474
@<TRIPOS>UNITY_ATOM_ATTR
30 1
charge -1
@<TRIPOS>BOND
     1     1     2    1
     2     2     3   am
     3     3     4    2
     4     3     5   am
     5     5    19    1
     6    19    20    1
     7    20    21   ar
     8    21    22   ar
     9    22    23    1
    10    22    24   ar
    11    24    25   ar
    12    25    26   ar
    13    26    27    1
    14     5     6   am
    15     6     7    2
    16     6     8    1
    17     8     9    1
    18     9    10    2
    19     9    11   am
    20    11    28    1
    21    28    29    1
    22    29    30   ar
    23    29    31   ar
    24    11    12    1
    25    12    13   ar
    26    13    14   ar
    27    14    15   ar
    28    15    16    1
    29    15    17   ar
    30    17    18   ar
    31     8     2    1
    32    18    12   ar
    33    26    20   ar
    34    18     8    1
@<TRIPOS>MOLECULE
*****
 31 34 0 0 0
SMALL
GASTEIGER

@<TRIPOS>ATOM
      1 C           4.6738   -1.7122   24.3931 C.3     1  UNL1        0.1176
      2 N           5.7744   -2.6684   24.0404 N.am    1  UNL1       -0.2468
      3 C           6.8006   -3.2191   24.9856 C.2     1  UNL1        0.3141
      4 O           6.9065   -2.9102   26.4497 O.2     1  UNL1       -0.2519
      5 N           7.7024   -4.1328   24.2099 N.am    1  UNL1       -0.2077
      6 C           7.2336   -4.1469   22.7851 C.2     1  UNL1        0.2616
      7 O           7.9689   -4.9900   21.7859 O.2     1  UNL1       -0.2718
      8 C           6.0419   -3.2418   22.6803 C.3     1  UNL1        0.2205
      9 C           6.3095   -3.8152   21.3203 C.2     1  UNL1        0.2584
     10 O           7.3447   -4.7660   20.7965 O.2     1  UNL1       -0.2719
     11 N           5.2833   -3.2646   20.3750 N.am    1  UNL1       -0.2514
     12 C           4.3814   -2.3508   21.1508 C.ar    1  UNL1        0.0527
     13 C           3.1939   -1.5298   20.7439 C.ar    1  UNL1        0.0155
     14 C           2.4752   -0.6947   21.7617 C.ar    1  UNL1        0.0127
     15 C           2.9441   -0.6806   23.1865 C.ar    1  UNL1        0.0575
     16 CL          2.2254    0.1545   24.2044 Cl      1  UNL1       -0.0823
     17 C           4.1317   -1.5017   23.5934 C.ar    1  UNL1        0.0108
     18 C           4.8503   -2.3368   22.5755 C.ar    1  UNL1        0.0252
     19 C           8.8684   -4.8981   24.7619 C.3     1  UNL1        0.1313
     20 C           8.6486   -5.9426   25.8158 C.ar    1  UNL1        0.0265
     21 C           8.9003   -5.6171   27.2583 C.ar    1  UNL1        0.0110
     22 C           8.6805   -6.6616   28.3122 C.ar    1  UNL1        0.0576
     23 CL          8.9322   -6.3361   29.7547 Cl      1  UNL1       -0.0823
     24 C           8.2091   -8.0316   27.9237 C.ar    1  UNL1        0.0137
     25 C           7.9574   -8.3571   26.4812 C.ar    1  UNL1        0.0302
     26 C           8.1771   -7.3126   25.4273 C.ar    1  UNL1        0.1378
     27 F           7.9255   -7.6381   23.9848 F       1  UNL1       -0.2044
     28 C           5.1774   -3.5734   18.9110 C.3     1  UNL1        0.1398
     29 C           5.5247   -2.5246   17.8962 C.2     1  UNL1        0.0708
     30 O           4.4445   -1.6726   17.2984 O.co2   1  UNL1       -0.5474
     31 O           6.9521   -2.3280   17.4792 O.co2   1  UNL1       -0.5474
@<TRIPOS>UNITY_ATOM_ATTR
30 1
charge -1
@<TRIPOS>BOND
     1     1     2    1
     2     2     3   am
     3     3     4    2
     4     3     5   am
     5     5    19    1
     6    19    20    1
     7    20    21   ar
     8    21    22   ar
     9    22    23    1
    10    22    24   ar
    11    24    25   ar
    12    25    26   ar
    13    26    27    1
    14     5     6   am
    15     6     7    2
    16     6     8    1
    17     8     9    1
    18     9    10    2
    19     9    11   am
    20    11    28    1
    21    28    29    1
    22    29    30   ar
    23    29    31   ar
    24    11    12    1
    25    12    13   ar
    26    13    14   ar
    27    14    15   ar
    28    15    16    1
    29    15    17   ar
    30    17    18   ar
    31     8     2    1
    32    18    12   ar
    33    26    20   ar
    34    18     8    1
@<TRIPOS>MOLECULE
*****
 31 34 0 0 0
SMALL
GASTEIGER

@<TRIPOS>ATOM
      1 C           1.8094    1.1376   23.4219 C.3     1  UNL1        0.1176
      2 N           1.2494    1.5504   22.0930 N.am    1  UNL1       -0.2468
      3 C           0.3285    2.7084   21.8456 C.2     1  UNL1        0.3141
      4 O          -0.1940    3.6567   22.8837 O.2     1  UNL1       -0.2519
      5 N           0.0219    2.7515   20.3779 N.am    1  UNL1       -0.2077
      6 C           0.7533    1.6201   19.7182 C.2     1  UNL1        0.2616
      7 O           0.6180    1.4328   18.2360 O.2     1  UNL1       -0.2718
      8 C           1.5119    0.8778   20.7781 C.3     1  UNL1        0.2205
      9 C           1.7744    0.2053   19.4633 C.2     1  UNL1        0.2584
     10 O           1.3077    0.4772   18.0640 O.2     1  UNL1       -0.2719
     11 N           2.6953   -0.9526   19.7107 N.am    1  UNL1       -0.2514
     12 C           3.0019   -0.9957   21.1784 C.ar    1  UNL1        0.0527
     13 C           3.8526   -1.9189   21.9993 C.ar    1  UNL1        0.0155
     14 C           3.9719   -1.7108   23.4800 C.ar    1  UNL1        0.0127
     15 C           3.2406   -0.5795   24.1397 C.ar    1  UNL1        0.0575
     16 CL          3.3599   -0.3714   25.6205 Cl      1  UNL1       -0.0823
     17 C           2.3899    0.3437   23.3188 C.ar    1  UNL1        0.0108
     18 C           2.2706    0.1356   21.8381 C.ar    1  UNL1        0.0252
     19 C          -0.8610    3.7504   19.6906 C.3     1  UNL1        0.1313
     20 C          -2.3522    3.6411   19.8108 C.ar    1  UNL1        0.0265
     21 C          -2.9780    3.3491   21.1424 C.ar    1  UNL1        0.0110
     22 C          -4.4692    3.2398   21.2625 C.ar    1  UNL1        0.0576
     23 CL         -5.0949    2.9478   22.5941 Cl      1  UNL1       -0.0823
     24 C          -5.3346    3.4227   20.0510 C.ar    1  UNL1        0.0137
     25 C          -4.7089    3.7147   18.7194 C.ar    1  UNL1        0.0302
     26 C          -3.2177    3.8240   18.5993 C.ar    1  UNL1        0.1378
     27 F          -2.5920    4.1160   17.2677 F       1  UNL1       -0.2044
     28 C           3.2178   -1.9010   18.6726 C.3     1  UNL1        0.1398
     29 C           4.2664   -1.4462   17.7012 C.2     1  UNL1        0.0708
     30 O           5.7075   -1.4089   18.1159 O.co2   1  UNL1       -0.5474
     31 O           3.8739   -1.0286   16.3149 O.co2   1  UNL1       -0.5474
@<TRIPOS>UNITY_ATOM_ATTR
30 1
charge -1
@<TRIPOS>BOND
     1     1     2    1
     2     2     3   am
     3     3     4    2
     4     3     5   am
     5     5    19    1
     6    19    20    1
     7    20    21   ar
     8    21    22   ar
     9    22    23    1
    10    22    24   ar
    11    24    25   ar
    12    25    26   ar
    13    26    27    1
    14     5     6   am
    15     6     7    2
    16     6     8    1
    17     8     9    1
    18     9    10    2
    19     9    11   am
    20    11    28    1
    21    28    29    1
    22    29    30   ar
    23    29    31   ar
    24    11    12    1
    25    12    13   ar
    26    13    14   ar
    27    14    15   ar
    28    15    16    1
    29    15    17   ar
    30    17    18   ar
    31     8     2    1
    32    18    12   ar
    33    26    20   ar
    34    18     8    1
@<TRIPOS>MOLECULE
*****
 31 34 0 0 0
SMALL
GASTEIGER

@<TRIPOS>ATOM
      1 C           3.2693   -0.7407   23.8979 C.3     1  UNL1        0.1176
      2 N           4.3013   -1.8198   23.7547 N.am    1  UNL1       -0.2468
      3 C           5.1279   -2.4019   24.8627 C.2     1  UNL1        0.3141
      4 O           5.0676   -2.0072   26.3086 O.2     1  UNL1       -0.2519
      5 N           6.0254   -3.4482   24.2712 N.am    1  UNL1       -0.2077
      6 C           5.7534   -3.5127   22.7974 C.2     1  UNL1        0.2616
      7 O           6.5243   -4.4878   21.9577 O.2     1  UNL1       -0.2718
      8 C           4.6879   -2.5063   22.4781 C.3     1  UNL1        0.2205
      9 C           5.0745   -3.1928   21.2017 C.2     1  UNL1        0.2584
     10 O           6.0656   -4.2717   20.8800 O.2     1  UNL1       -0.2719
     11 N           4.2479   -2.6107   20.0937 N.am    1  UNL1       -0.2514
     12 C           3.3504   -1.5645   20.6852 C.ar    1  UNL1        0.0527
     13 C           2.3207   -0.6622   20.0724 C.ar    1  UNL1        0.0155
     14 C           1.5629    0.3045   20.9333 C.ar    1  UNL1        0.0127
     15 C           1.8349    0.3690   22.4070 C.ar    1  UNL1        0.0575
     16 CL          1.0771    1.3358   23.2679 Cl      1  UNL1       -0.0823
     17 C           2.8646   -0.5332   23.0199 C.ar    1  UNL1        0.0108
     18 C           3.6223   -1.5000   22.1590 C.ar    1  UNL1        0.0252
     19 C           7.0201   -4.2832   25.0215 C.3     1  UNL1        0.1313
     20 C           7.3582   -3.9492   26.4442 C.ar    1  UNL1        0.0265
     21 C           6.8310   -4.8015   27.5603 C.ar    1  UNL1        0.0110
     22 C           7.1691   -4.4675   28.9830 C.ar    1  UNL1        0.0576
     23 CL          6.6419   -5.3197   30.0991 Cl      1  UNL1       -0.0823
     24 C           8.0345   -3.2812   29.2896 C.ar    1  UNL1        0.0137
     25 C           8.5617   -2.4289   28.1735 C.ar    1  UNL1        0.0302
     26 C           8.2236   -2.7629   26.7508 C.ar    1  UNL1        0.1378
     27 F           8.7508   -1.9107   25.6347 F       1  UNL1       -0.2044
     28 C           4.3081   -3.0055   18.6478 C.3     1  UNL1        0.1398
     29 C           5.0613   -2.1544   17.6687 C.2     1  UNL1        0.0708
     30 O           4.3366   -1.1154   16.8653 O.co2   1  UNL1       -0.5474
     31 O           6.5390   -2.3423   17.4930 O.co2   1  UNL1       -0.5474
@<TRIPOS>UNITY_ATOM_ATTR
30 1
charge -1
@<TRIPOS>BOND
     1     1     2    1
     2     2     3   am
     3     3     4    2
     4     3     5   am
     5     5    19    1
     6    19    20    1
     7    20    21   ar
     8    21    22   ar
     9    22    23    1
    10    22    24   ar
    11    24    25   ar
    12    25    26   ar
    13    26    27    1
    14     5     6   am
    15     6     7    2
    16     6     8    1
    17     8     9    1
    18     9    10    2
    19     9    11   am
    20    11    28    1
    21    28    29    1
    22    29    30   ar
    23    29    31   ar
    24    11    12    1
    25    12    13   ar
    26    13    14   ar
    27    14    15   ar
    28    15    16    1
    29    15    17   ar
    30    17    18   ar
    31     8     2    1
    32    18    12   ar
    33    26    20   ar
    34    18     8    1
@<TRIPOS>MOLECULE
*****
 31 34 0 0 0
SMALL
GASTEIGER

@<TRIPOS>ATOM
      1 C           5.4815   -3.5778   21.4890 C.3     1  UNL1        0.1176
      2 N           6.3217   -3.6642   22.7286 N.am    1  UNL1       -0.2468
      3 C           7.4706   -4.6025   22.9514 C.2     1  UNL1        0.3141
      4 O           7.9810   -5.6191   21.9737 O.2     1  UNL1       -0.2519
      5 N           8.0194   -4.3457   24.3235 N.am    1  UNL1       -0.2077
      6 C           7.2098   -3.2487   24.9488 C.2     1  UNL1        0.2616
      7 O           7.5521   -2.7925   26.3362 O.2     1  UNL1       -0.2718
      8 C           6.1605   -2.8274   23.9631 C.3     1  UNL1        0.2205
      9 C           5.9993   -1.9908   25.1976 C.2     1  UNL1        0.2584
     10 O           6.7346   -1.9429   26.5042 O.2     1  UNL1       -0.2719
     11 N           4.8504   -1.0525   24.9748 N.am    1  UNL1       -0.2514
     12 C           4.3015   -1.3092   23.6027 C.ar    1  UNL1        0.0527
     13 C           3.1691   -0.6859   22.8418 C.ar    1  UNL1        0.0155
     14 C           2.8463   -1.1595   21.4557 C.ar    1  UNL1        0.0127
     15 C           3.6560   -2.2565   20.8304 C.ar    1  UNL1        0.0575
     16 CL          3.3331   -2.7302   19.4442 Cl      1  UNL1       -0.0823
     17 C           4.7884   -2.8799   21.5913 C.ar    1  UNL1        0.0108
     18 C           5.1112   -2.4063   22.9774 C.ar    1  UNL1        0.0252
     19 C           9.1750   -5.0604   24.9589 C.3     1  UNL1        0.1313
     20 C           8.9285   -6.0790   26.0321 C.ar    1  UNL1        0.0265
     21 C           9.2466   -5.7544   27.4615 C.ar    1  UNL1        0.0110
     22 C           9.0000   -6.7729   28.5347 C.ar    1  UNL1        0.0576
     23 CL          9.3181   -6.4483   29.9642 Cl      1  UNL1       -0.0823
     24 C           8.4353   -8.1162   28.1784 C.ar    1  UNL1        0.0137
     25 C           8.1173   -8.4409   26.7489 C.ar    1  UNL1        0.0302
     26 C           8.3638   -7.4223   25.6757 C.ar    1  UNL1        0.1378
     27 F           8.0457   -7.7469   24.2463 F       1  UNL1       -0.2044
     28 C           4.3400   -0.0358   25.9526 C.3     1  UNL1        0.1398
     29 C           3.2745   -0.4128   26.9390 C.2     1  UNL1        0.0708
     30 O           2.1613    0.5454   27.2433 O.co2   1  UNL1       -0.5474
     31 O           3.3224   -1.7479   27.6210 O.co2   1  UNL1       -0.5474
@<TRIPOS>UNITY_ATOM_ATTR
30 1
charge -1
@<TRIPOS>BOND
     1     1     2    1
     2     2     3   am
     3     3     4    2
     4     3     5   am
     5     5    19    1
     6    19    20    1
     7    20    21   ar
     8    21    22   ar
     9    22    23    1
    10    22    24   ar
    11    24    25   ar
    12    25    26   ar
    13    26    27    1
    14     5     6   am
    15     6     7    2
    16     6     8    1
    17     8     9    1
    18     9    10    2
    19     9    11   am
    20    11    28    1
    21    28    29    1
    22    29    30   ar
    23    29    31   ar
    24    11    12    1
    25    12    13   ar
    26    13    14   ar
    27    14    15   ar
    28    15    16    1
    29    15    17   ar
    30    17    18   ar
    31     8     2    1
    32    18    12   ar
    33    26    20   ar
    34    18     8    1
@<TRIPOS>MOLECULE
*****
 31 34 0 0 0
SMALL
GASTEIGER

@<TRIPOS>ATOM
      1 C           5.9839   -2.8626   25.2931 C.3     1  UNL1        0.1176
      2 N           5.5084   -2.0226   26.4413 N.am    1  UNL1       -0.2468
      3 C           4.5815   -0.8468   26.3490 C.2     1  UNL1        0.3141
      4 O           3.9674   -0.3047   25.0925 O.2     1  UNL1       -0.2519
      5 N           4.3766   -0.3083   27.7340 N.am    1  UNL1       -0.2077
      6 C           5.1768   -1.1513   28.6822 C.2     1  UNL1        0.2616
      7 O           5.1489   -0.8252   30.1461 O.2     1  UNL1       -0.2718
      8 C           5.8764   -2.2108   27.8833 C.3     1  UNL1        0.2205
      9 C           6.2443   -2.3989   29.3252 C.2     1  UNL1        0.2584
     10 O           5.8698   -1.6679   30.5803 O.2     1  UNL1       -0.2719
     11 N           7.1712   -3.5747   29.4174 N.am    1  UNL1       -0.2514
     12 C           7.3761   -4.1131   28.0325 C.ar    1  UNL1        0.0527
     13 C           8.1880   -5.2621   27.5123 C.ar    1  UNL1        0.0155
     14 C           8.1997   -5.5681   26.0440 C.ar    1  UNL1        0.0127
     15 C           7.3995   -4.7252   25.0958 C.ar    1  UNL1        0.0575
     16 CL          7.4112   -5.0313   23.6273 Cl      1  UNL1       -0.0823
     17 C           6.5876   -3.5762   25.6159 C.ar    1  UNL1        0.0108
     18 C           6.5759   -3.2702   27.0843 C.ar    1  UNL1        0.0252
     19 C           3.5216    0.8667   28.1055 C.3     1  UNL1        0.1313
     20 C           2.0268    0.7531   28.0527 C.ar    1  UNL1        0.0265
     21 C           1.2515    1.5271   27.0282 C.ar    1  UNL1        0.0110
     22 C          -0.2433    1.4135   26.9754 C.ar    1  UNL1        0.0576
     23 CL         -1.0185    2.1876   25.9508 Cl      1  UNL1       -0.0823
     24 C          -0.9627    0.5257   27.9472 C.ar    1  UNL1        0.0137
     25 C          -0.1875   -0.2484   28.9717 C.ar    1  UNL1        0.0302
     26 C           1.3073   -0.1347   29.0245 C.ar    1  UNL1        0.1378
     27 F           2.0826   -0.9088   30.0491 F       1  UNL1       -0.2044
     28 C           7.7853   -4.1168   30.6740 C.3     1  UNL1        0.1398
     29 C           6.9160   -4.7428   31.7241 C.2     1  UNL1        0.0708
     30 O           6.7957   -6.2358   31.8058 O.co2   1  UNL1       -0.5474
     31 O           6.1672   -3.8759   32.6924 O.co2   1  UNL1       -0.5474
@<TRIPOS>UNITY_ATOM_ATTR
30 1
charge -1
@<TRIPOS>BOND
     1     1     2    1
     2     2     3   am
     3     3     4    2
     4     3     5   am
     5     5    19    1
     6    19    20    1
     7    20    21   ar
     8    21    22   ar
     9    22    23    1
    10    22    24   ar
    11    24    25   ar
    12    25    26   ar
    13    26    27    1
    14     5     6   am
    15     6     7    2
    16     6     8    1
    17     8     9    1
    18     9    10    2
    19     9    11   am
    20    11    28    1
    21    28    29    1
    22    29    30   ar
    23    29    31   ar
    24    11    12    1
    25    12    13   ar
    26    13    14   ar
    27    14    15   ar
    28    15    16    1
    29    15    17   ar
    30    17    18   ar
    31     8     2    1
    32    18    12   ar
    33    26    20   ar
    34    18     8    1
@<TRIPOS>MOLECULE
*****
 31 34 0 0 0
SMALL
GASTEIGER

@<TRIPOS>ATOM
      1 C           7.5859   -5.6122   25.9344 C.3     1  UNL1        0.1176
      2 N           7.1978   -4.4055   25.1322 N.am    1  UNL1       -0.2468
      3 C           7.3202   -4.2592   23.6444 C.2     1  UNL1        0.3141
      4 O           7.8521   -5.2938   22.6975 O.2     1  UNL1       -0.2519
      5 N           6.8172   -2.8966   23.2697 N.am    1  UNL1       -0.2077
      6 C           6.3840   -2.2008   24.5260 C.2     1  UNL1        0.2616
      7 O           5.8345   -0.8081   24.4334 O.2     1  UNL1       -0.2718
      8 C           6.6192   -3.1333   25.6771 C.3     1  UNL1        0.2205
      9 C           6.0406   -1.8612   26.2219 C.2     1  UNL1        0.2584
     10 O           5.6026   -0.5787   25.5789 O.2     1  UNL1       -0.2719
     11 N           5.9183   -2.0075   27.7097 N.am    1  UNL1       -0.2514
     12 C           6.4212   -3.3701   28.0844 C.ar    1  UNL1        0.0527
     13 C           6.5407   -4.0671   29.4072 C.ar    1  UNL1        0.0155
     14 C           7.0934   -5.4600   29.4738 C.ar    1  UNL1        0.0127
     15 C           7.5266   -6.1558   28.2175 C.ar    1  UNL1        0.0575
     16 CL          8.0793   -7.5487   28.2841 Cl      1  UNL1       -0.0823
     17 C           7.4071   -5.4587   26.8947 C.ar    1  UNL1        0.0108
     18 C           6.8544   -4.0659   26.8282 C.ar    1  UNL1        0.0252
     19 C           6.7579   -2.3294   21.8824 C.3     1  UNL1        0.1313
     20 C           5.5944   -2.6481   20.9910 C.ar    1  UNL1        0.0265
     21 C           4.3715   -1.7799   21.0147 C.ar    1  UNL1        0.0110
     22 C           3.2079   -2.0986   20.1233 C.ar    1  UNL1        0.0576
     23 CL          1.9850   -1.2304   20.1470 Cl      1  UNL1       -0.0823
     24 C           3.2674   -3.2857   19.2081 C.ar    1  UNL1        0.0137
     25 C           4.4903   -4.1540   19.1844 C.ar    1  UNL1        0.0302
     26 C           5.6538   -3.8352   20.0758 C.ar    1  UNL1        0.1378
     27 F           6.8767   -4.7034   20.0521 F       1  UNL1       -0.2044
     28 C           5.3863   -0.9729   28.6567 C.3     1  UNL1        0.1398
     29 C           3.9233   -0.9395   28.9864 C.2     1  UNL1        0.0708
     30 O           3.4730   -0.5373   30.3595 O.co2   1  UNL1       -0.5474
     31 O           2.9107   -1.3082   27.9430 O.co2   1  UNL1       -0.5474
@<TRIPOS>UNITY_ATOM_ATTR
30 1
charge -1
@<TRIPOS>BOND
     1     1     2    1
     2     2     3   am
     3     3     4    2
     4     3     5   am
     5     5    19    1
     6    19    20    1
     7    20    21   ar
     8    21    22   ar
     9    22    23    1
    10    22    24   ar
    11    24    25   ar
    12    25    26   ar
    13    26    27    1
    14     5     6   am
    15     6     7    2
    16     6     8    1
    17     8     9    1
    18     9    10    2
    19     9    11   am
    20    11    28    1
    21    28    29    1
    22    29    30   ar
    23    29    31   ar
    24    11    12    1
    25    12    13   ar
    26    13    14   ar
    27    14    15   ar
    28    15    16    1
    29    15    17   ar
    30    17    18   ar
    31     8     2    1
    32    18    12   ar
    33    26    20   ar
    34    18     8    1
