@<TRIPOS>MOLECULE
*****
 40 43 0 0 0
SMALL
GASTEIGER

@<TRIPOS>ATOM
      1 N           7.7495   -4.2136   25.0596 N.3     1  UNL1       -0.2725
      2 C           8.5914   -3.7429   26.2084 C.3     1  UNL1        0.0738
      3 C           8.5812   -4.8129   27.2596 C.3     1  UNL1        0.0383
      4 C           7.7330   -5.9449   26.7605 C.3     1  UNL1        0.0889
      5 C           7.2190   -5.5745   25.4009 C.3     1  UNL1        0.0919
      6 C           6.9551   -1.9420   21.2572 C.3     1  UNL1        0.1085
      7 O           7.7012   -1.2748   20.1400 O.3     1  UNL1       -0.3826
      8 C           5.8088   -2.4380   22.0879 C.3     1  UNL1        0.0326
      9 C           6.0737   -3.1952   23.3554 C.3     1  UNL1        0.0187
     10 C           7.4846   -3.4564   23.7922 C.3     1  UNL1        0.0577
     11 C           8.6309   -2.9604   22.9615 C.3     1  UNL1        0.0187
     12 C           8.3661   -2.2032   21.6939 C.3     1  UNL1        0.0326
     13 H           7.0687   -0.8976   19.5087 H       1  UNL1        0.2107
     14 C           3.4994   -0.4633   18.7830 C.ar    1  UNL1        0.2250
     15 C           3.9472   -1.8903   18.6688 C.ar    1  UNL1        0.0575
     16 C           5.0991   -2.3832   19.4935 C.ar    1  UNL1        0.0043
     17 C           5.8032   -1.4491   20.4325 C.ar    1  UNL1        0.0211
     18 C           5.3554   -0.0221   20.5466 C.ar    1  UNL1        0.1000
     19 N           4.2035    0.4708   19.7219 N.ar    1  UNL1       -0.2104
     20 C           1.3456    0.9720   18.5566 C.3     1  UNL1        0.2542
     21 O           2.3475    0.0296   17.9582 O.3     1  UNL1       -0.4561
     22 N           7.4487   -7.2229   27.4925 N.am    1  UNL1       -0.3032
     23 C           8.2367   -8.4595   27.1764 C.2     1  UNL1        0.2425
     24 O           9.3089   -8.4181   26.1283 O.2     1  UNL1       -0.2733
     25 H           6.7450   -7.2501   28.1804 H       1  UNL1        0.1495
     26 C           7.9524   -9.7376   27.9084 C.3     1  UNL1        0.1759
     27 N           6.6441  -10.4429   27.7059 N.am    1  UNL1       -0.2931
     28 C           6.5047  -11.8877   28.0839 C.2     1  UNL1        0.2462
     29 O           7.6735  -12.6274   28.6643 O.2     1  UNL1       -0.2701
     30 H           5.8770   -9.9574   27.3250 H       1  UNL1        0.1502
     31 C           5.1964  -12.5930   27.8813 C.ar    1  UNL1        0.0533
     32 C           4.9295  -13.3248   26.5995 C.ar    1  UNL1        0.0045
     33 C           3.6212  -14.0301   26.3969 C.ar    1  UNL1        0.0001
     34 C           2.5798  -14.0036   27.4763 C.ar    1  UNL1        0.0039
     35 C           2.8468  -13.2718   28.7581 C.ar    1  UNL1        0.0716
     36 C           4.1551  -12.5665   28.9606 C.ar    1  UNL1        0.0084
     37 C           1.8055  -13.2453   29.8375 C.3     1  UNL1        0.4186
     38 F           0.7642  -13.2187   30.9168 F       1  UNL1       -0.1659
     39 F           1.0788  -14.3715   29.1641 F       1  UNL1       -0.1659
     40 F           2.5322  -12.1190   30.5109 F       1  UNL1       -0.1659
@<TRIPOS>BOND
     1    20    21    1
     2    21    14    1
     3    14    15   ar
     4    15    16   ar
     5    16    17   ar
     6    17     6    1
     7     6     7    1
     8     6     8    1
     9     8     9    1
    10     9    10    1
    11    10     1    1
    12     1     2    1
    13     2     3    1
    14     3     4    1
    15     4    22    1
    16    22    23   am
    17    23    24    2
    18    23    26    1
    19    26    27    1
    20    27    28   am
    21    28    29    2
    22    28    31    1
    23    31    32   ar
    24    32    33   ar
    25    33    34   ar
    26    34    35   ar
    27    35    37    1
    28    37    38    1
    29    37    39    1
    30    37    40    1
    31    35    36   ar
    32     4     5    1
    33    10    11    1
    34    11    12    1
    35    17    18   ar
    36    18    19   ar
    37    19    14   ar
    38    12     6    1
    39     5     1    1
    40    36    31   ar
    41     7    13    1
    42    22    25    1
    43    27    30    1
@<TRIPOS>MOLECULE
*****
 40 43 0 0 0
SMALL
GASTEIGER

@<TRIPOS>ATOM
      1 N           7.6733   -5.3199   27.2553 N.3     1  UNL1       -0.2725
      2 C           7.8379   -6.7006   26.6927 C.3     1  UNL1        0.0738
      3 C           8.2108   -6.5702   25.2457 C.3     1  UNL1        0.0383
      4 C           8.2767   -5.1088   24.9139 C.3     1  UNL1        0.0889
      5 C           7.9445   -4.3361   26.1558 C.3     1  UNL1        0.0919
      6 C           6.5614   -4.3069   31.4964 C.3     1  UNL1        0.1085
      7 O           6.4395   -4.9622   32.8402 O.3     1  UNL1       -0.3826
      8 C           6.5282   -3.2444   30.4382 C.3     1  UNL1        0.0326
      9 C           6.8989   -3.5820   29.0244 C.3     1  UNL1        0.0187
     10 C           7.3027   -4.9822   28.6690 C.3     1  UNL1        0.0577
     11 C           7.3358   -6.0448   29.7272 C.3     1  UNL1        0.0187
     12 C           6.9651   -5.7071   31.1409 C.3     1  UNL1        0.0326
     13 H           6.1502   -4.3070   33.4944 H       1  UNL1        0.2107
     14 C           5.2232   -0.7890   33.9629 C.ar    1  UNL1        0.2250
     15 C           6.6051   -0.8143   33.3803 C.ar    1  UNL1        0.0575
     16 C           7.0512   -1.9869   32.5581 C.ar    1  UNL1        0.0043
     17 C           6.1153   -3.1343   32.3186 C.ar    1  UNL1        0.0211
     18 C           4.7333   -3.1091   32.9012 C.ar    1  UNL1        0.1000
     19 N           4.2873   -1.9365   33.7233 N.ar    1  UNL1       -0.2104
     20 C           4.9155    0.3487   36.2782 C.3     1  UNL1        0.2542
     21 O           4.7771    0.3836   34.7851 O.3     1  UNL1       -0.4561
     22 N           8.6152   -4.5230   23.5752 N.am    1  UNL1       -0.3032
     23 C           7.5242   -4.2209   22.5911 C.2     1  UNL1        0.2425
     24 O           6.0946   -4.5046   22.9457 O.2     1  UNL1       -0.2733
     25 H           9.5535   -4.3368   23.3424 H       1  UNL1        0.1495
     26 C           7.8628   -3.6351   21.2523 C.3     1  UNL1        0.1759
     27 N           6.9436   -2.6340   20.6176 N.am    1  UNL1       -0.2931
     28 C           5.7603   -3.1007   19.8227 C.2     1  UNL1        0.2462
     29 O           5.4960   -4.5686   19.6625 O.2     1  UNL1       -0.2701
     30 H           7.1171   -1.6706   20.7226 H       1  UNL1        0.1502
     31 C           4.8412   -2.0996   19.1879 C.ar    1  UNL1        0.0533
     32 C           5.2187   -1.4536   17.8879 C.ar    1  UNL1        0.0045
     33 C           4.2995   -0.4525   17.2531 C.ar    1  UNL1        0.0001
     34 C           3.0029   -0.0973   17.9184 C.ar    1  UNL1        0.0039
     35 C           2.6254   -0.7433   19.2184 C.ar    1  UNL1        0.0716
     36 C           3.5446   -1.7444   19.8532 C.ar    1  UNL1        0.0084
     37 C           1.3287   -0.3882   19.8838 C.3     1  UNL1        0.4186
     38 F           0.0321   -0.0331   20.5490 F       1  UNL1       -0.1659
     39 F           1.8137   -1.0088   21.1603 F       1  UNL1       -0.1659
     40 F           0.8437    0.2325   18.6072 F       1  UNL1       -0.1659
@<TRIPOS>BOND
     1    20    21    1
     2    21    14    1
     3    14    15   ar
     4    15    16   ar
     5    16    17   ar
     6    17     6    1
     7     6     7    1
     8     6     8    1
     9     8     9    1
    10     9    10    1
    11    10     1    1
    12     1     2    1
    13     2     3    1
    14     3     4    1
    15     4    22    1
    16    22    23   am
    17    23    24    2
    18    23    26    1
    19    26    27    1
    20    27    28   am
    21    28    29    2
    22    28    31    1
    23    31    32   ar
    24    32    33   ar
    25    33    34   ar
    26    34    35   ar
    27    35    37    1
    28    37    38    1
    29    37    39    1
    30    37    40    1
    31    35    36   ar
    32     4     5    1
    33    10    11    1
    34    11    12    1
    35    17    18   ar
    36    18    19   ar
    37    19    14   ar
    38    12     6    1
    39     5     1    1
    40    36    31   ar
    41     7    13    1
    42    22    25    1
    43    27    30    1
@<TRIPOS>MOLECULE
*****
 40 43 0 0 0
SMALL
GASTEIGER

@<TRIPOS>ATOM
      1 N           1.3446    1.4823   31.0497 N.3     1  UNL1       -0.2725
      2 C           0.1149    1.4411   30.1918 C.3     1  UNL1        0.0738
      3 C           0.3990    0.5532   29.0167 C.3     1  UNL1        0.0383
      4 C           1.8043    0.0456   29.1483 C.3     1  UNL1        0.0889
      5 C           2.3888    0.6197   30.4047 C.3     1  UNL1        0.0919
      6 C           1.8185    3.7884   34.8847 C.3     1  UNL1        0.1085
      7 O           1.3587    5.0664   35.5213 O.3     1  UNL1       -0.3826
      8 C           2.5220    2.4755   34.7072 C.3     1  UNL1        0.0326
      9 C           2.3640    1.7068   33.4288 C.3     1  UNL1        0.0187
     10 C           1.5026    2.2509   32.3280 C.3     1  UNL1        0.0577
     11 C           0.7991    3.5638   32.5055 C.3     1  UNL1        0.0187
     12 C           0.9571    4.3325   33.7839 C.3     1  UNL1        0.0326
     13 H           1.7435    5.1424   36.4085 H       1  UNL1        0.2107
     14 C           3.9237    3.4875   38.8504 C.ar    1  UNL1        0.2250
     15 C           2.4551    3.1971   38.7570 C.ar    1  UNL1        0.0575
     16 C           1.7534    3.2974   37.4351 C.ar    1  UNL1        0.0043
     17 C           2.5202    3.6881   36.2066 C.ar    1  UNL1        0.0211
     18 C           3.9889    3.9785   36.3000 C.ar    1  UNL1        0.1000
     19 N           4.6906    3.8782   37.6220 N.ar    1  UNL1       -0.2104
     20 C           6.0873    3.0546   40.2222 C.3     1  UNL1        0.2542
     21 O           4.6255    3.3872   40.1724 O.3     1  UNL1       -0.4561
     22 N           2.5026   -0.8747   28.1915 N.am    1  UNL1       -0.3032
     23 C           3.4810   -0.3218   27.1980 C.2     1  UNL1        0.2425
     24 O           3.7611    1.1514   27.1613 O.2     1  UNL1       -0.2733
     25 H           2.3187   -1.8416   28.2156 H       1  UNL1        0.1495
     26 C           4.1793   -1.2420   26.2411 C.3     1  UNL1        0.1759
     27 N           3.7586   -1.2874   24.8020 N.am    1  UNL1       -0.2931
     28 C           4.4526   -2.2122   23.8466 C.2     1  UNL1        0.2462
     29 O           5.5674   -3.0917   24.3301 O.2     1  UNL1       -0.2701
     30 H           3.0269   -0.7102   24.4846 H       1  UNL1        0.1502
     31 C           4.0319   -2.2576   22.4075 C.ar    1  UNL1        0.0533
     32 C           3.2076   -1.1446   21.8317 C.ar    1  UNL1        0.0045
     33 C           2.7869   -1.1900   20.3926 C.ar    1  UNL1        0.0001
     34 C           3.1905   -2.3484   19.5293 C.ar    1  UNL1        0.0039
     35 C           4.0148   -3.4614   20.1052 C.ar    1  UNL1        0.0716
     36 C           4.4355   -3.4160   21.5443 C.ar    1  UNL1        0.0084
     37 C           4.4184   -4.6199   19.2419 C.3     1  UNL1        0.4186
     38 F           4.8221   -5.7783   18.3788 F       1  UNL1       -0.1659
     39 F           3.0163   -4.7183   18.7183 F       1  UNL1       -0.1659
     40 F           5.8207   -4.5215   19.7656 F       1  UNL1       -0.1659
@<TRIPOS>BOND
     1    20    21    1
     2    21    14    1
     3    14    15   ar
     4    15    16   ar
     5    16    17   ar
     6    17     6    1
     7     6     7    1
     8     6     8    1
     9     8     9    1
    10     9    10    1
    11    10     1    1
    12     1     2    1
    13     2     3    1
    14     3     4    1
    15     4    22    1
    16    22    23   am
    17    23    24    2
    18    23    26    1
    19    26    27    1
    20    27    28   am
    21    28    29    2
    22    28    31    1
    23    31    32   ar
    24    32    33   ar
    25    33    34   ar
    26    34    35   ar
    27    35    37    1
    28    37    38    1
    29    37    39    1
    30    37    40    1
    31    35    36   ar
    32     4     5    1
    33    10    11    1
    34    11    12    1
    35    17    18   ar
    36    18    19   ar
    37    19    14   ar
    38    12     6    1
    39     5     1    1
    40    36    31   ar
    41     7    13    1
    42    22    25    1
    43    27    30    1
@<TRIPOS>MOLECULE
*****
 40 43 0 0 0
SMALL
GASTEIGER

@<TRIPOS>ATOM
      1 N           6.7316   -4.2283   22.8643 N.3     1  UNL1       -0.2725
      2 C           7.9102   -5.1443   22.7175 C.3     1  UNL1        0.0738
      3 C           8.4049   -5.4871   24.0914 C.3     1  UNL1        0.0383
      4 C           7.5320   -4.7830   25.0874 C.3     1  UNL1        0.0889
      5 C           6.4978   -4.0050   24.3291 C.3     1  UNL1        0.0919
      6 C           4.3202   -2.4605   19.5013 C.3     1  UNL1        0.1085
      7 O           4.0788   -2.6564   18.0338 O.3     1  UNL1       -0.3826
      8 C           4.2177   -1.8830   20.8818 C.3     1  UNL1        0.0326
      9 C           5.0215   -2.4723   22.0029 C.3     1  UNL1        0.0187
     10 C           5.9278   -3.6390   21.7433 C.3     1  UNL1        0.0577
     11 C           6.0302   -4.2165   20.3628 C.3     1  UNL1        0.0187
     12 C           5.2264   -3.6273   19.2417 C.3     1  UNL1        0.0326
     13 H           3.4397   -1.9974   17.7205 H       1  UNL1        0.2107
     14 C           1.3499    0.8356   18.7510 C.ar    1  UNL1        0.2250
     15 C           1.0825   -0.1871   19.8152 C.ar    1  UNL1        0.0575
     16 C           2.0726   -1.2858   20.0652 C.ar    1  UNL1        0.0043
     17 C           3.3301   -1.3618   19.2512 C.ar    1  UNL1        0.0211
     18 C           3.5976   -0.3391   18.1870 C.ar    1  UNL1        0.1000
     19 N           2.6075    0.7596   17.9369 N.ar    1  UNL1       -0.2104
     20 C           0.8273    3.3558   18.3969 C.3     1  UNL1        0.2542
     21 O           0.3598    1.9343   18.5009 O.3     1  UNL1       -0.4561
     22 N           7.6691   -4.8458   26.5798 N.am    1  UNL1       -0.3032
     23 C           7.3134   -6.1050   27.3133 C.2     1  UNL1        0.2425
     24 O           6.8204   -7.3013   26.5544 O.2     1  UNL1       -0.2733
     25 H           7.9927   -4.0607   27.0779 H       1  UNL1        0.1495
     26 C           7.4505   -6.1679   28.8057 C.3     1  UNL1        0.1759
     27 N           7.5248   -4.9014   29.6061 N.am    1  UNL1       -0.2931
     28 C           7.1431   -4.9075   31.0567 C.2     1  UNL1        0.2462
     29 O           6.6871   -6.1800   31.7070 O.2     1  UNL1       -0.2701
     30 H           7.8240   -4.0662   29.1793 H       1  UNL1        0.1502
     31 C           7.2173   -3.6411   31.8570 C.ar    1  UNL1        0.0533
     32 C           8.5516   -3.0789   32.2493 C.ar    1  UNL1        0.0045
     33 C           8.6258   -1.8125   33.0497 C.ar    1  UNL1        0.0001
     34 C           7.3659   -1.1081   33.4578 C.ar    1  UNL1        0.0039
     35 C           6.0317   -1.6703   33.0655 C.ar    1  UNL1        0.0716
     36 C           5.9575   -2.9368   32.2652 C.ar    1  UNL1        0.0084
     37 C           4.7717   -0.9660   33.4737 C.3     1  UNL1        0.4186
     38 F           3.5118   -0.2617   33.8817 F       1  UNL1       -0.1659
     39 F           4.2065   -2.2641   33.9689 F       1  UNL1       -0.1659
     40 F           5.3370    0.3322   32.9783 F       1  UNL1       -0.1659
@<TRIPOS>BOND
     1    20    21    1
     2    21    14    1
     3    14    15   ar
     4    15    16   ar
     5    16    17   ar
     6    17     6    1
     7     6     7    1
     8     6     8    1
     9     8     9    1
    10     9    10    1
    11    10     1    1
    12     1     2    1
    13     2     3    1
    14     3     4    1
    15     4    22    1
    16    22    23   am
    17    23    24    2
    18    23    26    1
    19    26    27    1
    20    27    28   am
    21    28    29    2
    22    28    31    1
    23    31    32   ar
    24    32    33   ar
    25    33    34   ar
    26    34    35   ar
    27    35    37    1
    28    37    38    1
    29    37    39    1
    30    37    40    1
    31    35    36   ar
    32     4     5    1
    33    10    11    1
    34    11    12    1
    35    17    18   ar
    36    18    19   ar
    37    19    14   ar
    38    12     6    1
    39     5     1    1
    40    36    31   ar
    41     7    13    1
    42    22    25    1
    43    27    30    1
@<TRIPOS>MOLECULE
*****
 40 43 0 0 0
SMALL
GASTEIGER

@<TRIPOS>ATOM
      1 N           6.5442   -3.5888   30.9745 N.3     1  UNL1       -0.2725
      2 C           7.0609   -4.9887   31.1269 C.3     1  UNL1        0.0738
      3 C           6.9845   -5.6595   29.7874 C.3     1  UNL1        0.0383
      4 C           6.4207   -4.6740   28.8071 C.3     1  UNL1        0.0889
      5 C           6.1486   -3.3944   29.5407 C.3     1  UNL1        0.0919
      6 C           6.2355   -0.5124   34.2440 C.3     1  UNL1        0.1085
      7 O           7.1175    0.3520   35.0955 O.3     1  UNL1       -0.3826
      8 C           4.9924   -1.1312   33.6768 C.3     1  UNL1        0.0326
      9 C           5.0953   -2.1567   32.5869 C.3     1  UNL1        0.0187
     10 C           6.4412   -2.5633   32.0643 C.3     1  UNL1        0.0577
     11 C           7.6843   -1.9445   32.6316 C.3     1  UNL1        0.0187
     12 C           7.5814   -0.9190   33.7214 C.3     1  UNL1        0.0326
     13 H           6.5691    0.8829   35.6941 H       1  UNL1        0.2107
     14 C           3.1166    1.6080   36.6989 C.ar    1  UNL1        0.2250
     15 C           4.0671    0.6524   37.3571 C.ar    1  UNL1        0.0575
     16 C           5.1068   -0.0544   36.5388 C.ar    1  UNL1        0.0043
     17 C           5.1959    0.1944   35.0623 C.ar    1  UNL1        0.0211
     18 C           4.2453    1.1500   34.4041 C.ar    1  UNL1        0.1000
     19 N           3.2057    1.8568   35.2224 N.ar    1  UNL1       -0.2104
     20 C           1.8400    3.7831   37.3227 C.3     1  UNL1        0.2542
     21 O           2.0770    2.3148   37.5172 O.3     1  UNL1       -0.4561
     22 N           6.1726   -4.9245   27.3491 N.am    1  UNL1       -0.3032
     23 C           7.0679   -4.3031   26.3184 C.2     1  UNL1        0.2425
     24 O           8.2113   -3.4313   26.7457 O.2     1  UNL1       -0.2733
     25 H           5.4221   -5.4966   27.0687 H       1  UNL1        0.1495
     26 C           6.8198   -4.5535   24.8604 C.3     1  UNL1        0.1759
     27 N           5.7750   -3.7623   24.1306 N.am    1  UNL1       -0.2931
     28 C           5.7537   -3.7518   22.6309 C.2     1  UNL1        0.2462
     29 O           6.7771   -4.5326   21.8607 O.2     1  UNL1       -0.2701
     30 H           5.1033   -3.2498   24.6361 H       1  UNL1        0.1502
     31 C           4.7090   -2.9606   21.9011 C.ar    1  UNL1        0.0533
     32 C           4.3526   -3.3133   20.4874 C.ar    1  UNL1        0.0045
     33 C           3.3079   -2.5220   19.7577 C.ar    1  UNL1        0.0001
     34 C           2.6195   -1.3781   20.4416 C.ar    1  UNL1        0.0039
     35 C           2.9760   -1.0255   21.8553 C.ar    1  UNL1        0.0716
     36 C           4.0207   -1.8167   22.5850 C.ar    1  UNL1        0.0084
     37 C           2.2877    0.1184   22.5393 C.3     1  UNL1        0.4186
     38 F           1.5995    1.2623   23.2232 F       1  UNL1       -0.1659
     39 F           2.4698   -0.5634   23.8629 F       1  UNL1       -0.1659
     40 F           2.1056    0.8003   21.2156 F       1  UNL1       -0.1659
@<TRIPOS>BOND
     1    20    21    1
     2    21    14    1
     3    14    15   ar
     4    15    16   ar
     5    16    17   ar
     6    17     6    1
     7     6     7    1
     8     6     8    1
     9     8     9    1
    10     9    10    1
    11    10     1    1
    12     1     2    1
    13     2     3    1
    14     3     4    1
    15     4    22    1
    16    22    23   am
    17    23    24    2
    18    23    26    1
    19    26    27    1
    20    27    28   am
    21    28    29    2
    22    28    31    1
    23    31    32   ar
    24    32    33   ar
    25    33    34   ar
    26    34    35   ar
    27    35    37    1
    28    37    38    1
    29    37    39    1
    30    37    40    1
    31    35    36   ar
    32     4     5    1
    33    10    11    1
    34    11    12    1
    35    17    18   ar
    36    18    19   ar
    37    19    14   ar
    38    12     6    1
    39     5     1    1
    40    36    31   ar
    41     7    13    1
    42    22    25    1
    43    27    30    1
@<TRIPOS>MOLECULE
*****
 40 43 0 0 0
SMALL
GASTEIGER

@<TRIPOS>ATOM
      1 N           6.7009   -3.7204   30.3850 N.3     1  UNL1       -0.2725
      2 C           7.1016   -5.1654   30.4177 C.3     1  UNL1        0.0738
      3 C           6.9442   -5.7217   29.0337 C.3     1  UNL1        0.0383
      4 C           6.4461   -4.6204   28.1454 C.3     1  UNL1        0.0889
      5 C           6.2957   -3.3835   28.9805 C.3     1  UNL1        0.0919
      6 C           6.7123   -0.8920   33.8849 C.3     1  UNL1        0.1085
      7 O           7.6793   -0.1796   34.7835 O.3     1  UNL1       -0.3826
      8 C           5.4114   -1.3501   33.2951 C.3     1  UNL1        0.0326
      9 C           5.4076   -2.2929   32.1284 C.3     1  UNL1        0.0187
     10 C           6.7046   -2.7776   31.5516 C.3     1  UNL1        0.0577
     11 C           8.0055   -2.3195   32.1414 C.3     1  UNL1        0.0187
     12 C           8.0093   -1.3766   33.3081 C.3     1  UNL1        0.0326
     13 H           7.1887    0.3506   35.4309 H       1  UNL1        0.2107
     14 C           3.8287    1.3042   36.5517 C.ar    1  UNL1        0.2250
     15 C           4.8799    0.4186   37.1521 C.ar    1  UNL1        0.0575
     16 C           5.8411   -0.3135   36.2632 C.ar    1  UNL1        0.0043
     17 C           5.7511   -0.1599   34.7738 C.ar    1  UNL1        0.0211
     18 C           4.6999    0.7257   34.1734 C.ar    1  UNL1        0.1000
     19 N           3.7387    1.4578   35.0623 N.ar    1  UNL1       -0.2104
     20 C           2.1338    1.2982   38.5208 C.3     1  UNL1        0.2542
     21 O           2.8675    2.0363   37.4406 O.3     1  UNL1       -0.4561
     22 N           6.1503   -4.7358   26.6794 N.am    1  UNL1       -0.3032
     23 C           7.2129   -4.4103   25.6720 C.2     1  UNL1        0.2425
     24 O           8.5714   -3.9695   26.1306 O.2     1  UNL1       -0.2733
     25 H           5.2587   -5.0251   26.3784 H       1  UNL1        0.1495
     26 C           6.9172   -4.5257   24.2059 C.3     1  UNL1        0.1759
     27 N           5.9138   -3.6105   23.5689 N.am    1  UNL1       -0.2931
     28 C           5.8089   -3.5366   22.0745 C.2     1  UNL1        0.2462
     29 O           6.7072   -4.3778   21.2169 O.2     1  UNL1       -0.2701
     30 H           5.3242   -3.0584   24.1317 H       1  UNL1        0.1502
     31 C           4.8055   -2.6214   21.4375 C.ar    1  UNL1        0.0533
     32 C           3.7953   -1.9086   22.2868 C.ar    1  UNL1        0.0045
     33 C           2.7920   -0.9934   21.6498 C.ar    1  UNL1        0.0001
     34 C           2.7988   -0.7910   20.1635 C.ar    1  UNL1        0.0039
     35 C           3.8090   -1.5039   19.3143 C.ar    1  UNL1        0.0716
     36 C           4.8123   -2.4191   19.9513 C.ar    1  UNL1        0.0084
     37 C           3.8159   -1.3016   17.8279 C.3     1  UNL1        0.4186
     38 F           3.8227   -1.0993   16.3417 F       1  UNL1       -0.1659
     39 F           2.8069   -0.2012   17.9730 F       1  UNL1       -0.1659
     40 F           4.8249   -2.4020   17.6828 F       1  UNL1       -0.1659
@<TRIPOS>BOND
     1    20    21    1
     2    21    14    1
     3    14    15   ar
     4    15    16   ar
     5    16    17   ar
     6    17     6    1
     7     6     7    1
     8     6     8    1
     9     8     9    1
    10     9    10    1
    11    10     1    1
    12     1     2    1
    13     2     3    1
    14     3     4    1
    15     4    22    1
    16    22    23   am
    17    23    24    2
    18    23    26    1
    19    26    27    1
    20    27    28   am
    21    28    29    2
    22    28    31    1
    23    31    32   ar
    24    32    33   ar
    25    33    34   ar
    26    34    35   ar
    27    35    37    1
    28    37    38    1
    29    37    39    1
    30    37    40    1
    31    35    36   ar
    32     4     5    1
    33    10    11    1
    34    11    12    1
    35    17    18   ar
    36    18    19   ar
    37    19    14   ar
    38    12     6    1
    39     5     1    1
    40    36    31   ar
    41     7    13    1
    42    22    25    1
    43    27    30    1
@<TRIPOS>MOLECULE
*****
 40 43 0 0 0
SMALL
GASTEIGER

@<TRIPOS>ATOM
      1 N           1.3145    1.1325   29.1202 N.3     1  UNL1       -0.2725
      2 C           0.3732    2.2993   29.0700 C.3     1  UNL1        0.0738
      3 C          -0.1938    2.3782   27.6837 C.3     1  UNL1        0.0383
      4 C           0.3969    1.2601   26.8769 C.3     1  UNL1        0.0889
      5 C           1.3291    0.4903   27.7647 C.3     1  UNL1        0.0919
      6 C           3.6792   -0.2065   32.7070 C.3     1  UNL1        0.1085
      7 O           4.5511   -1.3442   33.1490 O.3     1  UNL1       -0.3826
      8 C           2.9240    1.0889   32.7476 C.3     1  UNL1        0.0326
      9 C           2.1357    1.5352   31.5520 C.3     1  UNL1        0.0187
     10 C           2.1027    0.6863   30.3158 C.3     1  UNL1        0.0577
     11 C           2.8579   -0.6091   30.2752 C.3     1  UNL1        0.0187
     12 C           3.6462   -1.0554   31.4708 C.3     1  UNL1        0.0326
     13 H           4.8532   -1.1861   34.0572 H       1  UNL1        0.2107
     14 C           4.6866    1.1551   36.8761 C.ar    1  UNL1        0.2250
     15 C           5.0926   -0.2134   36.4154 C.ar    1  UNL1        0.0575
     16 C           4.7568   -0.6673   35.0257 C.ar    1  UNL1        0.0043
     17 C           4.0150    0.2474   34.0967 C.ar    1  UNL1        0.0211
     18 C           3.6090    1.6159   34.5574 C.ar    1  UNL1        0.1000
     19 N           3.9448    2.0698   35.9471 N.ar    1  UNL1       -0.2104
     20 C           4.2164    2.6944   38.9156 C.3     1  UNL1        0.2542
     21 O           5.0224    1.6090   38.2658 O.3     1  UNL1       -0.4561
     22 N           0.1065    0.9639   25.4354 N.am    1  UNL1       -0.3032
     23 C           1.0226    1.4781   24.3648 C.2     1  UNL1        0.2425
     24 O           2.2292    2.2885   24.7356 O.2     1  UNL1       -0.2733
     25 H          -0.6854    0.4320   25.1921 H       1  UNL1        0.1495
     26 C           0.7322    1.1819   22.9232 C.3     1  UNL1        0.1759
     27 N           1.8197    0.6617   22.0306 N.am    1  UNL1       -0.2931
     28 C           1.4687   -0.0567   20.7615 C.2     1  UNL1        0.2462
     29 O           0.0303   -0.2550   20.3850 O.2     1  UNL1       -0.2701
     30 H           2.7637    0.7918   22.2777 H       1  UNL1        0.1502
     31 C           2.5562   -0.5770   19.8689 C.ar    1  UNL1        0.0533
     32 C           3.3374    0.3709   19.0079 C.ar    1  UNL1        0.0045
     33 C           4.4248   -0.1493   18.1153 C.ar    1  UNL1        0.0001
     34 C           4.7311   -1.6174   18.0835 C.ar    1  UNL1        0.0039
     35 C           3.9498   -2.5652   18.9445 C.ar    1  UNL1        0.0716
     36 C           2.8624   -2.0450   19.8371 C.ar    1  UNL1        0.0084
     37 C           4.2560   -4.0334   18.9128 C.3     1  UNL1        0.4186
     38 F           4.5622   -5.5014   18.8811 F       1  UNL1       -0.1659
     39 F           5.7231   -3.7262   18.8549 F       1  UNL1       -0.1659
     40 F           2.7889   -4.3406   18.9707 F       1  UNL1       -0.1659
@<TRIPOS>BOND
     1    20    21    1
     2    21    14    1
     3    14    15   ar
     4    15    16   ar
     5    16    17   ar
     6    17     6    1
     7     6     7    1
     8     6     8    1
     9     8     9    1
    10     9    10    1
    11    10     1    1
    12     1     2    1
    13     2     3    1
    14     3     4    1
    15     4    22    1
    16    22    23   am
    17    23    24    2
    18    23    26    1
    19    26    27    1
    20    27    28   am
    21    28    29    2
    22    28    31    1
    23    31    32   ar
    24    32    33   ar
    25    33    34   ar
    26    34    35   ar
    27    35    37    1
    28    37    38    1
    29    37    39    1
    30    37    40    1
    31    35    36   ar
    32     4     5    1
    33    10    11    1
    34    11    12    1
    35    17    18   ar
    36    18    19   ar
    37    19    14   ar
    38    12     6    1
    39     5     1    1
    40    36    31   ar
    41     7    13    1
    42    22    25    1
    43    27    30    1
@<TRIPOS>MOLECULE
*****
 40 43 0 0 0
SMALL
GASTEIGER

@<TRIPOS>ATOM
      1 N           0.3905    2.6742   24.8943 N.3     1  UNL1       -0.2725
      2 C          -0.2822    3.9262   24.4150 C.3     1  UNL1        0.0738
      3 C          -0.0204    4.0592   22.9441 C.3     1  UNL1        0.0383
      4 C           0.8142    2.8893   22.5142 C.3     1  UNL1        0.0889
      5 C           1.0681    2.0333   23.7194 C.3     1  UNL1        0.0919
      6 C           0.3780    1.1141   29.1151 C.3     1  UNL1        0.1085
      7 O          -0.5863    0.6450   30.1639 O.3     1  UNL1       -0.3826
      8 C           1.6751    1.4694   28.4507 C.3     1  UNL1        0.0326
      9 C           1.6792    1.9895   27.0437 C.3     1  UNL1        0.0187
     10 C           0.3864    2.1542   26.3012 C.3     1  UNL1        0.0577
     11 C          -0.9106    1.7988   26.9656 C.3     1  UNL1        0.0187
     12 C          -0.9148    1.2788   28.3726 C.3     1  UNL1        0.0326
     13 H          -0.0974    0.3915   30.9625 H       1  UNL1        0.2107
     14 C           3.2519    0.1312   32.4355 C.ar    1  UNL1        0.2250
     15 C           2.4636    1.4066   32.4789 C.ar    1  UNL1        0.0575
     16 C           1.5056    1.7342   31.3721 C.ar    1  UNL1        0.0043
     17 C           1.3360    0.7865   30.2219 C.ar    1  UNL1        0.0211
     18 C           2.1243   -0.4889   30.1785 C.ar    1  UNL1        0.1000
     19 N           3.0823   -0.8165   31.2853 N.ar    1  UNL1       -0.2104
     20 C           4.3616   -1.6142   34.0077 C.3     1  UNL1        0.2542
     21 O           4.2099   -0.1964   33.5423 O.3     1  UNL1       -0.4561
     22 N           1.3080    2.6223   21.1232 N.am    1  UNL1       -0.3032
     23 C           0.3813    2.0410   20.0970 C.2     1  UNL1        0.2425
     24 O          -1.0393    1.7265   20.4617 O.2     1  UNL1       -0.2733
     25 H           2.2404    2.8287   20.8838 H       1  UNL1        0.1495
     26 C           0.8752    1.7740   18.7059 C.3     1  UNL1        0.1759
     27 N           1.7697    0.5996   18.4402 N.am    1  UNL1       -0.2931
     28 C           3.1987    0.6272   18.8952 C.2     1  UNL1        0.2462
     29 O           3.7333    1.8291   19.6160 O.2     1  UNL1       -0.2701
     30 H           1.4189   -0.1893   17.9671 H       1  UNL1        0.1502
     31 C           4.0933   -0.5472   18.6294 C.ar    1  UNL1        0.0533
     32 C           5.4173   -0.3438   17.9543 C.ar    1  UNL1        0.0045
     33 C           6.3118   -1.5182   17.6885 C.ar    1  UNL1        0.0001
     34 C           5.8824   -2.8959   18.0978 C.ar    1  UNL1        0.0039
     35 C           4.5584   -3.0992   18.7728 C.ar    1  UNL1        0.0716
     36 C           3.6639   -1.9249   19.0386 C.ar    1  UNL1        0.0084
     37 C           4.1290   -4.4770   19.1821 C.3     1  UNL1        0.4186
     38 F           3.6995   -5.8547   19.5913 F       1  UNL1       -0.1659
     39 F           5.5410   -4.8019   19.5700 F       1  UNL1       -0.1659
     40 F           2.7169   -4.1521   18.7941 F       1  UNL1       -0.1659
@<TRIPOS>BOND
     1    20    21    1
     2    21    14    1
     3    14    15   ar
     4    15    16   ar
     5    16    17   ar
     6    17     6    1
     7     6     7    1
     8     6     8    1
     9     8     9    1
    10     9    10    1
    11    10     1    1
    12     1     2    1
    13     2     3    1
    14     3     4    1
    15     4    22    1
    16    22    23   am
    17    23    24    2
    18    23    26    1
    19    26    27    1
    20    27    28   am
    21    28    29    2
    22    28    31    1
    23    31    32   ar
    24    32    33   ar
    25    33    34   ar
    26    34    35   ar
    27    35    37    1
    28    37    38    1
    29    37    39    1
    30    37    40    1
    31    35    36   ar
    32     4     5    1
    33    10    11    1
    34    11    12    1
    35    17    18   ar
    36    18    19   ar
    37    19    14   ar
    38    12     6    1
    39     5     1    1
    40    36    31   ar
    41     7    13    1
    42    22    25    1
    43    27    30    1
@<TRIPOS>MOLECULE
*****
 40 43 0 0 0
SMALL
GASTEIGER

@<TRIPOS>ATOM
      1 N           7.0358   -4.1385   28.8389 N.3     1  UNL1       -0.2725
      2 C           6.7816   -5.2723   29.7873 C.3     1  UNL1        0.0738
      3 C           6.9573   -4.7562   31.1847 C.3     1  UNL1        0.0383
      4 C           7.3203   -3.3032   31.0999 C.3     1  UNL1        0.0889
      5 C           7.3688   -2.9215   29.6502 C.3     1  UNL1        0.0919
      6 C           6.8353   -4.3503   24.3484 C.3     1  UNL1        0.1085
      7 O           7.2280   -5.2601   23.2223 O.3     1  UNL1       -0.3826
      8 C           6.2705   -3.1622   25.0691 C.3     1  UNL1        0.0326
      9 C           6.3374   -3.0916   26.5660 C.3     1  UNL1        0.0187
     10 C           6.9690   -4.2090   27.3421 C.3     1  UNL1        0.0577
     11 C           7.5337   -5.3972   26.6214 C.3     1  UNL1        0.0187
     12 C           7.4668   -5.4678   25.1245 C.3     1  UNL1        0.0326
     13 H           6.9639   -4.8621   22.3780 H       1  UNL1        0.2107
     14 C           5.3498   -1.9458   20.8468 C.ar    1  UNL1        0.2250
     15 C           4.4197   -2.8780   21.5651 C.ar    1  UNL1        0.0575
     16 C           4.9149   -3.6795   22.7322 C.ar    1  UNL1        0.0043
     17 C           6.3401   -3.5488   23.1812 C.ar    1  UNL1        0.0211
     18 C           7.2702   -2.6166   22.4630 C.ar    1  UNL1        0.1000
     19 N           6.7750   -1.8151   21.2958 N.ar    1  UNL1       -0.2104
     20 C           5.6312   -1.1294   18.3964 C.3     1  UNL1        0.2542
     21 O           4.8546   -1.1442   19.6796 O.3     1  UNL1       -0.4561
     22 N           7.5877   -2.3921   32.2610 N.am    1  UNL1       -0.3032
     23 C           6.4694   -1.5908   32.8587 C.2     1  UNL1        0.2425
     24 O           5.0836   -1.7006   32.2952 O.2     1  UNL1       -0.2733
     25 H           8.4973   -2.3200   32.6308 H       1  UNL1        0.1495
     26 C           6.7369   -0.6796   34.0199 C.3     1  UNL1        0.1759
     27 N           5.6717    0.2646   34.4931 N.am    1  UNL1       -0.2931
     28 C           5.3542    0.3648   35.9557 C.2     1  UNL1        0.2462
     29 O           6.1016   -0.4793   36.9450 O.2     1  UNL1       -0.2701
     30 H           5.1811    0.8187   33.8438 H       1  UNL1        0.1502
     31 C           4.2890    1.3090   36.4289 C.ar    1  UNL1        0.0533
     32 C           4.1096    2.6364   35.7537 C.ar    1  UNL1        0.0045
     33 C           3.0445    3.5806   36.2270 C.ar    1  UNL1        0.0001
     34 C           2.1588    3.1975   37.3754 C.ar    1  UNL1        0.0039
     35 C           2.3383    1.8701   38.0506 C.ar    1  UNL1        0.0716
     36 C           3.4034    0.9259   37.5773 C.ar    1  UNL1        0.0084
     37 C           1.4527    1.4870   39.1990 C.3     1  UNL1        0.4186
     38 F           0.5671    1.1038   40.3475 F       1  UNL1       -0.1659
     39 F           0.5479    2.6418   38.8867 F       1  UNL1       -0.1659
     40 F           2.3575    0.3320   39.5115 F       1  UNL1       -0.1659
@<TRIPOS>BOND
     1    20    21    1
     2    21    14    1
     3    14    15   ar
     4    15    16   ar
     5    16    17   ar
     6    17     6    1
     7     6     7    1
     8     6     8    1
     9     8     9    1
    10     9    10    1
    11    10     1    1
    12     1     2    1
    13     2     3    1
    14     3     4    1
    15     4    22    1
    16    22    23   am
    17    23    24    2
    18    23    26    1
    19    26    27    1
    20    27    28   am
    21    28    29    2
    22    28    31    1
    23    31    32   ar
    24    32    33   ar
    25    33    34   ar
    26    34    35   ar
    27    35    37    1
    28    37    38    1
    29    37    39    1
    30    37    40    1
    31    35    36   ar
    32     4     5    1
    33    10    11    1
    34    11    12    1
    35    17    18   ar
    36    18    19   ar
    37    19    14   ar
    38    12     6    1
    39     5     1    1
    40    36    31   ar
    41     7    13    1
    42    22    25    1
    43    27    30    1
