@<TRIPOS>MOLECULE
*****
 39 44 0 0 0
SMALL
GASTEIGER

@<TRIPOS>ATOM
      1 N          -9.1185  -17.7816   21.4051 N.3     1  UNL1       -0.2641
      2 C         -10.5662  -17.3895   21.4211 C.3     1  UNL1        0.0981
      3 C         -11.1376  -16.5838   20.2921 C.3     1  UNL1        0.0224
      4 C         -12.5853  -16.1917   20.3081 C.3     1  UNL1        0.0065
      5 C         -13.4618  -16.6052   21.4531 C.3     1  UNL1        0.0277
      6 C         -12.8905  -17.4108   22.5820 C.ar    1  UNL1       -0.0073
      7 C         -13.7669  -17.8244   23.7269 C.ar    1  UNL1       -0.0015
      8 C         -13.1956  -18.6300   24.8559 C.ar    1  UNL1        0.0203
      9 C         -11.7478  -19.0221   24.8399 C.ar    1  UNL1        0.0985
     10 N         -10.8714  -18.6086   23.6950 N.ar    1  UNL1       -0.2471
     11 C         -11.4427  -17.8030   22.5661 C.ar    1  UNL1        0.0695
     12 C          -8.0551  -16.7289   21.5116 C.3     1  UNL1        0.0888
     13 C          -6.8580  -14.8897   28.0258 C.ar    1  UNL1       -0.0003
     14 C          -8.3380  -15.0092   27.8134 C.ar    1  UNL1       -0.0003
     15 C          -8.8735  -15.4010   26.4681 C.ar    1  UNL1       -0.0045
     16 C          -7.9289  -15.6732   25.3352 C.ar    1  UNL1       -0.0234
     17 C          -6.4488  -15.5537   25.5475 C.ar    1  UNL1       -0.0103
     18 C          -5.9133  -15.1620   26.8928 C.ar    1  UNL1       -0.0032
     19 C          -5.5042  -15.8260   24.4145 C.3     1  UNL1        0.0953
     20 N          -6.0396  -16.2177   23.0693 N.3     1  UNL1       -0.2934
     21 C          -7.5197  -16.3372   22.8569 C.3     1  UNL1        0.0748
     22 C          -8.4643  -16.0650   23.9898 C.3     1  UNL1        0.0432
     23 H          -5.6356  -17.1270   22.8449 H       1  UNL1        0.1236
     24 C          -8.7341  -19.2263   21.2826 C.3     1  UNL1        0.0994
     25 C          -7.3047  -19.6030   21.0281 C.ar    1  UNL1       -0.0062
     26 C          -6.6518  -19.2342   19.7289 C.ar    1  UNL1       -0.0032
     27 C          -5.2224  -19.6109   19.4744 C.ar    1  UNL1       -0.0032
     28 C          -4.4458  -20.3566   20.5189 C.ar    1  UNL1       -0.0064
     29 C          -5.0987  -20.7254   21.8180 C.ar    1  UNL1       -0.0032
     30 C          -6.5282  -20.3487   22.0726 C.ar    1  UNL1       -0.0032
     31 C          -3.0164  -20.7333   20.2644 C.3     1  UNL1        0.0956
     32 N          -1.9243  -20.1458   21.1081 N.3     1  UNL1       -0.2947
     33 H          -1.0426  -20.4988   20.7361 H       1  UNL1        0.1235
     34 C          -1.7818  -18.6567   21.2200 C.3     1  UNL1        0.0593
     35 C          -2.5861  -17.9005   22.2355 C.3     1  UNL1        0.0479
     36 C          -2.4435  -16.4116   22.3474 C.3     1  UNL1        0.1435
     37 O          -1.4967  -15.6787   21.4438 O.3     1  UNL1       -0.3537
     38 C          -0.6924  -16.4349   20.4283 C.3     1  UNL1        0.1435
     39 C          -0.8350  -17.9239   20.3164 C.3     1  UNL1        0.0479
@<TRIPOS>BOND
     1    13    14   ar
     2    14    15   ar
     3    15    16   ar
     4    16    17   ar
     5    17    18   ar
     6    17    19    1
     7    19    20    1
     8    20    21    1
     9    21    12    1
    10    12     1    1
    11     1    24    1
    12    24    25    1
    13    25    26   ar
    14    26    27   ar
    15    27    28   ar
    16    28    31    1
    17    31    32    1
    18    32    34    1
    19    34    35    1
    20    35    36    1
    21    36    37    1
    22    37    38    1
    23    38    39    1
    24    28    29   ar
    25    29    30   ar
    26     2     1    1
    27     2     3    1
    28     3     4    1
    29     4     5    1
    30     5     6    1
    31     6     7   ar
    32     7     8   ar
    33     8     9   ar
    34     9    10   ar
    35    10    11   ar
    36    21    22    1
    37    18    13   ar
    38    30    25   ar
    39    11     2    1
    40    22    16    1
    41    39    34    1
    42    11     6   ar
    43    20    23    1
    44    32    33    1
@<TRIPOS>MOLECULE
*****
 39 44 0 0 0
SMALL
GASTEIGER

@<TRIPOS>ATOM
      1 N           0.1133    2.2376   20.3807 N.3     1  UNL1       -0.2641
      2 C          -0.6114    3.0944   19.3854 C.3     1  UNL1        0.0981
      3 C           0.1177    3.6390   18.1929 C.3     1  UNL1        0.0224
      4 C          -0.6070    4.4958   17.1976 C.3     1  UNL1        0.0065
      5 C          -2.0609    4.8080   17.3947 C.3     1  UNL1        0.0277
      6 C          -2.7900    4.2634   18.5870 C.ar    1  UNL1       -0.0073
      7 C          -4.2439    4.5755   18.7840 C.ar    1  UNL1       -0.0015
      8 C          -4.9730    4.0309   19.9764 C.ar    1  UNL1        0.0203
      9 C          -4.2483    3.1741   20.9717 C.ar    1  UNL1        0.0985
     10 N          -2.7945    2.8619   20.7747 N.ar    1  UNL1       -0.2471
     11 C          -2.0653    3.4065   19.5824 C.ar    1  UNL1        0.0695
     12 C           0.1417    0.7478   20.2079 C.3     1  UNL1        0.0888
     13 C           5.6407   -3.0368   18.5683 C.ar    1  UNL1       -0.0003
     14 C           5.0985   -3.5039   19.8865 C.ar    1  UNL1       -0.0003
     15 C           3.8902   -2.8404   20.4781 C.ar    1  UNL1       -0.0045
     16 C           3.2242   -1.7098   19.7514 C.ar    1  UNL1       -0.0234
     17 C           3.7664   -1.2426   18.4332 C.ar    1  UNL1       -0.0103
     18 C           4.9746   -1.9061   17.8416 C.ar    1  UNL1       -0.0032
     19 C           3.1004   -0.1120   17.7065 C.3     1  UNL1        0.0953
     20 N           1.8922    0.5515   18.2980 N.3     1  UNL1       -0.2934
     21 C           1.3499    0.0844   19.6163 C.3     1  UNL1        0.0748
     22 C           2.0159   -1.0462   20.3430 C.3     1  UNL1        0.0432
     23 H           1.1387    0.4517   17.6178 H       1  UNL1        0.1236
     24 C           0.8096    2.8706   21.5488 C.3     1  UNL1        0.0994
     25 C           0.4368    2.4770   22.9474 C.ar    1  UNL1       -0.0062
     26 C          -0.6804    3.1864   23.6536 C.ar    1  UNL1       -0.0032
     27 C          -1.0532    2.7928   25.0522 C.ar    1  UNL1       -0.0032
     28 C          -0.3089    1.6898   25.7446 C.ar    1  UNL1       -0.0064
     29 C           0.8081    0.9804   25.0384 C.ar    1  UNL1       -0.0032
     30 C           1.1810    1.3739   23.6397 C.ar    1  UNL1       -0.0032
     31 C          -0.6818    1.2962   27.1432 C.3     1  UNL1        0.0956
     32 N           0.0477    0.1783   27.8274 N.3     1  UNL1       -0.2947
     33 H           0.7534   -0.1575   27.1720 H       1  UNL1        0.1235
     34 C           0.7494    0.4269   29.1296 C.3     1  UNL1        0.0593
     35 C           1.8914   -0.4520   29.5459 C.3     1  UNL1        0.0479
     36 C           2.5931   -0.2034   30.8481 C.3     1  UNL1        0.1435
     37 O           2.1528    0.9241   31.7340 O.3     1  UNL1       -0.3537
     38 C           1.0108    1.8030   31.3178 C.3     1  UNL1        0.1435
     39 C           0.3091    1.5544   30.0156 C.3     1  UNL1        0.0479
@<TRIPOS>BOND
     1    13    14   ar
     2    14    15   ar
     3    15    16   ar
     4    16    17   ar
     5    17    18   ar
     6    17    19    1
     7    19    20    1
     8    20    21    1
     9    21    12    1
    10    12     1    1
    11     1    24    1
    12    24    25    1
    13    25    26   ar
    14    26    27   ar
    15    27    28   ar
    16    28    31    1
    17    31    32    1
    18    32    34    1
    19    34    35    1
    20    35    36    1
    21    36    37    1
    22    37    38    1
    23    38    39    1
    24    28    29   ar
    25    29    30   ar
    26     2     1    1
    27     2     3    1
    28     3     4    1
    29     4     5    1
    30     5     6    1
    31     6     7   ar
    32     7     8   ar
    33     8     9   ar
    34     9    10   ar
    35    10    11   ar
    36    21    22    1
    37    18    13   ar
    38    30    25   ar
    39    11     2    1
    40    22    16    1
    41    39    34    1
    42    11     6   ar
    43    20    23    1
    44    32    33    1
@<TRIPOS>MOLECULE
*****
 39 44 0 0 0
SMALL
GASTEIGER

@<TRIPOS>ATOM
      1 N         -13.4568   -3.5371   18.1478 N.3     1  UNL1       -0.2641
      2 C         -12.0423   -3.6628   17.6649 C.3     1  UNL1        0.0981
      3 C         -11.4233   -2.5581   16.8608 C.3     1  UNL1        0.0224
      4 C         -10.0087   -2.6839   16.3779 C.3     1  UNL1        0.0065
      5 C          -9.2132   -3.9143   16.6991 C.3     1  UNL1        0.0277
      6 C          -9.8321   -5.0190   17.5031 C.ar    1  UNL1       -0.0073
      7 C          -9.0366   -6.2494   17.8243 C.ar    1  UNL1       -0.0015
      8 C          -9.6556   -7.3541   18.6284 C.ar    1  UNL1        0.0203
      9 C         -11.0701   -7.2283   19.1113 C.ar    1  UNL1        0.0985
     10 N         -11.8657   -5.9979   18.7902 N.ar    1  UNL1       -0.2471
     11 C         -11.2467   -4.8932   17.9861 C.ar    1  UNL1        0.0695
     12 C         -14.5765   -4.1450   17.3561 C.3     1  UNL1        0.0888
     13 C         -17.1916  -10.2284   19.2010 C.ar    1  UNL1       -0.0003
     14 C         -17.9020   -9.1408   19.9509 C.ar    1  UNL1       -0.0003
     15 C         -17.5211   -7.7066   19.7319 C.ar    1  UNL1       -0.0045
     16 C         -16.4297   -7.3600   18.7630 C.ar    1  UNL1       -0.0234
     17 C         -15.7192   -8.4476   18.0131 C.ar    1  UNL1       -0.0103
     18 C         -16.1001   -9.8818   18.2321 C.ar    1  UNL1       -0.0032
     19 C         -14.6278   -8.1010   17.0442 C.3     1  UNL1        0.0953
     20 N         -14.2469   -6.6668   16.8252 N.3     1  UNL1       -0.2934
     21 C         -14.9574   -5.5792   17.5751 C.3     1  UNL1        0.0748
     22 C         -16.0488   -5.9258   18.5440 C.3     1  UNL1        0.0432
     23 H         -14.3799   -6.4752   15.8322 H       1  UNL1        0.1236
     24 C         -13.7518   -2.8033   19.4225 C.3     1  UNL1        0.0994
     25 C         -14.4271   -1.4648   19.3783 C.ar    1  UNL1       -0.0062
     26 C         -15.7211   -1.2531   20.1070 C.ar    1  UNL1       -0.0032
     27 C         -16.3964    0.0855   20.0628 C.ar    1  UNL1       -0.0032
     28 C         -15.7779    1.2125   19.2899 C.ar    1  UNL1       -0.0064
     29 C         -14.4841    1.0009   18.5612 C.ar    1  UNL1       -0.0032
     30 C         -13.8086   -0.3378   18.6054 C.ar    1  UNL1       -0.0032
     31 C         -16.4533    2.5511   19.2457 C.3     1  UNL1        0.0956
     32 N         -17.2267    3.0405   20.4341 N.3     1  UNL1       -0.2947
     33 H         -17.7809    2.2527   20.7696 H       1  UNL1        0.1235
     34 C         -16.5016    3.5974   21.6234 C.3     1  UNL1        0.0593
     35 C         -17.0640    3.4082   23.0009 C.3     1  UNL1        0.0479
     36 C         -16.3389    3.9651   24.1901 C.3     1  UNL1        0.1435
     37 O         -15.0513    4.7111   24.0016 O.3     1  UNL1       -0.3537
     38 C         -14.4888    4.9002   22.6240 C.3     1  UNL1        0.1435
     39 C         -15.2139    4.3434   21.4349 C.3     1  UNL1        0.0479
@<TRIPOS>BOND
     1    13    14   ar
     2    14    15   ar
     3    15    16   ar
     4    16    17   ar
     5    17    18   ar
     6    17    19    1
     7    19    20    1
     8    20    21    1
     9    21    12    1
    10    12     1    1
    11     1    24    1
    12    24    25    1
    13    25    26   ar
    14    26    27   ar
    15    27    28   ar
    16    28    31    1
    17    31    32    1
    18    32    34    1
    19    34    35    1
    20    35    36    1
    21    36    37    1
    22    37    38    1
    23    38    39    1
    24    28    29   ar
    25    29    30   ar
    26     2     1    1
    27     2     3    1
    28     3     4    1
    29     4     5    1
    30     5     6    1
    31     6     7   ar
    32     7     8   ar
    33     8     9   ar
    34     9    10   ar
    35    10    11   ar
    36    21    22    1
    37    18    13   ar
    38    30    25   ar
    39    11     2    1
    40    22    16    1
    41    39    34    1
    42    11     6   ar
    43    20    23    1
    44    32    33    1
@<TRIPOS>MOLECULE
*****
 39 44 0 0 0
SMALL
GASTEIGER

@<TRIPOS>ATOM
      1 N          -0.1976    2.6892   20.5966 N.3     1  UNL1       -0.2641
      2 C          -1.0578    3.2765   19.5172 C.3     1  UNL1        0.0981
      3 C          -0.4387    3.7301   18.2283 C.3     1  UNL1        0.0224
      4 C          -1.2988    4.3173   17.1489 C.3     1  UNL1        0.0065
      5 C          -2.7781    4.4510   17.3582 C.3     1  UNL1        0.0277
      6 C          -3.3972    3.9974   18.6470 C.ar    1  UNL1       -0.0073
      7 C          -4.8765    4.1311   18.8563 C.ar    1  UNL1       -0.0015
      8 C          -5.4956    3.6775   20.1452 C.ar    1  UNL1        0.0203
      9 C          -4.6355    3.0903   21.2246 C.ar    1  UNL1        0.0985
     10 N          -3.1562    2.9566   21.0152 N.ar    1  UNL1       -0.2471
     11 C          -2.5371    3.4101   19.7265 C.ar    1  UNL1        0.0695
     12 C           0.2344    3.5373   21.7560 C.3     1  UNL1        0.0888
     13 C          -0.3108    1.2265   28.2068 C.ar    1  UNL1       -0.0003
     14 C           1.0433    0.8685   27.6698 C.ar    1  UNL1       -0.0003
     15 C           1.4231    1.2591   26.2722 C.ar    1  UNL1       -0.0045
     16 C           0.4489    2.0076   25.4117 C.ar    1  UNL1       -0.0234
     17 C          -0.9051    2.3657   25.9487 C.ar    1  UNL1       -0.0103
     18 C          -1.2850    1.9751   27.3462 C.ar    1  UNL1       -0.0032
     19 C          -1.8794    3.1143   25.0881 C.3     1  UNL1        0.0953
     20 N          -1.4995    3.5048   23.6905 N.3     1  UNL1       -0.2934
     21 C          -0.1455    3.1468   23.1535 C.3     1  UNL1        0.0748
     22 C           0.8287    2.3982   24.0140 C.3     1  UNL1        0.0432
     23 H          -1.5785    4.5203   23.6368 H       1  UNL1        0.1236
     24 C           0.2306    1.2539   20.5166 C.3     1  UNL1        0.0994
     25 C           1.5182    0.8920   19.8376 C.ar    1  UNL1       -0.0062
     26 C           2.8129    0.9769   20.5904 C.ar    1  UNL1       -0.0032
     27 C           4.1005    0.6151   19.9114 C.ar    1  UNL1       -0.0032
     28 C           4.0935    0.1684   18.4794 C.ar    1  UNL1       -0.0064
     29 C           2.7989    0.0836   17.7265 C.ar    1  UNL1       -0.0032
     30 C           1.5112    0.4454   18.4056 C.ar    1  UNL1       -0.0032
     31 C           5.3810   -0.1934   17.8003 C.3     1  UNL1        0.0956
     32 N           5.7433   -1.6350   17.5987 N.3     1  UNL1       -0.2947
     33 H           6.7404   -1.6609   17.3852 H       1  UNL1        0.1235
     34 C           5.5100   -2.6279   18.6986 C.3     1  UNL1        0.0593
     35 C           4.3296   -3.5514   18.6373 C.3     1  UNL1        0.0479
     36 C           4.0964   -4.5442   19.7372 C.3     1  UNL1        0.1435
     37 O           5.0435   -4.6136   20.8983 O.3     1  UNL1       -0.3537
     38 C           6.2239   -3.6901   20.9595 C.3     1  UNL1        0.1435
     39 C           6.4571   -2.6972   19.8597 C.3     1  UNL1        0.0479
@<TRIPOS>BOND
     1    13    14   ar
     2    14    15   ar
     3    15    16   ar
     4    16    17   ar
     5    17    18   ar
     6    17    19    1
     7    19    20    1
     8    20    21    1
     9    21    12    1
    10    12     1    1
    11     1    24    1
    12    24    25    1
    13    25    26   ar
    14    26    27   ar
    15    27    28   ar
    16    28    31    1
    17    31    32    1
    18    32    34    1
    19    34    35    1
    20    35    36    1
    21    36    37    1
    22    37    38    1
    23    38    39    1
    24    28    29   ar
    25    29    30   ar
    26     2     1    1
    27     2     3    1
    28     3     4    1
    29     4     5    1
    30     5     6    1
    31     6     7   ar
    32     7     8   ar
    33     8     9   ar
    34     9    10   ar
    35    10    11   ar
    36    21    22    1
    37    18    13   ar
    38    30    25   ar
    39    11     2    1
    40    22    16    1
    41    39    34    1
    42    11     6   ar
    43    20    23    1
    44    32    33    1
@<TRIPOS>MOLECULE
*****
 39 44 0 0 0
SMALL
GASTEIGER

@<TRIPOS>ATOM
      1 N           0.1751    2.1070   20.5754 N.3     1  UNL1       -0.2641
      2 C          -0.3900    3.1415   19.6478 C.3     1  UNL1        0.0981
      3 C           0.4953    3.8035   18.6339 C.3     1  UNL1        0.0224
      4 C          -0.0698    4.8380   17.7063 C.3     1  UNL1        0.0065
      5 C          -1.5202    5.2104   17.7925 C.3     1  UNL1        0.0277
      6 C          -2.4056    4.5484   18.8063 C.ar    1  UNL1       -0.0073
      7 C          -3.8561    4.9209   18.8925 C.ar    1  UNL1       -0.0015
      8 C          -4.7414    4.2588   19.9064 C.ar    1  UNL1        0.0203
      9 C          -4.1763    3.2244   20.8340 C.ar    1  UNL1        0.0985
     10 N          -2.7258    2.8519   20.7478 N.ar    1  UNL1       -0.2471
     11 C          -1.8405    3.5139   19.7340 C.ar    1  UNL1        0.0695
     12 C           0.1431    0.6574   20.1911 C.3     1  UNL1        0.0888
     13 C           5.6263   -3.1025   18.4452 C.ar    1  UNL1       -0.0003
     14 C           5.0412   -3.6475   19.7143 C.ar    1  UNL1       -0.0003
     15 C           3.8275   -3.0045   20.3173 C.ar    1  UNL1       -0.0045
     16 C           3.1990   -1.8165   19.6512 C.ar    1  UNL1       -0.0234
     17 C           3.7841   -1.2715   18.3821 C.ar    1  UNL1       -0.0103
     18 C           4.9978   -1.9145   17.7791 C.ar    1  UNL1       -0.0032
     19 C           3.1556   -0.0835   17.7160 C.3     1  UNL1        0.0953
     20 N           1.9419    0.5594   18.3190 N.3     1  UNL1       -0.2934
     21 C           1.3568    0.0144   19.5881 C.3     1  UNL1        0.0748
     22 C           1.9853   -1.1735   20.2542 C.3     1  UNL1        0.0432
     23 H           1.2059    0.5183   17.6140 H       1  UNL1        0.1236
     24 C           0.7722    2.5221   21.8874 C.3     1  UNL1        0.0994
     25 C           1.8849    1.7187   22.4926 C.ar    1  UNL1       -0.0062
     26 C           3.2912    1.8966   22.0020 C.ar    1  UNL1       -0.0032
     27 C           4.4040    1.0932   22.6073 C.ar    1  UNL1       -0.0032
     28 C           4.1104    0.1120   23.7032 C.ar    1  UNL1       -0.0064
     29 C           2.7042   -0.0659   24.1938 C.ar    1  UNL1       -0.0032
     30 C           1.5914    0.7375   23.5885 C.ar    1  UNL1       -0.0032
     31 C           5.2232   -0.6914   24.3084 C.3     1  UNL1        0.0956
     32 N           5.3754   -2.1426   23.9610 N.3     1  UNL1       -0.2947
     33 H           4.4811   -2.4491   23.5780 H       1  UNL1        0.1235
     34 C           6.4335   -2.5741   22.9891 C.3     1  UNL1        0.0593
     35 C           7.0521   -1.5721   22.0601 C.3     1  UNL1        0.0479
     36 C           8.1100   -2.0036   21.0883 C.3     1  UNL1        0.1435
     37 O           8.5494   -3.4372   21.0455 O.3     1  UNL1       -0.3537
     38 C           7.9307   -4.4392   21.9745 C.3     1  UNL1        0.1435
     39 C           6.8728   -4.0077   22.9463 C.3     1  UNL1        0.0479
@<TRIPOS>BOND
     1    13    14   ar
     2    14    15   ar
     3    15    16   ar
     4    16    17   ar
     5    17    18   ar
     6    17    19    1
     7    19    20    1
     8    20    21    1
     9    21    12    1
    10    12     1    1
    11     1    24    1
    12    24    25    1
    13    25    26   ar
    14    26    27   ar
    15    27    28   ar
    16    28    31    1
    17    31    32    1
    18    32    34    1
    19    34    35    1
    20    35    36    1
    21    36    37    1
    22    37    38    1
    23    38    39    1
    24    28    29   ar
    25    29    30   ar
    26     2     1    1
    27     2     3    1
    28     3     4    1
    29     4     5    1
    30     5     6    1
    31     6     7   ar
    32     7     8   ar
    33     8     9   ar
    34     9    10   ar
    35    10    11   ar
    36    21    22    1
    37    18    13   ar
    38    30    25   ar
    39    11     2    1
    40    22    16    1
    41    39    34    1
    42    11     6   ar
    43    20    23    1
    44    32    33    1
@<TRIPOS>MOLECULE
*****
 39 44 0 0 0
SMALL
GASTEIGER

@<TRIPOS>ATOM
      1 N          -8.9517  -18.4009   21.9278 N.3     1  UNL1       -0.2641
      2 C         -10.3956  -18.1514   22.2488 C.3     1  UNL1        0.0981
      3 C         -11.0079  -18.7628   23.4741 C.3     1  UNL1        0.0224
      4 C         -12.4518  -18.5134   23.7951 C.3     1  UNL1        0.0065
      5 C         -13.2833  -17.6526   22.8909 C.3     1  UNL1        0.0277
      6 C         -12.6710  -17.0413   21.6656 C.ar    1  UNL1       -0.0073
      7 C         -13.5025  -16.1805   20.7614 C.ar    1  UNL1       -0.0015
      8 C         -12.8901  -15.5691   19.5361 C.ar    1  UNL1        0.0203
      9 C         -11.4463  -15.8186   19.2151 C.ar    1  UNL1        0.0985
     10 N         -10.6148  -16.6793   20.1193 N.ar    1  UNL1       -0.2471
     11 C         -11.2271  -17.2907   21.3445 C.ar    1  UNL1        0.0695
     12 C          -7.9920  -17.2509   21.8460 C.3     1  UNL1        0.0888
     13 C          -6.7432  -14.5108   28.0252 C.ar    1  UNL1       -0.0003
     14 C          -8.2008  -14.8500   27.9240 C.ar    1  UNL1       -0.0003
     15 C          -8.7421  -15.4659   26.6679 C.ar    1  UNL1       -0.0045
     16 C          -7.8258  -15.7425   25.5131 C.ar    1  UNL1       -0.0234
     17 C          -6.3681  -15.4033   25.6142 C.ar    1  UNL1       -0.0103
     18 C          -5.8268  -14.7875   26.8703 C.ar    1  UNL1       -0.0032
     19 C          -5.4518  -15.6800   24.4593 C.3     1  UNL1        0.0953
     20 N          -5.9931  -16.2958   23.2032 N.3     1  UNL1       -0.2934
     21 C          -7.4507  -16.6350   23.1021 C.3     1  UNL1        0.0748
     22 C          -8.3671  -16.3584   24.2569 C.3     1  UNL1        0.0432
     23 H          -5.4779  -17.1636   23.0550 H       1  UNL1        0.1236
     24 C          -8.4675  -19.8002   21.6885 C.3     1  UNL1        0.0994
     25 C          -7.0330  -20.0457   21.3252 C.ar    1  UNL1       -0.0062
     26 C          -6.6562  -20.3150   19.8984 C.ar    1  UNL1       -0.0032
     27 C          -5.2217  -20.5604   19.5351 C.ar    1  UNL1       -0.0032
     28 C          -4.1641  -20.5366   20.5984 C.ar    1  UNL1       -0.0064
     29 C          -4.5408  -20.2672   22.0251 C.ar    1  UNL1       -0.0032
     30 C          -5.9753  -20.0218   22.3885 C.ar    1  UNL1       -0.0032
     31 C          -2.7296  -20.7820   20.2351 C.3     1  UNL1        0.0956
     32 N          -1.6339  -20.1245   21.0207 N.3     1  UNL1       -0.2947
     33 H          -0.7536  -20.3977   20.5837 H       1  UNL1        0.1235
     34 C          -1.6031  -18.6313   21.1600 C.3     1  UNL1        0.0593
     35 C          -2.4292  -17.9594   22.2164 C.3     1  UNL1        0.0479
     36 C          -2.3983  -16.4662   22.3557 C.3     1  UNL1        0.1435
     37 O          -1.5414  -15.6449   21.4386 O.3     1  UNL1       -0.3537
     38 C          -0.7153  -16.3168   20.3822 C.3     1  UNL1        0.1435
     39 C          -0.7461  -17.8100   20.2429 C.3     1  UNL1        0.0479
@<TRIPOS>BOND
     1    13    14   ar
     2    14    15   ar
     3    15    16   ar
     4    16    17   ar
     5    17    18   ar
     6    17    19    1
     7    19    20    1
     8    20    21    1
     9    21    12    1
    10    12     1    1
    11     1    24    1
    12    24    25    1
    13    25    26   ar
    14    26    27   ar
    15    27    28   ar
    16    28    31    1
    17    31    32    1
    18    32    34    1
    19    34    35    1
    20    35    36    1
    21    36    37    1
    22    37    38    1
    23    38    39    1
    24    28    29   ar
    25    29    30   ar
    26     2     1    1
    27     2     3    1
    28     3     4    1
    29     4     5    1
    30     5     6    1
    31     6     7   ar
    32     7     8   ar
    33     8     9   ar
    34     9    10   ar
    35    10    11   ar
    36    21    22    1
    37    18    13   ar
    38    30    25   ar
    39    11     2    1
    40    22    16    1
    41    39    34    1
    42    11     6   ar
    43    20    23    1
    44    32    33    1
@<TRIPOS>MOLECULE
*****
 39 44 0 0 0
SMALL
GASTEIGER

@<TRIPOS>ATOM
      1 N         -14.3343   -4.4468   18.9346 N.3     1  UNL1       -0.2641
      2 C         -12.8928   -4.0590   18.7877 C.3     1  UNL1        0.0981
      3 C         -12.4920   -2.6159   18.8714 C.3     1  UNL1        0.0224
      4 C         -11.0505   -2.2281   18.7245 C.3     1  UNL1        0.0065
      5 C         -10.0097   -3.2833   18.4939 C.3     1  UNL1        0.0277
      6 C         -10.4104   -4.7263   18.4102 C.ar    1  UNL1       -0.0073
      7 C          -9.3696   -5.7816   18.1796 C.ar    1  UNL1       -0.0015
      8 C          -9.7703   -7.2247   18.0959 C.ar    1  UNL1        0.0203
      9 C         -11.2118   -7.6125   18.2428 C.ar    1  UNL1        0.0985
     10 N         -12.2526   -6.5572   18.4734 N.ar    1  UNL1       -0.2471
     11 C         -11.8520   -5.1142   18.5571 C.ar    1  UNL1        0.0695
     12 C         -14.7308   -5.4973   19.9292 C.3     1  UNL1        0.0888
     13 C         -19.2617  -10.3356   18.1094 C.ar    1  UNL1       -0.0003
     14 C         -20.0038   -9.1089   18.5502 C.ar    1  UNL1       -0.0003
     15 C         -19.2460   -7.8958   19.0023 C.ar    1  UNL1       -0.0045
     16 C         -17.7462   -7.9096   19.0137 C.ar    1  UNL1       -0.0234
     17 C         -17.0040   -9.1363   18.5729 C.ar    1  UNL1       -0.0103
     18 C         -17.7617  -10.3493   18.1208 C.ar    1  UNL1       -0.0032
     19 C         -15.5041   -9.1501   18.5842 C.3     1  UNL1        0.0953
     20 N         -14.7464   -7.9371   19.0363 N.3     1  UNL1       -0.2934
     21 C         -15.4885   -6.7103   19.4771 C.3     1  UNL1        0.0748
     22 C         -16.9884   -6.6965   19.4658 C.3     1  UNL1        0.0432
     23 H         -14.1490   -7.6563   18.2587 H       1  UNL1        0.1236
     24 C         -15.3794   -3.7841   18.0868 C.3     1  UNL1        0.0994
     25 C         -16.2232   -2.6843   18.6598 C.ar    1  UNL1       -0.0062
     26 C         -15.6058   -1.6584   19.5634 C.ar    1  UNL1       -0.0032
     27 C         -16.4496   -0.5586   20.1363 C.ar    1  UNL1       -0.0032
     28 C         -17.9109   -0.4846   19.8057 C.ar    1  UNL1       -0.0064
     29 C         -18.5283   -1.5104   18.9021 C.ar    1  UNL1       -0.0032
     30 C         -17.6844   -2.6103   18.3291 C.ar    1  UNL1       -0.0032
     31 C         -18.7547    0.6153   20.3786 C.3     1  UNL1        0.0956
     32 N         -18.5653    1.0406   21.8046 N.3     1  UNL1       -0.2947
     33 H         -18.2074    0.2294   22.3088 H       1  UNL1        0.1235
     34 C         -17.6564    2.1886   22.1304 C.3     1  UNL1        0.0593
     35 C         -16.9993    2.9619   21.0258 C.3     1  UNL1        0.0479
     36 C         -16.0905    4.1098   21.3516 C.3     1  UNL1        0.1435
     37 O         -15.8387    4.4844   22.7821 O.3     1  UNL1       -0.3537
     38 C         -16.4958    3.7112   23.8867 C.3     1  UNL1        0.1435
     39 C         -17.4047    2.5633   23.5608 C.3     1  UNL1        0.0479
@<TRIPOS>BOND
     1    13    14   ar
     2    14    15   ar
     3    15    16   ar
     4    16    17   ar
     5    17    18   ar
     6    17    19    1
     7    19    20    1
     8    20    21    1
     9    21    12    1
    10    12     1    1
    11     1    24    1
    12    24    25    1
    13    25    26   ar
    14    26    27   ar
    15    27    28   ar
    16    28    31    1
    17    31    32    1
    18    32    34    1
    19    34    35    1
    20    35    36    1
    21    36    37    1
    22    37    38    1
    23    38    39    1
    24    28    29   ar
    25    29    30   ar
    26     2     1    1
    27     2     3    1
    28     3     4    1
    29     4     5    1
    30     5     6    1
    31     6     7   ar
    32     7     8   ar
    33     8     9   ar
    34     9    10   ar
    35    10    11   ar
    36    21    22    1
    37    18    13   ar
    38    30    25   ar
    39    11     2    1
    40    22    16    1
    41    39    34    1
    42    11     6   ar
    43    20    23    1
    44    32    33    1
@<TRIPOS>MOLECULE
*****
 39 44 0 0 0
SMALL
GASTEIGER

@<TRIPOS>ATOM
      1 N           6.5361   -3.4493   22.9319 N.3     1  UNL1       -0.2641
      2 C           6.6349   -3.7570   24.3967 C.3     1  UNL1        0.0981
      3 C           6.1710   -2.7504   25.4075 C.3     1  UNL1        0.0224
      4 C           6.2698   -3.0581   26.8722 C.3     1  UNL1        0.0065
      5 C           6.8325   -4.3723   27.3262 C.3     1  UNL1        0.0277
      6 C           7.2965   -5.3788   26.3155 C.ar    1  UNL1       -0.0073
      7 C           7.8592   -6.6931   26.7695 C.ar    1  UNL1       -0.0015
      8 C           8.3231   -7.6996   25.7587 C.ar    1  UNL1        0.0203
      9 C           8.2243   -7.3919   24.2940 C.ar    1  UNL1        0.0985
     10 N           7.6616   -6.0777   23.8399 N.ar    1  UNL1       -0.2471
     11 C           7.1976   -5.0712   24.8507 C.ar    1  UNL1        0.0695
     12 C           7.5965   -2.6236   22.2658 C.3     1  UNL1        0.0888
     13 C           5.8337    1.5178   17.0704 C.ar    1  UNL1       -0.0003
     14 C           5.5352    2.2056   18.3696 C.ar    1  UNL1       -0.0003
     15 C           5.8281    1.5149   19.6685 C.ar    1  UNL1       -0.0045
     16 C           6.4194    0.1364   19.6682 C.ar    1  UNL1       -0.0234
     17 C           6.7180   -0.5514   18.3691 C.ar    1  UNL1       -0.0103
     18 C           6.4251    0.1393   17.0702 C.ar    1  UNL1       -0.0032
     19 C           7.3094   -1.9300   18.3688 C.3     1  UNL1        0.0953
     20 N           7.6022   -2.6206   19.6677 N.3     1  UNL1       -0.2934
     21 C           7.3037   -1.9329   20.9669 C.3     1  UNL1        0.0748
     22 C           6.7123   -0.5544   20.9672 C.3     1  UNL1        0.0432
     23 H           8.5997   -2.8335   19.6696 H       1  UNL1        0.1236
     24 C           5.3768   -3.9672   22.1333 C.3     1  UNL1        0.0994
     25 C           4.3876   -3.0090   21.5391 C.ar    1  UNL1       -0.0062
     26 C           3.9989   -3.1314   20.0954 C.ar    1  UNL1       -0.0032
     27 C           3.0097   -2.1731   19.5012 C.ar    1  UNL1       -0.0032
     28 C           2.4091   -1.0924   20.3505 C.ar    1  UNL1       -0.0064
     29 C           2.7977   -0.9700   21.7941 C.ar    1  UNL1       -0.0032
     30 C           3.7870   -1.9283   22.3884 C.ar    1  UNL1       -0.0032
     31 C           1.4199   -0.1342   19.7563 C.3     1  UNL1        0.0956
     32 N           0.1454    0.1754   20.4841 N.3     1  UNL1       -0.2947
     33 H           0.0652   -0.5047   21.2400 H       1  UNL1        0.1235
     34 C          -0.0586    1.5295   21.0965 C.3     1  UNL1        0.0593
     35 C          -0.7296    2.6155   20.3089 C.3     1  UNL1        0.0479
     36 C          -0.9335    3.9695   20.9214 C.3     1  UNL1        0.1435
     37 O          -0.4666    4.2374   22.3215 O.3     1  UNL1       -0.3537
     38 C           0.2043    3.1514   23.1091 C.3     1  UNL1        0.1435
     39 C           0.4083    1.7974   22.4966 C.3     1  UNL1        0.0479
@<TRIPOS>BOND
     1    13    14   ar
     2    14    15   ar
     3    15    16   ar
     4    16    17   ar
     5    17    18   ar
     6    17    19    1
     7    19    20    1
     8    20    21    1
     9    21    12    1
    10    12     1    1
    11     1    24    1
    12    24    25    1
    13    25    26   ar
    14    26    27   ar
    15    27    28   ar
    16    28    31    1
    17    31    32    1
    18    32    34    1
    19    34    35    1
    20    35    36    1
    21    36    37    1
    22    37    38    1
    23    38    39    1
    24    28    29   ar
    25    29    30   ar
    26     2     1    1
    27     2     3    1
    28     3     4    1
    29     4     5    1
    30     5     6    1
    31     6     7   ar
    32     7     8   ar
    33     8     9   ar
    34     9    10   ar
    35    10    11   ar
    36    21    22    1
    37    18    13   ar
    38    30    25   ar
    39    11     2    1
    40    22    16    1
    41    39    34    1
    42    11     6   ar
    43    20    23    1
    44    32    33    1
@<TRIPOS>MOLECULE
*****
 39 44 0 0 0
SMALL
GASTEIGER

@<TRIPOS>ATOM
      1 N         -16.8125   -5.5231   18.2305 N.3     1  UNL1       -0.2641
      2 C         -17.9737   -6.3948   17.8541 C.3     1  UNL1        0.0981
      3 C         -19.2470   -5.7754   17.3590 C.3     1  UNL1        0.0224
      4 C         -20.4082   -6.6471   16.9826 C.3     1  UNL1        0.0065
      5 C         -20.2962   -8.1382   17.1013 C.3     1  UNL1        0.0277
      6 C         -19.0230   -8.7576   17.5964 C.ar    1  UNL1       -0.0073
      7 C         -18.9110  -10.2487   17.7152 C.ar    1  UNL1       -0.0015
      8 C         -17.6377  -10.8681   18.2103 C.ar    1  UNL1        0.0203
      9 C         -16.4765   -9.9964   18.5867 C.ar    1  UNL1        0.0985
     10 N         -16.5885   -8.5053   18.4680 N.ar    1  UNL1       -0.2471
     11 C         -17.8617   -7.8859   17.9729 C.ar    1  UNL1        0.0695
     12 C         -15.7271   -5.2474   17.2324 C.3     1  UNL1        0.0888
     13 C          -9.2954   -7.2781   18.5588 C.ar    1  UNL1       -0.0003
     14 C          -9.5310   -5.9430   19.2008 C.ar    1  UNL1       -0.0003
     15 C         -10.8645   -5.2699   19.0639 C.ar    1  UNL1       -0.0045
     16 C         -11.9623   -5.9318   18.2850 C.ar    1  UNL1       -0.0234
     17 C         -11.7267   -7.2668   17.6431 C.ar    1  UNL1       -0.0103
     18 C         -10.3933   -7.9400   17.7799 C.ar    1  UNL1       -0.0032
     19 C         -12.8246   -7.9287   16.8642 C.3     1  UNL1        0.0953
     20 N         -14.1581   -7.2556   16.7273 N.3     1  UNL1       -0.2934
     21 C         -14.3937   -5.9206   17.3693 C.3     1  UNL1        0.0748
     22 C         -13.2959   -5.2587   18.1481 C.3     1  UNL1        0.0432
     23 H         -14.8519   -7.8951   17.1146 H       1  UNL1        0.1236
     24 C         -16.7365   -4.9272   19.6049 C.3     1  UNL1        0.0994
     25 C         -16.9373   -3.4529   19.7953 C.ar    1  UNL1       -0.0062
     26 C         -15.7687   -2.5177   19.6950 C.ar    1  UNL1       -0.0032
     27 C         -15.9695   -1.0435   19.8854 C.ar    1  UNL1       -0.0032
     28 C         -17.3388   -0.5044   20.1760 C.ar    1  UNL1       -0.0064
     29 C         -18.5073   -1.4395   20.2763 C.ar    1  UNL1       -0.0032
     30 C         -18.3065   -2.9138   20.0859 C.ar    1  UNL1       -0.0032
     31 C         -17.5395    0.9699   20.3663 C.3     1  UNL1        0.0956
     32 N         -17.8307    1.5169   21.7323 N.3     1  UNL1       -0.2947
     33 H         -17.6625    0.7598   22.3948 H       1  UNL1        0.1235
     34 C         -17.0765    2.7107   22.2386 C.3     1  UNL1        0.0593
     35 C         -17.0369    3.0046   23.7089 C.3     1  UNL1        0.0479
     36 C         -16.2828    4.1983   24.2151 C.3     1  UNL1        0.1435
     37 O         -15.5683    5.0982   23.2508 O.3     1  UNL1       -0.3537
     38 C         -15.6079    4.8043   21.7805 C.3     1  UNL1        0.1435
     39 C         -16.3620    3.6106   21.2743 C.3     1  UNL1        0.0479
@<TRIPOS>BOND
     1    13    14   ar
     2    14    15   ar
     3    15    16   ar
     4    16    17   ar
     5    17    18   ar
     6    17    19    1
     7    19    20    1
     8    20    21    1
     9    21    12    1
    10    12     1    1
    11     1    24    1
    12    24    25    1
    13    25    26   ar
    14    26    27   ar
    15    27    28   ar
    16    28    31    1
    17    31    32    1
    18    32    34    1
    19    34    35    1
    20    35    36    1
    21    36    37    1
    22    37    38    1
    23    38    39    1
    24    28    29   ar
    25    29    30   ar
    26     2     1    1
    27     2     3    1
    28     3     4    1
    29     4     5    1
    30     5     6    1
    31     6     7   ar
    32     7     8   ar
    33     8     9   ar
    34     9    10   ar
    35    10    11   ar
    36    21    22    1
    37    18    13   ar
    38    30    25   ar
    39    11     2    1
    40    22    16    1
    41    39    34    1
    42    11     6   ar
    43    20    23    1
    44    32    33    1
