@<TRIPOS>MOLECULE
*****
 35 39 0 0 0
SMALL
GASTEIGER

@<TRIPOS>ATOM
      1 C         -10.5742  -17.4238   20.9231 C.2     1  UNL1        0.4048
      2 O         -11.6786  -17.3912   19.9087 O.2     1  UNL1       -0.2262
      3 N          -9.4020  -18.3388   20.7265 N.am    1  UNL1       -0.2443
      4 C          -9.1972  -19.2736   19.5714 C.3     1  UNL1        0.0985
      5 C          -7.8974  -19.9922   19.7814 C.3     1  UNL1        0.0429
      6 C          -7.2989  -19.5016   21.0664 C.3     1  UNL1        0.0920
      7 C          -8.2288  -18.4798   21.6504 C.3     1  UNL1        0.1162
      8 N          -5.9987  -19.9535   21.6626 N.pl3   1  UNL1       -0.3180
      9 H          -5.9814  -20.7155   22.2857 H       1  UNL1        0.1482
     10 C          -4.7250  -19.2444   21.3094 C.ar    1  UNL1        0.1285
     11 C          -4.0890  -19.4678   19.9694 C.ar    1  UNL1        0.0340
     12 C          -2.8153  -18.7588   19.6162 C.ar    1  UNL1        0.0083
     13 C          -2.1775  -17.8262   20.6029 C.ar    1  UNL1        0.0906
     14 C          -2.8136  -17.6028   21.9429 C.ar    1  UNL1        0.1041
     15 N          -4.0873  -18.3119   22.2961 N.ar    1  UNL1       -0.2294
     16 C          -0.9038  -17.1171   20.2497 C.3     1  UNL1        0.4200
     17 F           0.3700  -16.4081   19.8965 F       1  UNL1       -0.1658
     18 F          -1.2641  -16.0029   21.1872 F       1  UNL1       -0.1658
     19 F          -0.5435  -18.2313   19.3123 F       1  UNL1       -0.1658
     20 O         -10.6420  -16.5415   22.1342 O.3     1  UNL1       -0.4383
     21 C         -10.7234  -17.6985   22.8149 C.3     1  UNL1        0.0688
     22 C          -9.9506  -17.4609   24.0783 C.3     1  UNL1        0.0086
     23 C          -9.8249  -18.5542   25.0975 C.3     1  UNL1        0.0007
     24 C         -10.4720  -19.8852   24.8533 C.3     1  UNL1        0.0036
     25 C         -11.2448  -20.1229   23.5899 C.3     1  UNL1        0.0407
     26 C         -11.3705  -19.0296   22.5707 C.3     1  UNL1        0.0122
     27 C         -10.1233  -17.0355   23.4521 C.3     1  UNL1        0.1702
     28 C          -9.3035  -16.1298   24.3226 C.3     1  UNL1        0.0407
     29 C          -9.1778  -17.2232   25.3418 C.3     1  UNL1        0.0036
     30 C         -10.0763  -16.3675   23.0592 C.3     1  UNL1        0.0122
     31 N         -12.1931  -16.0109   21.4952 N.am    1  UNL1       -0.3288
     32 C         -10.8491  -16.6052   21.7957 C.2     1  UNL1        0.2184
     33 O          -9.8723  -15.8853   20.9139 O.2     1  UNL1       -0.2754
     34 H         -12.2756  -15.2933   20.8262 H       1  UNL1        0.1449
     35 H         -12.9928  -16.3384   21.9669 H       1  UNL1        0.1449
@<TRIPOS>BOND
     1    31    32   am
     2    32    33    2
     3    21    32    1
     4    21    22    1
     5    22    23    1
     6    23    24    1
     7    24    25    1
     8    25    26    1
     9    25    27    1
    10    27    20    1
    11    20     1    1
    12     1     2    2
    13     1     3   am
    14     3     4    1
    15     4     5    1
    16     5     6    1
    17     6     8    1
    18     8    10    1
    19    10    11   ar
    20    11    12   ar
    21    12    13   ar
    22    13    16    1
    23    16    17    1
    24    16    18    1
    25    16    19    1
    26    13    14   ar
    27    14    15   ar
    28     6     7    1
    29    27    28    1
    30    28    29    1
    31    28    30    1
    32    26    21    1
    33     7     3    1
    34    30    21    1
    35    29    23    1
    36    15    10   ar
    37    31    34    1
    38    31    35    1
    39     8     9    1
@<TRIPOS>MOLECULE
*****
 35 39 0 0 0
SMALL
GASTEIGER

@<TRIPOS>ATOM
      1 C         -10.7499  -17.6341   20.8913 C.2     1  UNL1        0.4048
      2 O         -11.8252  -17.4163   19.8684 O.2     1  UNL1       -0.2262
      3 N          -9.5667  -18.4958   20.5638 N.am    1  UNL1       -0.2443
      4 C          -9.3229  -19.2015   19.2628 C.3     1  UNL1        0.0985
      5 C          -8.0250  -19.9451   19.3748 C.3     1  UNL1        0.0429
      6 C          -7.4666  -19.6989   20.7450 C.3     1  UNL1        0.0920
      7 C          -8.4194  -18.8033   21.4798 C.3     1  UNL1        0.1162
      8 N          -6.1811  -20.2514   21.2855 N.pl3   1  UNL1       -0.3180
      9 H          -6.1821  -21.0969   21.7899 H       1  UNL1        0.1482
     10 C          -4.8939  -19.5158   21.0576 C.ar    1  UNL1        0.1285
     11 C          -4.2034  -19.6062   19.7291 C.ar    1  UNL1        0.0340
     12 C          -2.9163  -18.8706   19.5012 C.ar    1  UNL1        0.0083
     13 C          -2.3196  -18.0444   20.6018 C.ar    1  UNL1        0.0906
     14 C          -3.0100  -17.9539   21.9303 C.ar    1  UNL1        0.1041
     15 N          -4.2972  -18.6896   22.1582 N.ar    1  UNL1       -0.2294
     16 C          -1.0324  -17.3087   20.3738 C.3     1  UNL1        0.4200
     17 F           0.2548  -16.5730   20.1459 F       1  UNL1       -0.1658
     18 F          -0.5677  -18.4045   19.4610 F       1  UNL1       -0.1658
     19 F          -1.4970  -16.2129   21.2867 F       1  UNL1       -0.1658
     20 O         -10.8580  -16.9900   22.2416 O.3     1  UNL1       -0.4383
     21 C         -10.1466  -16.8953   23.3791 C.3     1  UNL1        0.0688
     22 C         -10.5269  -18.1072   24.1769 C.3     1  UNL1        0.0086
     23 C          -9.9175  -18.3372   25.5280 C.3     1  UNL1        0.0007
     24 C          -8.9278  -17.3552   26.0814 C.3     1  UNL1        0.0036
     25 C          -8.5474  -16.1433   25.2836 C.3     1  UNL1        0.0407
     26 C          -9.1569  -15.9133   23.9324 C.3     1  UNL1        0.0122
     27 C         -10.7257  -17.8225   23.4824 C.3     1  UNL1        0.1702
     28 C         -11.5167  -19.0891   23.6235 C.3     1  UNL1        0.0407
     29 C         -10.9073  -19.3191   24.9747 C.3     1  UNL1        0.0036
     30 C         -11.1363  -17.8772   22.8257 C.3     1  UNL1        0.0122
     31 N         -10.0093  -15.8775   20.9926 N.am    1  UNL1       -0.3288
     32 C         -10.7560  -16.6653   22.0278 C.2     1  UNL1        0.2184
     33 O         -12.0527  -17.0643   21.3880 O.2     1  UNL1       -0.2754
     34 H         -10.4093  -15.7265   20.1057 H       1  UNL1        0.1449
     35 H          -9.1192  -15.5114   21.1999 H       1  UNL1        0.1449
@<TRIPOS>BOND
     1    31    32   am
     2    32    33    2
     3    21    32    1
     4    21    22    1
     5    22    23    1
     6    23    24    1
     7    24    25    1
     8    25    26    1
     9    25    27    1
    10    27    20    1
    11    20     1    1
    12     1     2    2
    13     1     3   am
    14     3     4    1
    15     4     5    1
    16     5     6    1
    17     6     8    1
    18     8    10    1
    19    10    11   ar
    20    11    12   ar
    21    12    13   ar
    22    13    16    1
    23    16    17    1
    24    16    18    1
    25    16    19    1
    26    13    14   ar
    27    14    15   ar
    28     6     7    1
    29    27    28    1
    30    28    29    1
    31    28    30    1
    32    26    21    1
    33     7     3    1
    34    30    21    1
    35    29    23    1
    36    15    10   ar
    37    31    34    1
    38    31    35    1
    39     8     9    1
@<TRIPOS>MOLECULE
*****
 35 39 0 0 0
SMALL
GASTEIGER

@<TRIPOS>ATOM
      1 C          -9.9335  -17.2160   22.6272 C.2     1  UNL1        0.4048
      2 O         -11.2153  -16.7559   21.9985 O.2     1  UNL1       -0.2262
      3 N          -9.0337  -18.1625   21.8893 N.am    1  UNL1       -0.2443
      4 C          -9.2819  -18.7310   20.5236 C.3     1  UNL1        0.0985
      5 C          -8.1293  -19.6265   20.1777 C.3     1  UNL1        0.0429
      6 C          -7.1687  -19.6114   21.3297 C.3     1  UNL1        0.0920
      7 C          -7.7277  -18.7066   22.3875 C.3     1  UNL1        0.1162
      8 N          -5.8762  -20.3683   21.4099 N.pl3   1  UNL1       -0.3180
      9 H          -5.8794  -21.3247   21.6433 H       1  UNL1        0.1482
     10 C          -4.5786  -19.6679   21.1343 C.ar    1  UNL1        0.1285
     11 C          -4.2053  -19.3068   19.7272 C.ar    1  UNL1        0.0340
     12 C          -2.9078  -18.6065   19.4517 C.ar    1  UNL1        0.0083
     13 C          -1.9836  -18.2672   20.5834 C.ar    1  UNL1        0.0906
     14 C          -2.3569  -18.6283   21.9905 C.ar    1  UNL1        0.1041
     15 N          -3.6545  -19.3286   22.2660 N.ar    1  UNL1       -0.2294
     16 C          -0.6860  -17.5668   20.3079 C.3     1  UNL1        0.4200
     17 F           0.6115  -16.8665   20.0324 F       1  UNL1       -0.1658
     18 F          -1.2037  -16.3377   20.9945 F       1  UNL1       -0.1658
     19 F          -0.1684  -18.7959   19.6212 F       1  UNL1       -0.1658
     20 O          -9.5516  -16.7297   23.9937 O.3     1  UNL1       -0.4383
     21 C          -8.7665  -16.4815   25.0572 C.3     1  UNL1        0.0688
     22 C          -7.5904  -15.7321   24.5049 C.3     1  UNL1        0.0086
     23 C          -6.4902  -15.2831   25.4203 C.3     1  UNL1        0.0007
     24 C          -6.5662  -15.5835   26.8880 C.3     1  UNL1        0.0036
     25 C          -7.7424  -16.3328   27.4402 C.3     1  UNL1        0.0407
     26 C          -8.8426  -16.7818   26.5248 C.3     1  UNL1        0.0122
     27 C          -8.2373  -16.0378   24.2034 C.3     1  UNL1        0.1702
     28 C          -7.5144  -15.4317   23.0373 C.3     1  UNL1        0.0407
     29 C          -6.4142  -14.9827   23.9527 C.3     1  UNL1        0.0036
     30 C          -8.6905  -16.1811   23.5895 C.3     1  UNL1        0.0122
     31 N         -10.6429  -15.9203   23.3500 N.am    1  UNL1       -0.3288
     32 C          -9.8668  -16.9305   24.1418 C.2     1  UNL1        0.2184
     33 O         -10.4433  -18.2681   23.7834 O.2     1  UNL1       -0.2754
     34 H         -11.3650  -16.2150   22.7492 H       1  UNL1        0.1449
     35 H         -10.4302  -14.9625   23.4311 H       1  UNL1        0.1449
@<TRIPOS>BOND
     1    31    32   am
     2    32    33    2
     3    21    32    1
     4    21    22    1
     5    22    23    1
     6    23    24    1
     7    24    25    1
     8    25    26    1
     9    25    27    1
    10    27    20    1
    11    20     1    1
    12     1     2    2
    13     1     3   am
    14     3     4    1
    15     4     5    1
    16     5     6    1
    17     6     8    1
    18     8    10    1
    19    10    11   ar
    20    11    12   ar
    21    12    13   ar
    22    13    16    1
    23    16    17    1
    24    16    18    1
    25    16    19    1
    26    13    14   ar
    27    14    15   ar
    28     6     7    1
    29    27    28    1
    30    28    29    1
    31    28    30    1
    32    26    21    1
    33     7     3    1
    34    30    21    1
    35    29    23    1
    36    15    10   ar
    37    31    34    1
    38    31    35    1
    39     8     9    1
@<TRIPOS>MOLECULE
*****
 35 39 0 0 0
SMALL
GASTEIGER

@<TRIPOS>ATOM
      1 C          -9.9391  -16.4826   22.5898 C.2     1  UNL1        0.4048
      2 O         -11.3205  -15.9342   22.7926 O.2     1  UNL1       -0.2262
      3 N          -8.8157  -16.0316   23.4755 N.am    1  UNL1       -0.2443
      4 C          -8.9210  -15.0437   24.5993 C.3     1  UNL1        0.0985
      5 C          -7.5600  -14.8910   25.2113 C.3     1  UNL1        0.0429
      6 C          -6.6136  -15.7845   24.4657 C.3     1  UNL1        0.0920
      7 C          -7.3896  -16.4894   23.3930 C.3     1  UNL1        0.1162
      8 N          -5.1484  -15.9449   24.7440 N.pl3   1  UNL1       -0.3180
      9 H          -4.7800  -15.6715   25.6151 H       1  UNL1        0.1482
     10 C          -4.2445  -16.5219   23.6952 C.ar    1  UNL1        0.1285
     11 C          -4.0995  -18.0093   23.5658 C.ar    1  UNL1        0.0340
     12 C          -3.1956  -18.5862   22.5170 C.ar    1  UNL1        0.0083
     13 C          -2.4368  -17.6759   21.5975 C.ar    1  UNL1        0.0906
     14 C          -2.5819  -16.1886   21.7269 C.ar    1  UNL1        0.1041
     15 N          -3.4857  -15.6116   22.7758 N.ar    1  UNL1       -0.2294
     16 C          -1.5329  -18.2529   20.5487 C.3     1  UNL1        0.4200
     17 F          -0.6290  -18.8299   19.4998 F       1  UNL1       -0.1658
     18 F          -1.8532  -19.6358   21.0335 F       1  UNL1       -0.1658
     19 F          -1.2126  -16.8700   20.0639 F       1  UNL1       -0.1658
     20 O          -9.6813  -17.4818   21.5012 O.3     1  UNL1       -0.4383
     21 C          -9.7181  -18.4462   22.4379 C.3     1  UNL1        0.0688
     22 C          -8.5854  -19.3667   22.0921 C.3     1  UNL1        0.0086
     23 C          -8.3187  -20.5777   22.9361 C.3     1  UNL1        0.0007
     24 C          -9.1847  -20.8682   24.1259 C.3     1  UNL1        0.0036
     25 C         -10.3174  -19.9477   24.4717 C.3     1  UNL1        0.0407
     26 C         -10.5841  -18.7367   23.6277 C.3     1  UNL1        0.0122
     27 C          -8.8733  -18.7124   21.7888 C.3     1  UNL1        0.1702
     28 C          -7.7193  -19.0762   20.9023 C.3     1  UNL1        0.0407
     29 C          -7.4527  -20.2872   21.7463 C.3     1  UNL1        0.0036
     30 C          -8.8520  -18.1557   21.2481 C.3     1  UNL1        0.0122
     31 N         -11.2698  -17.1227   20.8284 N.am    1  UNL1       -0.3288
     32 C          -9.9848  -17.2351   21.5939 C.2     1  UNL1        0.2184
     33 O          -9.2135  -15.9843   21.2931 O.2     1  UNL1       -0.2754
     34 H         -11.4449  -16.3279   20.2745 H       1  UNL1        0.1449
     35 H         -11.9381  -17.8438   20.8798 H       1  UNL1        0.1449
@<TRIPOS>BOND
     1    31    32   am
     2    32    33    2
     3    21    32    1
     4    21    22    1
     5    22    23    1
     6    23    24    1
     7    24    25    1
     8    25    26    1
     9    25    27    1
    10    27    20    1
    11    20     1    1
    12     1     2    2
    13     1     3   am
    14     3     4    1
    15     4     5    1
    16     5     6    1
    17     6     8    1
    18     8    10    1
    19    10    11   ar
    20    11    12   ar
    21    12    13   ar
    22    13    16    1
    23    16    17    1
    24    16    18    1
    25    16    19    1
    26    13    14   ar
    27    14    15   ar
    28     6     7    1
    29    27    28    1
    30    28    29    1
    31    28    30    1
    32    26    21    1
    33     7     3    1
    34    30    21    1
    35    29    23    1
    36    15    10   ar
    37    31    34    1
    38    31    35    1
    39     8     9    1
@<TRIPOS>MOLECULE
*****
 35 39 0 0 0
SMALL
GASTEIGER

@<TRIPOS>ATOM
      1 C         -11.5308  -16.6798   20.7429 C.2     1  UNL1        0.4048
      2 O         -12.3164  -15.8924   19.7366 O.2     1  UNL1       -0.2262
      3 N         -10.2406  -16.1348   21.2801 N.am    1  UNL1       -0.2443
      4 C          -9.6136  -14.8243   20.9067 C.3     1  UNL1        0.0985
      5 C          -8.3365  -14.6842   21.6809 C.3     1  UNL1        0.0429
      6 C          -8.1742  -15.9081   22.5328 C.3     1  UNL1        0.0920
      7 C          -9.3510  -16.8046   22.2850 C.3     1  UNL1        0.1162
      8 N          -7.0351  -16.1866   23.4681 N.pl3   1  UNL1       -0.3180
      9 H          -7.0395  -15.8063   24.3761 H       1  UNL1        0.1482
     10 C          -5.8892  -17.0446   23.0199 C.ar    1  UNL1        0.1285
     11 C          -4.5063  -16.7787   23.5364 C.ar    1  UNL1        0.0340
     12 C          -3.3605  -17.6366   23.0882 C.ar    1  UNL1        0.0083
     13 C          -3.5975  -18.7605   22.1235 C.ar    1  UNL1        0.0906
     14 C          -4.9804  -19.0264   21.6070 C.ar    1  UNL1        0.1041
     15 N          -6.1263  -18.1684   22.0552 N.ar    1  UNL1       -0.2294
     16 C          -2.4516  -19.6185   21.6754 C.3     1  UNL1        0.4200
     17 F          -1.3057  -20.4765   21.2272 F       1  UNL1       -0.1658
     18 F          -3.3982  -20.4663   20.8783 F       1  UNL1       -0.1658
     19 F          -1.5051  -18.7707   22.4724 F       1  UNL1       -0.1658
     20 O         -12.0353  -18.0122   21.2120 O.3     1  UNL1       -0.4383
     21 C         -11.3917  -18.7482   22.1355 C.3     1  UNL1        0.0688
     22 C         -12.1496  -18.5212   23.4099 C.3     1  UNL1        0.0086
     23 C         -11.7091  -19.1964   24.6748 C.3     1  UNL1        0.0007
     24 C         -10.5107  -20.0985   24.6654 C.3     1  UNL1        0.0036
     25 C          -9.7528  -20.3255   23.3910 C.3     1  UNL1        0.0407
     26 C         -10.1933  -19.6504   22.1261 C.3     1  UNL1        0.0122
     27 C         -12.2185  -18.2710   22.6781 C.3     1  UNL1        0.1702
     28 C         -13.3479  -17.6191   23.4193 C.3     1  UNL1        0.0407
     29 C         -12.9074  -18.2943   24.6843 C.3     1  UNL1        0.0036
     30 C         -12.5900  -17.8461   22.1450 C.3     1  UNL1        0.0122
     31 N         -11.0884  -18.3184   19.5912 N.am    1  UNL1       -0.3288
     32 C         -11.8322  -18.0730   20.8705 C.2     1  UNL1        0.2184
     33 O         -12.9388  -17.1198   20.5290 O.2     1  UNL1       -0.2754
     34 H         -11.3775  -17.8753   18.7610 H       1  UNL1        0.1449
     35 H         -10.3112  -18.9226   19.5818 H       1  UNL1        0.1449
@<TRIPOS>BOND
     1    31    32   am
     2    32    33    2
     3    21    32    1
     4    21    22    1
     5    22    23    1
     6    23    24    1
     7    24    25    1
     8    25    26    1
     9    25    27    1
    10    27    20    1
    11    20     1    1
    12     1     2    2
    13     1     3   am
    14     3     4    1
    15     4     5    1
    16     5     6    1
    17     6     8    1
    18     8    10    1
    19    10    11   ar
    20    11    12   ar
    21    12    13   ar
    22    13    16    1
    23    16    17    1
    24    16    18    1
    25    16    19    1
    26    13    14   ar
    27    14    15   ar
    28     6     7    1
    29    27    28    1
    30    28    29    1
    31    28    30    1
    32    26    21    1
    33     7     3    1
    34    30    21    1
    35    29    23    1
    36    15    10   ar
    37    31    34    1
    38    31    35    1
    39     8     9    1
@<TRIPOS>MOLECULE
*****
 35 39 0 0 0
SMALL
GASTEIGER

@<TRIPOS>ATOM
      1 C          -9.6796  -16.7599   23.3531 C.2     1  UNL1        0.4048
      2 O         -11.1735  -16.6262   23.3714 O.2     1  UNL1       -0.2262
      3 N          -9.0458  -18.0255   22.8564 N.am    1  UNL1       -0.2443
      4 C          -9.7729  -19.2357   22.3496 C.3     1  UNL1        0.0985
      5 C          -8.7501  -20.2612   21.9593 C.3     1  UNL1        0.0429
      6 C          -7.3910  -19.6849   22.2250 C.3     1  UNL1        0.0920
      7 C          -7.5738  -18.3031   22.7794 C.3     1  UNL1        0.1162
      8 N          -6.0794  -20.3699   21.9793 N.pl3   1  UNL1       -0.3180
      9 H          -6.0113  -21.3483   22.0656 H       1  UNL1        0.1482
     10 C          -4.8715  -19.5644   21.6023 C.ar    1  UNL1        0.1285
     11 C          -4.0814  -18.8562   22.6626 C.ar    1  UNL1        0.0340
     12 C          -2.8736  -18.0507   22.2855 C.ar    1  UNL1        0.0083
     13 C          -2.4558  -17.9534   20.8482 C.ar    1  UNL1        0.0906
     14 C          -3.2459  -18.6615   19.7879 C.ar    1  UNL1        0.1041
     15 N          -4.4538  -19.4671   20.1650 N.ar    1  UNL1       -0.2294
     16 C          -1.2479  -17.1478   20.4711 C.3     1  UNL1        0.4200
     17 F          -0.0401  -16.3423   20.0941 F       1  UNL1       -0.1658
     18 F          -1.6001  -16.1307   21.5159 F       1  UNL1       -0.1658
     19 F          -0.8958  -18.1649   19.4264 F       1  UNL1       -0.1658
     20 O          -8.8195  -15.6280   23.8314 O.3     1  UNL1       -0.4383
     21 C          -7.5395  -15.5540   24.2375 C.3     1  UNL1        0.0688
     22 C          -7.5922  -15.7454   25.7243 C.3     1  UNL1        0.0086
     23 C          -6.3264  -15.7226   26.5287 C.3     1  UNL1        0.0007
     24 C          -5.0078  -15.5085   25.8464 C.3     1  UNL1        0.0036
     25 C          -4.9551  -15.3172   24.3596 C.3     1  UNL1        0.0407
     26 C          -6.2209  -15.3399   23.5552 C.3     1  UNL1        0.0122
     27 C          -8.1191  -15.7254   25.1543 C.3     1  UNL1        0.1702
     28 C          -8.9107  -15.9595   26.4066 C.3     1  UNL1        0.0407
     29 C          -7.6449  -15.9368   27.2111 C.3     1  UNL1        0.0036
     30 C          -8.8580  -15.7681   24.9199 C.3     1  UNL1        0.0122
     31 N          -8.7450  -15.4843   21.9371 N.am    1  UNL1       -0.3288
     32 C          -8.8053  -15.5767   23.4330 C.2     1  UNL1        0.2184
     33 O         -10.2604  -15.6786   23.7826 O.2     1  UNL1       -0.2754
     34 H          -9.5758  -15.4992   21.4091 H       1  UNL1        0.1449
     35 H          -7.8746  -15.4087   21.4833 H       1  UNL1        0.1449
@<TRIPOS>BOND
     1    31    32   am
     2    32    33    2
     3    21    32    1
     4    21    22    1
     5    22    23    1
     6    23    24    1
     7    24    25    1
     8    25    26    1
     9    25    27    1
    10    27    20    1
    11    20     1    1
    12     1     2    2
    13     1     3   am
    14     3     4    1
    15     4     5    1
    16     5     6    1
    17     6     8    1
    18     8    10    1
    19    10    11   ar
    20    11    12   ar
    21    12    13   ar
    22    13    16    1
    23    16    17    1
    24    16    18    1
    25    16    19    1
    26    13    14   ar
    27    14    15   ar
    28     6     7    1
    29    27    28    1
    30    28    29    1
    31    28    30    1
    32    26    21    1
    33     7     3    1
    34    30    21    1
    35    29    23    1
    36    15    10   ar
    37    31    34    1
    38    31    35    1
    39     8     9    1
@<TRIPOS>MOLECULE
*****
 35 39 0 0 0
SMALL
GASTEIGER

@<TRIPOS>ATOM
      1 C         -10.6731   -4.4326   18.4484 C.2     1  UNL1        0.4048
      2 O          -9.2605   -4.3637   18.9482 O.2     1  UNL1       -0.2262
      3 N         -11.2039   -5.7126   17.8741 N.am    1  UNL1       -0.2443
      4 C         -10.4442   -6.9985   17.7352 C.3     1  UNL1        0.0985
      5 C         -11.3583   -8.0121   17.1132 C.3     1  UNL1        0.0429
      6 C         -12.6830   -7.3527   16.8676 C.3     1  UNL1        0.0920
      7 C         -12.5875   -5.9315   17.3379 C.3     1  UNL1        0.1162
      8 N         -13.8911   -8.0006   16.2587 N.pl3   1  UNL1       -0.3180
      9 H         -13.8942   -8.2360   15.3028 H       1  UNL1        0.1482
     10 C         -15.0944   -8.2898   17.1062 C.ar    1  UNL1        0.1285
     11 C         -14.9228   -8.8628   18.4818 C.ar    1  UNL1        0.0340
     12 C         -16.1261   -9.1520   19.3293 C.ar    1  UNL1        0.0083
     13 C         -17.5011   -8.8683   18.8013 C.ar    1  UNL1        0.0906
     14 C         -17.6727   -8.2953   17.4257 C.ar    1  UNL1        0.1041
     15 N         -16.4694   -8.0060   16.5782 N.ar    1  UNL1       -0.2294
     16 C         -18.7044   -9.1575   19.6488 C.3     1  UNL1        0.4200
     17 F         -19.9078   -9.4468   20.4963 F       1  UNL1       -0.1658
     18 F         -18.2044   -8.1968   20.6866 F       1  UNL1       -0.1658
     19 F         -19.2045  -10.1182   18.6110 F       1  UNL1       -0.1658
     20 O         -11.5549   -3.2215   18.5229 O.3     1  UNL1       -0.4383
     21 C         -12.6173   -2.4128   18.6844 C.3     1  UNL1        0.0688
     22 C         -13.4453   -3.0679   19.7499 C.3     1  UNL1        0.0086
     23 C         -14.7296   -2.4349   20.1969 C.3     1  UNL1        0.0007
     24 C         -15.1859   -1.1467   19.5784 C.3     1  UNL1        0.0036
     25 C         -14.3579   -0.4917   18.5129 C.3     1  UNL1        0.0407
     26 C         -13.0736   -1.1247   18.0659 C.3     1  UNL1        0.0122
     27 C         -12.7744   -3.2342   19.3961 C.3     1  UNL1        0.1702
     28 C         -12.9890   -4.3560   20.3684 C.3     1  UNL1        0.0407
     29 C         -14.2733   -3.7230   20.8154 C.3     1  UNL1        0.0036
     30 C         -12.1610   -3.7010   19.3029 C.3     1  UNL1        0.0122
     31 N         -10.1397   -3.0439   19.1462 N.am    1  UNL1       -0.3288
     32 C         -11.3330   -3.0459   18.2373 C.2     1  UNL1        0.2184
     33 O         -10.8986   -3.7502   16.9862 O.2     1  UNL1       -0.2754
     34 H          -9.2968   -3.4594   18.8528 H       1  UNL1        0.1449
     35 H         -10.1994   -2.6271   20.0361 H       1  UNL1        0.1449
@<TRIPOS>BOND
     1    31    32   am
     2    32    33    2
     3    21    32    1
     4    21    22    1
     5    22    23    1
     6    23    24    1
     7    24    25    1
     8    25    26    1
     9    25    27    1
    10    27    20    1
    11    20     1    1
    12     1     2    2
    13     1     3   am
    14     3     4    1
    15     4     5    1
    16     5     6    1
    17     6     8    1
    18     8    10    1
    19    10    11   ar
    20    11    12   ar
    21    12    13   ar
    22    13    16    1
    23    16    17    1
    24    16    18    1
    25    16    19    1
    26    13    14   ar
    27    14    15   ar
    28     6     7    1
    29    27    28    1
    30    28    29    1
    31    28    30    1
    32    26    21    1
    33     7     3    1
    34    30    21    1
    35    29    23    1
    36    15    10   ar
    37    31    34    1
    38    31    35    1
    39     8     9    1
@<TRIPOS>MOLECULE
*****
 35 39 0 0 0
SMALL
GASTEIGER

@<TRIPOS>ATOM
      1 C         -11.6080   -3.3297   18.0824 C.2     1  UNL1        0.4048
      2 O         -10.4760   -2.5120   18.6301 O.2     1  UNL1       -0.2262
      3 N         -11.5817   -4.8244   18.2055 N.am    1  UNL1       -0.2443
      4 C         -10.4965   -5.6373   18.8470 C.3     1  UNL1        0.0985
      5 C         -10.8801   -7.0840   18.7467 C.3     1  UNL1        0.0429
      6 C         -12.2024   -7.1652   18.0432 C.3     1  UNL1        0.0920
      7 C         -12.6360   -5.7687   17.7088 C.3     1  UNL1        0.1162
      8 N         -12.9583   -8.4221   17.7293 N.pl3   1  UNL1       -0.3180
      9 H         -12.5379   -9.1264   17.1849 H       1  UNL1        0.1482
     10 C         -14.3550   -8.6059   18.2447 C.ar    1  UNL1        0.1285
     11 C         -15.0516   -7.4757   18.9427 C.ar    1  UNL1        0.0340
     12 C         -16.4482   -7.6595   19.4582 C.ar    1  UNL1        0.0083
     13 C         -17.1481   -8.9736   19.2757 C.ar    1  UNL1        0.0906
     14 C         -16.4514  -10.1038   18.5777 C.ar    1  UNL1        0.1041
     15 N         -15.0548   -9.9200   18.0622 N.ar    1  UNL1       -0.2294
     16 C         -18.5447   -9.1574   19.7912 C.3     1  UNL1        0.4200
     17 F         -19.9413   -9.3412   20.3067 F       1  UNL1       -0.1658
     18 F         -18.8121  -10.1609   18.7088 F       1  UNL1       -0.1658
     19 F         -18.2773   -8.1538   20.8735 F       1  UNL1       -0.1658
     20 O         -12.7662   -2.6527   17.4117 O.3     1  UNL1       -0.4383
     21 C         -13.4404   -2.9745   18.5300 C.3     1  UNL1        0.0688
     22 C         -14.8246   -3.3164   18.0640 C.3     1  UNL1        0.0086
     23 C         -15.8696   -3.7298   19.0573 C.3     1  UNL1        0.0007
     24 C         -15.5306   -3.8014   20.5168 C.3     1  UNL1        0.0036
     25 C         -14.1464   -3.4595   20.9828 C.3     1  UNL1        0.0407
     26 C         -13.1014   -3.0460   19.9894 C.3     1  UNL1        0.0122
     27 C         -14.1687   -3.0888   17.7161 C.3     1  UNL1        0.1702
     28 C         -15.1637   -3.2449   16.6045 C.3     1  UNL1        0.0407
     29 C         -16.2087   -3.6583   17.5979 C.3     1  UNL1        0.0036
     30 C         -13.7795   -2.9030   17.0706 C.3     1  UNL1        0.0122
     31 N         -11.8891   -1.1491   17.5243 N.am    1  UNL1       -0.3288
     32 C         -12.3953   -2.5610   17.5366 C.2     1  UNL1        0.2184
     33 O         -11.6557   -3.2749   16.4442 O.2     1  UNL1       -0.2754
     34 H         -11.2032   -0.8777   16.8723 H       1  UNL1        0.1449
     35 H         -12.2429   -0.4937   18.1682 H       1  UNL1        0.1449
@<TRIPOS>BOND
     1    31    32   am
     2    32    33    2
     3    21    32    1
     4    21    22    1
     5    22    23    1
     6    23    24    1
     7    24    25    1
     8    25    26    1
     9    25    27    1
    10    27    20    1
    11    20     1    1
    12     1     2    2
    13     1     3   am
    14     3     4    1
    15     4     5    1
    16     5     6    1
    17     6     8    1
    18     8    10    1
    19    10    11   ar
    20    11    12   ar
    21    12    13   ar
    22    13    16    1
    23    16    17    1
    24    16    18    1
    25    16    19    1
    26    13    14   ar
    27    14    15   ar
    28     6     7    1
    29    27    28    1
    30    28    29    1
    31    28    30    1
    32    26    21    1
    33     7     3    1
    34    30    21    1
    35    29    23    1
    36    15    10   ar
    37    31    34    1
    38    31    35    1
    39     8     9    1
