@<TRIPOS>MOLECULE
*****
 33 34 0 0 0
SMALL
GASTEIGER

@<TRIPOS>ATOM
      1 N           6.9730   -7.6996   26.7914 N.am    1  UNL1       -0.3045
      2 C           8.1341   -8.5177   27.2736 C.2     1  UNL1        0.2425
      3 O           9.5319   -7.9919   27.1330 O.2     1  UNL1       -0.2733
      4 H           6.0556   -8.0447   26.8836 H       1  UNL1        0.1494
      5 C           6.9334   -5.1068   26.9520 C.3     1  UNL1        0.0489
      6 C           7.1701   -3.7630   26.3292 C.3     1  UNL1        0.0201
      7 C           7.6830   -3.6680   24.9228 C.3     1  UNL1        0.0577
      8 C           7.9593   -4.9169   24.1393 C.3     1  UNL1        0.0177
      9 C           7.7226   -6.2607   24.7622 C.3     1  UNL1        0.0210
     10 C           7.2097   -6.3557   26.1685 C.3     1  UNL1        0.0741
     11 N           7.9197   -2.3240   24.2999 N.3     1  UNL1       -0.2741
     12 C           8.5660   -1.2308   25.0982 C.3     1  UNL1        0.0896
     13 C           7.5101   -2.0734   22.8789 C.3     1  UNL1        0.0576
     14 C           6.0594   -2.1083   22.4992 C.3     1  UNL1        0.0173
     15 C           8.5513   -1.7878   21.8375 C.3     1  UNL1        0.0173
     16 C           6.4204   -5.2018   28.3584 C.3     1  UNL1        0.1439
     17 C           6.9845   -5.7125   30.8425 C.3     1  UNL1        0.1741
     18 O           7.1799   -5.9927   29.3819 O.3     1  UNL1       -0.3510
     19 C           7.8974   -9.8617   27.8965 C.3     1  UNL1        0.1759
     20 N           6.5808  -10.5548   27.7069 N.am    1  UNL1       -0.2931
     21 C           6.4183  -11.9847   28.1296 C.2     1  UNL1        0.2462
     22 O           7.5725  -12.7216   28.7419 O.2     1  UNL1       -0.2701
     23 H           5.8232  -10.0711   27.3050 H       1  UNL1        0.1502
     24 C           5.1016  -12.6779   27.9400 C.ar    1  UNL1        0.0533
     25 C           4.8281  -13.4353   26.6745 C.ar    1  UNL1        0.0045
     26 C           3.5115  -14.1285   26.4850 C.ar    1  UNL1        0.0001
     27 C           2.4683  -14.0642   27.5609 C.ar    1  UNL1        0.0039
     28 C           2.7418  -13.3068   28.8264 C.ar    1  UNL1        0.0716
     29 C           4.0584  -12.6137   29.0159 C.ar    1  UNL1        0.0084
     30 C           1.6986  -13.2426   29.9024 C.3     1  UNL1        0.4186
     31 F           0.6555  -13.1783   30.9783 F       1  UNL1       -0.1659
     32 F           2.5018  -12.1977   30.6187 F       1  UNL1       -0.1659
     33 F           0.8955  -14.2875   29.1861 F       1  UNL1       -0.1659
@<TRIPOS>BOND
     1    17    18    1
     2    18    16    1
     3     5    16    1
     4     5     6    1
     5     6     7    1
     6     7    11    1
     7    11    12    1
     8    11    13    1
     9    13    14    1
    10    13    15    1
    11     7     8    1
    12     8     9    1
    13     9    10    1
    14    10     1    1
    15     1     2   am
    16     2     3    2
    17     2    19    1
    18    19    20    1
    19    20    21   am
    20    21    22    2
    21    21    24    1
    22    24    25   ar
    23    25    26   ar
    24    26    27   ar
    25    27    28   ar
    26    28    30    1
    27    30    31    1
    28    30    32    1
    29    30    33    1
    30    28    29   ar
    31    10     5    1
    32    29    24   ar
    33     1     4    1
    34    20    23    1
@<TRIPOS>MOLECULE
*****
 33 34 0 0 0
SMALL
GASTEIGER

@<TRIPOS>ATOM
      1 N           7.2541   -7.5679   27.1880 N.am    1  UNL1       -0.3045
      2 C           8.2032   -8.4206   27.9766 C.2     1  UNL1        0.2425
      3 O           9.2539   -7.7783   28.8331 O.2     1  UNL1       -0.2733
      4 H           6.5645   -7.9894   26.6259 H       1  UNL1        0.1494
      5 C           8.3400   -5.3478   26.3866 C.3     1  UNL1        0.0489
      6 C           8.4415   -3.8528   26.4544 C.3     1  UNL1        0.0201
      7 C           7.5587   -3.0828   27.3912 C.3     1  UNL1        0.0577
      8 C           6.5744   -3.8078   28.2604 C.3     1  UNL1        0.0177
      9 C           6.4728   -5.3028   28.1926 C.3     1  UNL1        0.0210
     10 C           7.3556   -6.0728   27.2557 C.3     1  UNL1        0.0741
     11 N           7.6603   -1.5877   27.4590 N.3     1  UNL1       -0.2741
     12 C           8.8499   -0.9455   28.1087 C.3     1  UNL1        0.0896
     13 C           6.5722   -0.7349   26.8770 C.3     1  UNL1        0.0576
     14 C           5.4878   -0.1953   27.7619 C.3     1  UNL1        0.0173
     15 C           6.5684   -0.4217   25.4100 C.3     1  UNL1        0.0173
     16 C           9.2228   -6.1178   25.4497 C.3     1  UNL1        0.1439
     17 C           8.9203   -7.3217   23.1674 C.3     1  UNL1        0.1741
     18 O           8.6550   -7.2469   24.6419 O.3     1  UNL1       -0.3510
     19 C           8.1016   -9.9156   27.9089 C.3     1  UNL1        0.1759
     20 N           6.7689  -10.5676   27.6882 N.am    1  UNL1       -0.2931
     21 C           6.5465  -11.9857   28.1233 C.2     1  UNL1        0.2462
     22 O           7.6569  -12.7519   28.7791 O.2     1  UNL1       -0.2701
     23 H           6.0401  -10.0647   27.2578 H       1  UNL1        0.1502
     24 C           5.2138  -12.6378   27.9026 C.ar    1  UNL1        0.0533
     25 C           4.9233  -13.3300   26.6040 C.ar    1  UNL1        0.0045
     26 C           3.5906  -13.9820   26.3834 C.ar    1  UNL1        0.0001
     27 C           2.5483  -13.9417   27.4614 C.ar    1  UNL1        0.0039
     28 C           2.8388  -13.2495   28.7600 C.ar    1  UNL1        0.0716
     29 C           4.1715  -12.5975   28.9806 C.ar    1  UNL1        0.0084
     30 C           1.7965  -13.2093   29.8379 C.3     1  UNL1        0.4186
     31 F           0.7542  -13.1690   30.9159 F       1  UNL1       -0.1659
     32 F           1.0275  -14.2882   29.1347 F       1  UNL1       -0.1659
     33 F           2.5655  -12.1303   30.5412 F       1  UNL1       -0.1659
@<TRIPOS>BOND
     1    17    18    1
     2    18    16    1
     3     5    16    1
     4     5     6    1
     5     6     7    1
     6     7    11    1
     7    11    12    1
     8    11    13    1
     9    13    14    1
    10    13    15    1
    11     7     8    1
    12     8     9    1
    13     9    10    1
    14    10     1    1
    15     1     2   am
    16     2     3    2
    17     2    19    1
    18    19    20    1
    19    20    21   am
    20    21    22    2
    21    21    24    1
    22    24    25   ar
    23    25    26   ar
    24    26    27   ar
    25    27    28   ar
    26    28    30    1
    27    30    31    1
    28    30    32    1
    29    30    33    1
    30    28    29   ar
    31    10     5    1
    32    29    24   ar
    33     1     4    1
    34    20    23    1
@<TRIPOS>MOLECULE
*****
 33 34 0 0 0
SMALL
GASTEIGER

@<TRIPOS>ATOM
      1 N          -3.3182    2.7845   21.0249 N.am    1  UNL1       -0.3045
      2 C          -1.8582    3.1216   21.0931 C.2     1  UNL1        0.2425
      3 O          -1.3704    4.1477   22.0725 O.2     1  UNL1       -0.2733
      4 H          -3.6384    2.1110   20.3821 H       1  UNL1        0.1494
      5 C          -5.1155    4.6174   21.4253 C.3     1  UNL1        0.0489
      6 C          -6.0877    5.3063   22.3364 C.3     1  UNL1        0.0201
      7 C          -6.2348    4.8514   23.7582 C.3     1  UNL1        0.0577
      8 C          -5.4098    3.7075   24.2689 C.3     1  UNL1        0.0177
      9 C          -4.4376    3.0185   23.3578 C.3     1  UNL1        0.0210
     10 C          -4.2904    3.4735   21.9360 C.3     1  UNL1        0.0741
     11 N          -7.2071    5.5404   24.6693 N.3     1  UNL1       -0.2741
     12 C          -8.6823    5.3904   24.4433 C.3     1  UNL1        0.0896
     13 C          -6.7040    6.3794   25.8064 C.3     1  UNL1        0.0576
     14 C          -7.5070    6.4911   27.0685 C.3     1  UNL1        0.0173
     15 C          -5.3981    7.1066   25.6815 C.3     1  UNL1        0.0173
     16 C          -4.9683    5.0723   20.0036 C.3     1  UNL1        0.1439
     17 C          -6.2724    3.2334   18.7122 C.3     1  UNL1        0.1741
     18 O          -5.0430    4.0752   18.8855 O.3     1  UNL1       -0.3510
     19 C          -0.8859    2.4325   20.1820 C.3     1  UNL1        0.1759
     20 N           0.1172    1.4702   20.7455 N.am    1  UNL1       -0.2931
     21 C           0.9300    0.6093   19.8245 C.2     1  UNL1        0.2462
     22 O           0.7397    0.7109   18.3401 O.2     1  UNL1       -0.2701
     23 H           0.2421    1.4035   21.7197 H       1  UNL1        0.1502
     24 C           1.9332   -0.3531   20.3879 C.ar    1  UNL1        0.0533
     25 C           2.3262   -0.2665   21.8329 C.ar    1  UNL1        0.0045
     26 C           3.3293   -1.2290   22.3962 C.ar    1  UNL1        0.0001
     27 C           3.9395   -2.2780   21.5146 C.ar    1  UNL1        0.0039
     28 C           3.5465   -2.3646   20.0696 C.ar    1  UNL1        0.0716
     29 C           2.5433   -1.4022   19.5063 C.ar    1  UNL1        0.0084
     30 C           4.1566   -3.4136   19.1880 C.3     1  UNL1        0.4186
     31 F           4.7668   -4.4626   18.3064 F       1  UNL1       -0.1659
     32 F           2.8519   -4.1534   19.1653 F       1  UNL1       -0.1659
     33 F           5.4613   -2.6738   19.2107 F       1  UNL1       -0.1659
@<TRIPOS>BOND
     1    17    18    1
     2    18    16    1
     3     5    16    1
     4     5     6    1
     5     6     7    1
     6     7    11    1
     7    11    12    1
     8    11    13    1
     9    13    14    1
    10    13    15    1
    11     7     8    1
    12     8     9    1
    13     9    10    1
    14    10     1    1
    15     1     2   am
    16     2     3    2
    17     2    19    1
    18    19    20    1
    19    20    21   am
    20    21    22    2
    21    21    24    1
    22    24    25   ar
    23    25    26   ar
    24    26    27   ar
    25    27    28   ar
    26    28    30    1
    27    30    31    1
    28    30    32    1
    29    30    33    1
    30    28    29   ar
    31    10     5    1
    32    29    24   ar
    33     1     4    1
    34    20    23    1
@<TRIPOS>MOLECULE
*****
 33 34 0 0 0
SMALL
GASTEIGER

@<TRIPOS>ATOM
      1 N           0.8304    1.6488   18.2546 N.am    1  UNL1       -0.3045
      2 C           1.0691    3.0714   18.6660 C.2     1  UNL1        0.2425
      3 O           2.2981    3.4300   19.4475 O.2     1  UNL1       -0.2733
      4 H           0.0238    1.4134   17.7417 H       1  UNL1        0.1494
      5 C           1.5410   -0.3314   19.7792 C.3     1  UNL1        0.0489
      6 C           2.5314   -1.3953   20.1494 C.3     1  UNL1        0.0201
      7 C           3.8016   -1.5432   19.3652 C.3     1  UNL1        0.0577
      8 C           4.0814   -0.6271   18.2110 C.3     1  UNL1        0.0177
      9 C           3.0910    0.4369   17.8408 C.3     1  UNL1        0.0210
     10 C           1.8208    0.5847   18.6249 C.3     1  UNL1        0.0741
     11 N           4.7920   -2.6072   19.7355 N.3     1  UNL1       -0.2741
     12 C           6.2414   -2.4359   19.3892 C.3     1  UNL1        0.0896
     13 C           4.3330   -3.8425   20.4519 C.3     1  UNL1        0.0576
     14 C           3.6926   -4.9607   19.6840 C.3     1  UNL1        0.0173
     15 C           4.5143   -3.9597   21.9363 C.3     1  UNL1        0.0173
     16 C           0.2709   -0.1835   20.5633 C.3     1  UNL1        0.1439
     17 C           0.5994    1.7904   22.2203 C.3     1  UNL1        0.1741
     18 O          -0.1414    1.1645   21.0760 O.3     1  UNL1       -0.3510
     19 C           0.0787    4.1354   18.2957 C.3     1  UNL1        0.1759
     20 N          -1.2956    4.1226   18.8966 N.am    1  UNL1       -0.2931
     21 C          -2.5011    4.0233   18.0095 C.2     1  UNL1        0.2462
     22 O          -2.3322    3.9368   16.5216 O.2     1  UNL1       -0.2701
     23 H          -1.4064    4.1794   19.8732 H       1  UNL1        0.1502
     24 C          -3.8755    4.0105   18.6104 C.ar    1  UNL1        0.0533
     25 C          -5.0818    4.1215   17.7259 C.ar    1  UNL1        0.0045
     26 C          -6.4561    4.1087   18.3267 C.ar    1  UNL1        0.0001
     27 C          -6.6241    3.9850   19.8122 C.ar    1  UNL1        0.0039
     28 C          -5.4177    3.8740   20.6967 C.ar    1  UNL1        0.0716
     29 C          -4.0435    3.8868   20.0958 C.ar    1  UNL1        0.0084
     30 C          -5.5857    3.7503   22.1821 C.3     1  UNL1        0.4186
     31 F          -5.7537    3.6266   23.6675 F       1  UNL1       -0.1659
     32 F          -6.4079    5.0049   22.1936 F       1  UNL1       -0.1659
     33 F          -4.7636    2.4957   22.1706 F       1  UNL1       -0.1659
@<TRIPOS>BOND
     1    17    18    1
     2    18    16    1
     3     5    16    1
     4     5     6    1
     5     6     7    1
     6     7    11    1
     7    11    12    1
     8    11    13    1
     9    13    14    1
    10    13    15    1
    11     7     8    1
    12     8     9    1
    13     9    10    1
    14    10     1    1
    15     1     2   am
    16     2     3    2
    17     2    19    1
    18    19    20    1
    19    20    21   am
    20    21    22    2
    21    21    24    1
    22    24    25   ar
    23    25    26   ar
    24    26    27   ar
    25    27    28   ar
    26    28    30    1
    27    30    31    1
    28    30    32    1
    29    30    33    1
    30    28    29   ar
    31    10     5    1
    32    29    24   ar
    33     1     4    1
    34    20    23    1
@<TRIPOS>MOLECULE
*****
 33 34 0 0 0
SMALL
GASTEIGER

@<TRIPOS>ATOM
      1 N          -1.2396    2.3857   20.5457 N.am    1  UNL1       -0.3045
      2 C          -0.0198    2.8944   19.8363 C.2     1  UNL1        0.2425
      3 O           0.5099    4.2638   20.1431 O.2     1  UNL1       -0.2733
      4 H          -1.5872    1.4869   20.3443 H       1  UNL1        0.1494
      5 C          -3.2486    3.8819   21.2350 C.3     1  UNL1        0.0489
      6 C          -3.9388    4.7427   22.2512 C.3     1  UNL1        0.0201
      7 C          -3.3101    4.9680   23.5944 C.3     1  UNL1        0.0577
      8 C          -1.9913    4.3326   23.9213 C.3     1  UNL1        0.0177
      9 C          -1.3012    3.4719   22.9051 C.3     1  UNL1        0.0210
     10 C          -1.9298    3.2465   21.5619 C.3     1  UNL1        0.0741
     11 N          -4.0004    5.8288   24.6106 N.3     1  UNL1       -0.2741
     12 C          -3.6479    7.2822   24.7260 C.3     1  UNL1        0.0896
     13 C          -5.0431    5.2362   25.5115 C.3     1  UNL1        0.0576
     14 C          -6.4800    5.2122   25.0814 C.3     1  UNL1        0.0173
     15 C          -4.6490    4.6674   26.8423 C.3     1  UNL1        0.0173
     16 C          -3.8773    3.6566   19.8919 C.3     1  UNL1        0.1439
     17 C          -2.5163    5.4711   18.6249 C.3     1  UNL1        0.1741
     18 O          -3.1806    4.1265   18.6494 O.3     1  UNL1       -0.3510
     19 C           0.6705    2.0336   18.8201 C.3     1  UNL1        0.1759
     20 N           1.7146    1.0490   19.2562 N.am    1  UNL1       -0.2931
     21 C           1.3431   -0.0845   20.1657 C.2     1  UNL1        0.2462
     22 O          -0.0724   -0.2334   20.6390 O.2     1  UNL1       -0.2701
     23 H           2.6437    1.1467   18.9456 H       1  UNL1        0.1502
     24 C           2.3873   -1.0693   20.6019 C.ar    1  UNL1        0.0533
     25 C           2.9867   -0.9687   21.9732 C.ar    1  UNL1        0.0045
     26 C           4.0308   -1.9534   22.4093 C.ar    1  UNL1        0.0001
     27 C           4.4754   -3.0386   21.4741 C.ar    1  UNL1        0.0039
     28 C           3.8761   -3.1391   20.1028 C.ar    1  UNL1        0.0716
     29 C           2.8320   -2.1545   19.6667 C.ar    1  UNL1        0.0084
     30 C           4.3207   -4.2243   19.1676 C.3     1  UNL1        0.4186
     31 F           4.7654   -5.3095   18.2324 F       1  UNL1       -0.1659
     32 F           5.7509   -3.9452   19.5237 F       1  UNL1       -0.1659
     33 F           2.8906   -4.5035   18.8115 F       1  UNL1       -0.1659
@<TRIPOS>BOND
     1    17    18    1
     2    18    16    1
     3     5    16    1
     4     5     6    1
     5     6     7    1
     6     7    11    1
     7    11    12    1
     8    11    13    1
     9    13    14    1
    10    13    15    1
    11     7     8    1
    12     8     9    1
    13     9    10    1
    14    10     1    1
    15     1     2   am
    16     2     3    2
    17     2    19    1
    18    19    20    1
    19    20    21   am
    20    21    22    2
    21    21    24    1
    22    24    25   ar
    23    25    26   ar
    24    26    27   ar
    25    27    28   ar
    26    28    30    1
    27    30    31    1
    28    30    32    1
    29    30    33    1
    30    28    29   ar
    31    10     5    1
    32    29    24   ar
    33     1     4    1
    34    20    23    1
@<TRIPOS>MOLECULE
*****
 33 34 0 0 0
SMALL
GASTEIGER

@<TRIPOS>ATOM
      1 N           0.3324    1.3943   21.0901 N.am    1  UNL1       -0.3045
      2 C           0.7259    2.7842   20.6861 C.2     1  UNL1        0.2425
      3 O           2.1338    3.0696   20.2545 O.2     1  UNL1       -0.2733
      4 H          -0.5916    1.2070   21.3733 H       1  UNL1        0.1494
      5 C           2.1439   -0.0278   22.2929 C.3     1  UNL1        0.0489
      6 C           3.1583   -1.1324   22.2651 C.3     1  UNL1        0.0201
      7 C           3.3757   -1.9196   21.0070 C.3     1  UNL1        0.0577
      8 C           2.5787   -1.6022   19.7765 C.3     1  UNL1        0.0177
      9 C           1.5643   -0.4976   19.8042 C.3     1  UNL1        0.0210
     10 C           1.3469    0.2896   21.0624 C.3     1  UNL1        0.0741
     11 N           4.3902   -3.0242   20.9793 N.3     1  UNL1       -0.2741
     12 C           4.8642   -3.6395   22.2625 C.3     1  UNL1        0.0896
     13 C           4.9306   -3.5135   19.6684 C.3     1  UNL1        0.0576
     14 C           4.3488   -4.7387   19.0276 C.3     1  UNL1        0.0173
     15 C           6.0528   -2.7777   18.9982 C.3     1  UNL1        0.0173
     16 C           1.9264    0.7595   23.5510 C.3     1  UNL1        0.1439
     17 C           0.2686    1.4124   25.4418 C.3     1  UNL1        0.1741
     18 O           0.5328    1.0814   24.0029 O.3     1  UNL1       -0.3510
     19 C          -0.2886    3.8888   20.7138 C.3     1  UNL1        0.1759
     20 N          -1.1462    4.0893   21.9280 N.am    1  UNL1       -0.2931
     21 C          -2.5339    3.5213   21.9680 C.2     1  UNL1        0.2462
     22 O          -3.0640    2.7530   20.7939 O.2     1  UNL1       -0.2701
     23 H          -0.7983    4.5936   22.6986 H       1  UNL1        0.1502
     24 C          -3.3916    3.7217   23.1822 C.ar    1  UNL1        0.0533
     25 C          -2.7960    3.5848   24.5521 C.ar    1  UNL1        0.0045
     26 C          -3.6537    3.7852   25.7662 C.ar    1  UNL1        0.0001
     27 C          -5.1070    4.1226   25.6105 C.ar    1  UNL1        0.0039
     28 C          -5.7025    4.2595   24.2406 C.ar    1  UNL1        0.0716
     29 C          -4.8448    4.0591   23.0265 C.ar    1  UNL1        0.0084
     30 C          -7.1558    4.5969   24.0849 C.3     1  UNL1        0.4186
     31 F          -8.6090    4.9342   23.9292 F       1  UNL1       -0.1659
     32 F          -7.2049    3.7994   22.8154 F       1  UNL1       -0.1659
     33 F          -7.1067    5.3943   25.3544 F       1  UNL1       -0.1659
@<TRIPOS>BOND
     1    17    18    1
     2    18    16    1
     3     5    16    1
     4     5     6    1
     5     6     7    1
     6     7    11    1
     7    11    12    1
     8    11    13    1
     9    13    14    1
    10    13    15    1
    11     7     8    1
    12     8     9    1
    13     9    10    1
    14    10     1    1
    15     1     2   am
    16     2     3    2
    17     2    19    1
    18    19    20    1
    19    20    21   am
    20    21    22    2
    21    21    24    1
    22    24    25   ar
    23    25    26   ar
    24    26    27   ar
    25    27    28   ar
    26    28    30    1
    27    30    31    1
    28    30    32    1
    29    30    33    1
    30    28    29   ar
    31    10     5    1
    32    29    24   ar
    33     1     4    1
    34    20    23    1
@<TRIPOS>MOLECULE
*****
 33 34 0 0 0
SMALL
GASTEIGER

@<TRIPOS>ATOM
      1 N           2.8378   -0.7221   26.0681 N.am    1  UNL1       -0.3045
      2 C           3.0054    0.5169   25.2394 C.2     1  UNL1        0.2425
      3 O           3.8602    1.6436   25.7393 O.2     1  UNL1       -0.2733
      4 H           2.2767   -1.4615   25.7400 H       1  UNL1        0.1494
      5 C           2.8294   -0.3719   28.6424 C.3     1  UNL1        0.0489
      6 C           3.5167   -0.4843   29.9709 C.3     1  UNL1        0.0201
      7 C           4.8997   -1.0593   30.0536 C.3     1  UNL1        0.0577
      8 C           5.5953   -1.5219   28.8079 C.3     1  UNL1        0.0177
      9 C           4.9080   -1.4095   27.4794 C.3     1  UNL1        0.0210
     10 C           3.5251   -0.8345   27.3967 C.3     1  UNL1        0.0741
     11 N           5.5869   -1.1717   31.3822 N.3     1  UNL1       -0.2741
     12 C           6.3547   -0.0056   31.9305 C.3     1  UNL1        0.0896
     13 C           5.5064   -2.4502   32.1625 C.3     1  UNL1        0.0576
     14 C           4.4914   -2.5983   33.2570 C.3     1  UNL1        0.0173
     15 C           6.4409   -3.5808   31.8484 C.3     1  UNL1        0.0173
     16 C           1.4465    0.2031   28.5597 C.3     1  UNL1        0.1439
     17 C          -1.1055   -0.1396   28.9061 C.3     1  UNL1        0.1741
     18 O           0.3111   -0.4685   29.2737 O.3     1  UNL1       -0.3510
     19 C           2.3181    0.6293   23.9108 C.3     1  UNL1        0.1759
     20 N           2.9723    0.0778   22.6789 N.am    1  UNL1       -0.2931
     21 C           2.1965   -0.0238   21.3992 C.2     1  UNL1        0.2462
     22 O           0.7664    0.4263   21.3514 O.2     1  UNL1       -0.2701
     23 H           3.9109   -0.2176   22.7103 H       1  UNL1        0.1502
     24 C           2.8508   -0.5754   20.1672 C.ar    1  UNL1        0.0533
     25 C           3.1171    0.3208   18.9942 C.ar    1  UNL1        0.0045
     26 C           3.7713   -0.2308   17.7623 C.ar    1  UNL1        0.0001
     27 C           4.1592   -1.6786   17.7034 C.ar    1  UNL1        0.0039
     28 C           3.8929   -2.5748   18.8763 C.ar    1  UNL1        0.0716
     29 C           3.2387   -2.0231   20.1083 C.ar    1  UNL1        0.0084
     30 C           4.2808   -4.0225   18.8174 C.3     1  UNL1        0.4186
     31 F           4.6687   -5.4703   18.7585 F       1  UNL1       -0.1659
     32 F           5.7283   -3.6325   18.7641 F       1  UNL1       -0.1659
     33 F           2.8334   -4.4125   18.8707 F       1  UNL1       -0.1659
@<TRIPOS>BOND
     1    17    18    1
     2    18    16    1
     3     5    16    1
     4     5     6    1
     5     6     7    1
     6     7    11    1
     7    11    12    1
     8    11    13    1
     9    13    14    1
    10    13    15    1
    11     7     8    1
    12     8     9    1
    13     9    10    1
    14    10     1    1
    15     1     2   am
    16     2     3    2
    17     2    19    1
    18    19    20    1
    19    20    21   am
    20    21    22    2
    21    21    24    1
    22    24    25   ar
    23    25    26   ar
    24    26    27   ar
    25    27    28   ar
    26    28    30    1
    27    30    31    1
    28    30    32    1
    29    30    33    1
    30    28    29   ar
    31    10     5    1
    32    29    24   ar
    33     1     4    1
    34    20    23    1
@<TRIPOS>MOLECULE
*****
 33 34 0 0 0
SMALL
GASTEIGER

@<TRIPOS>ATOM
      1 N           0.8869    1.1270   22.8104 N.am    1  UNL1       -0.3045
      2 C           1.4957    2.3088   23.5052 C.2     1  UNL1        0.2425
      3 O           2.8314    2.8310   23.0659 O.2     1  UNL1       -0.2733
      4 H           0.0102    0.7843   23.0988 H       1  UNL1        0.1494
      5 C           1.2869    0.8370   20.2597 C.3     1  UNL1        0.0489
      6 C           2.0139    0.1773   19.1256 C.3     1  UNL1        0.0201
      7 C           3.0679   -0.8519   19.4080 C.3     1  UNL1        0.0577
      8 C           3.3949   -1.2215   20.8244 C.3     1  UNL1        0.0177
      9 C           2.6679   -0.5619   21.9585 C.3     1  UNL1        0.0210
     10 C           1.6139    0.4674   21.6762 C.3     1  UNL1        0.0741
     11 N           3.7949   -1.5116   18.2737 N.3     1  UNL1       -0.2741
     12 C           3.7682   -0.8954   16.9064 C.3     1  UNL1        0.0896
     13 C           4.5485   -2.7874   18.5069 C.3     1  UNL1        0.0576
     14 C           6.0435   -2.8082   18.3860 C.3     1  UNL1        0.0173
     15 C           3.8072   -4.0424   18.8609 C.3     1  UNL1        0.0173
     16 C           0.2329    1.8662   19.9774 C.3     1  UNL1        0.1439
     17 C          -1.9125    3.1231   20.7307 C.3     1  UNL1        0.1741
     18 O          -0.9872    1.9482   20.8461 O.3     1  UNL1       -0.3510
     19 C           0.7687    2.9685   24.6394 C.3     1  UNL1        0.1759
     20 N          -0.6435    3.4386   24.4528 N.am    1  UNL1       -0.2931
     21 C          -1.6842    3.1145   25.4832 C.2     1  UNL1        0.2462
     22 O          -1.3127    2.3202   26.7003 O.2     1  UNL1       -0.2701
     23 H          -0.8872    3.9599   23.6540 H       1  UNL1        0.1502
     24 C          -3.0964    3.5846   25.2966 C.ar    1  UNL1        0.0533
     25 C          -3.8632    4.1365   26.4616 C.ar    1  UNL1        0.0045
     26 C          -5.2753    4.6066   26.2750 C.ar    1  UNL1        0.0001
     27 C          -5.9206    4.5247   24.9233 C.ar    1  UNL1        0.0039
     28 C          -5.1538    3.9728   23.7583 C.ar    1  UNL1        0.0716
     29 C          -3.7416    3.5027   23.9450 C.ar    1  UNL1        0.0084
     30 C          -5.7990    3.8909   22.4067 C.3     1  UNL1        0.4186
     31 F          -6.4443    3.8091   21.0550 F       1  UNL1       -0.1659
     32 F          -6.6260    5.1004   22.7282 F       1  UNL1       -0.1659
     33 F          -4.9721    2.6815   22.0851 F       1  UNL1       -0.1659
@<TRIPOS>BOND
     1    17    18    1
     2    18    16    1
     3     5    16    1
     4     5     6    1
     5     6     7    1
     6     7    11    1
     7    11    12    1
     8    11    13    1
     9    13    14    1
    10    13    15    1
    11     7     8    1
    12     8     9    1
    13     9    10    1
    14    10     1    1
    15     1     2   am
    16     2     3    2
    17     2    19    1
    18    19    20    1
    19    20    21   am
    20    21    22    2
    21    21    24    1
    22    24    25   ar
    23    25    26   ar
    24    26    27   ar
    25    27    28   ar
    26    28    30    1
    27    30    31    1
    28    30    32    1
    29    30    33    1
    30    28    29   ar
    31    10     5    1
    32    29    24   ar
    33     1     4    1
    34    20    23    1
@<TRIPOS>MOLECULE
*****
 33 34 0 0 0
SMALL
GASTEIGER

@<TRIPOS>ATOM
      1 N          -0.9832    2.3673   20.8869 N.am    1  UNL1       -0.3045
      2 C          -0.0407    2.9311   19.8653 C.2     1  UNL1        0.2425
      3 O           0.2600    4.4006   19.8524 O.2     1  UNL1       -0.2733
      4 H          -1.1805    1.4029   20.8954 H       1  UNL1        0.1494
      5 C          -0.8387    3.7545   23.0790 C.3     1  UNL1        0.0489
      6 C          -1.4805    4.6602   24.0878 C.3     1  UNL1        0.0201
      7 C          -2.9087    5.0844   23.9134 C.3     1  UNL1        0.0577
      8 C          -3.6950    4.6030   22.7303 C.3     1  UNL1        0.0177
      9 C          -3.0531    3.6974   21.7215 C.3     1  UNL1        0.0210
     10 C          -1.6250    3.2731   21.8958 C.3     1  UNL1        0.0741
     11 N          -3.5505    5.9902   24.9223 N.3     1  UNL1       -0.2741
     12 C          -3.2455    7.4588   24.9130 C.3     1  UNL1        0.0896
     13 C          -4.4973    5.4273   25.9404 C.3     1  UNL1        0.0576
     14 C          -4.2938    4.0372   26.4662 C.3     1  UNL1        0.0173
     15 C          -5.6477    6.2544   26.4329 C.3     1  UNL1        0.0173
     16 C           0.5894    3.3302   23.2534 C.3     1  UNL1        0.1439
     17 C           0.6730    1.0089   24.4172 C.3     1  UNL1        0.1741
     18 O           0.9483    1.8741   23.2232 O.3     1  UNL1       -0.3510
     19 C           0.6011    2.0254   18.8564 C.3     1  UNL1        0.1759
     20 N           1.6651    1.0591   19.2856 N.am    1  UNL1       -0.2931
     21 C           1.3121   -0.1025   20.1665 C.2     1  UNL1        0.2462
     22 O          -0.1048   -0.2979   20.6181 O.2     1  UNL1       -0.2701
     23 H           2.5951    1.1874   18.9891 H       1  UNL1        0.1502
     24 C           2.3762   -1.0688   20.5957 C.ar    1  UNL1        0.0533
     25 C           2.9932   -0.9486   21.9576 C.ar    1  UNL1        0.0045
     26 C           4.0572   -1.9149   22.3868 C.ar    1  UNL1        0.0001
     27 C           4.5041   -3.0013   21.4541 C.ar    1  UNL1        0.0039
     28 C           3.8870   -3.1215   20.0922 C.ar    1  UNL1        0.0716
     29 C           2.8230   -2.1552   19.6631 C.ar    1  UNL1        0.0084
     30 C           4.3339   -4.2080   19.1596 C.3     1  UNL1        0.4186
     31 F           4.7808   -5.2945   18.2269 F       1  UNL1       -0.1659
     32 F           5.7633   -3.9267   19.5168 F       1  UNL1       -0.1659
     33 F           2.9045   -4.4893   18.8024 F       1  UNL1       -0.1659
@<TRIPOS>BOND
     1    17    18    1
     2    18    16    1
     3     5    16    1
     4     5     6    1
     5     6     7    1
     6     7    11    1
     7    11    12    1
     8    11    13    1
     9    13    14    1
    10    13    15    1
    11     7     8    1
    12     8     9    1
    13     9    10    1
    14    10     1    1
    15     1     2   am
    16     2     3    2
    17     2    19    1
    18    19    20    1
    19    20    21   am
    20    21    22    2
    21    21    24    1
    22    24    25   ar
    23    25    26   ar
    24    26    27   ar
    25    27    28   ar
    26    28    30    1
    27    30    31    1
    28    30    32    1
    29    30    33    1
    30    28    29   ar
    31    10     5    1
    32    29    24   ar
    33     1     4    1
    34    20    23    1
