@<TRIPOS>MOLECULE
*****
 29 32 0 0 0
SMALL
GASTEIGER

@<TRIPOS>ATOM
      1 N           7.2582   -4.0850   23.5654 N.3     1  UNL1       -0.2641
      2 C           7.0823   -3.0837   24.6683 C.3     1  UNL1        0.0730
      3 C           7.2886   -3.4960   26.0957 C.3     1  UNL1        0.0245
      4 C           7.6709   -4.9097   26.4202 C.3     1  UNL1        0.0577
      5 C           7.8469   -5.9111   25.3173 C.3     1  UNL1        0.1808
      6 F           8.2292   -7.3248   25.6419 F       1  UNL1       -0.2354
      7 C           7.6405   -5.4987   23.8900 C.3     1  UNL1        0.1084
      8 C           7.8773   -5.3220   27.8476 C.ar    1  UNL1       -0.0196
      9 C           6.7210   -5.3213   28.8031 C.ar    1  UNL1       -0.0011
     10 C           6.9274   -5.7336   30.2305 C.ar    1  UNL1        0.0363
     11 C           8.2901   -6.1466   30.7023 C.ar    1  UNL1        0.1337
     12 O           8.4964   -6.5590   32.1297 O.3     1  UNL1       -0.5055
     13 C           9.4463   -6.1473   29.7468 C.ar    1  UNL1        0.0363
     14 C           9.2400   -5.7350   28.3195 C.ar    1  UNL1       -0.0011
     15 H           7.7742   -6.5585   32.7266 H       1  UNL1        0.2922
     16 N           6.0216   -3.2691   19.9779 N.am    1  UNL1       -0.2743
     17 C           7.4469   -2.8073   19.9052 C.3     1  UNL1        0.0957
     18 C           8.0837   -3.0568   21.2403 C.3     1  UNL1        0.0468
     19 C           7.0519   -3.6727   22.1381 C.3     1  UNL1        0.1368
     20 C           5.7775   -3.8040   21.3579 C.2     1  UNL1        0.2404
     21 O           4.4857   -4.3705   21.8681 O.2     1  UNL1       -0.2734
     22 C           5.0169   -3.2070   18.8659 C.3     1  UNL1        0.1202
     23 C           1.0753    1.3107   18.6328 C.3     1  UNL1        0.0310
     24 C           2.0607    0.1813   18.6911 C.ar    1  UNL1       -0.0219
     25 C           1.9988   -0.8109   19.8143 C.ar    1  UNL1       -0.0045
     26 C           2.9842   -1.9403   19.8726 C.ar    1  UNL1       -0.0029
     27 C           4.0315   -2.0776   18.8076 C.ar    1  UNL1       -0.0024
     28 C           4.0935   -1.0854   17.6844 C.ar    1  UNL1       -0.0029
     29 C           3.1081    0.0441   17.6261 C.ar    1  UNL1       -0.0045
@<TRIPOS>BOND
     1    23    24    1
     2    24    25   ar
     3    25    26   ar
     4    26    27   ar
     5    27    22    1
     6    22    16    1
     7    16    17    1
     8    17    18    1
     9    18    19    1
    10    19     1    1
    11     1     2    1
    12     2     3    1
    13     3     4    1
    14     4     8    1
    15     8     9   ar
    16     9    10   ar
    17    10    11   ar
    18    11    12    1
    19    11    13   ar
    20    13    14   ar
    21     4     5    1
    22     5     6    1
    23     5     7    1
    24    19    20    1
    25    20    21    2
    26    27    28   ar
    27    28    29   ar
    28    29    24   ar
    29    20    16   am
    30     7     1    1
    31    14     8   ar
    32    12    15    1
@<TRIPOS>MOLECULE
*****
 29 32 0 0 0
SMALL
GASTEIGER

@<TRIPOS>ATOM
      1 N           7.7880   -5.7136   24.6719 N.3     1  UNL1       -0.2641
      2 C           6.7247   -4.6594   24.5824 C.3     1  UNL1        0.0730
      3 C           6.5213   -3.9062   23.3013 C.3     1  UNL1        0.0245
      4 C           7.3812   -4.2070   22.1097 C.3     1  UNL1        0.0577
      5 C           8.4446   -5.2613   22.1991 C.3     1  UNL1        0.1808
      6 F           9.3045   -5.5622   21.0075 F       1  UNL1       -0.2354
      7 C           8.6479   -6.0145   23.4802 C.3     1  UNL1        0.1084
      8 C           7.1778   -3.4538   20.8286 C.ar    1  UNL1       -0.0196
      9 C           5.8964   -3.6066   20.0640 C.ar    1  UNL1       -0.0011
     10 C           5.6930   -2.8533   18.7829 C.ar    1  UNL1        0.0363
     11 C           6.7711   -1.9472   18.2664 C.ar    1  UNL1        0.1337
     12 O           6.5677   -1.1939   16.9853 O.3     1  UNL1       -0.5055
     13 C           8.0525   -1.7944   19.0310 C.ar    1  UNL1        0.0363
     14 C           8.2559   -2.5476   20.3120 C.ar    1  UNL1       -0.0011
     15 H           5.7673   -1.2894   16.5077 H       1  UNL1        0.2922
     16 N           8.5071   -6.9900   28.2662 N.am    1  UNL1       -0.2743
     17 C           8.1018   -8.2622   27.5825 C.3     1  UNL1        0.0957
     18 C           7.7831   -7.9389   26.1528 C.3     1  UNL1        0.0468
     19 C           7.9914   -6.4669   25.9529 C.3     1  UNL1        0.1368
     20 C           8.4389   -5.8805   27.2590 C.2     1  UNL1        0.2404
     21 O           8.7615   -4.4379   27.5134 O.2     1  UNL1       -0.2734
     22 C           8.9099   -6.8517   29.7044 C.3     1  UNL1        0.1202
     23 C           7.2523   -2.0066   32.8314 C.3     1  UNL1        0.0310
     24 C           7.6667   -3.2179   32.0497 C.ar    1  UNL1       -0.0219
     25 C           9.1214   -3.4956   31.8120 C.ar    1  UNL1       -0.0045
     26 C           9.5358   -4.7069   31.0303 C.ar    1  UNL1       -0.0029
     27 C           8.4955   -5.6404   30.4862 C.ar    1  UNL1       -0.0024
     28 C           7.0407   -5.3627   30.7238 C.ar    1  UNL1       -0.0029
     29 C           6.6263   -4.1514   31.5056 C.ar    1  UNL1       -0.0045
@<TRIPOS>BOND
     1    23    24    1
     2    24    25   ar
     3    25    26   ar
     4    26    27   ar
     5    27    22    1
     6    22    16    1
     7    16    17    1
     8    17    18    1
     9    18    19    1
    10    19     1    1
    11     1     2    1
    12     2     3    1
    13     3     4    1
    14     4     8    1
    15     8     9   ar
    16     9    10   ar
    17    10    11   ar
    18    11    12    1
    19    11    13   ar
    20    13    14   ar
    21     4     5    1
    22     5     6    1
    23     5     7    1
    24    19    20    1
    25    20    21    2
    26    27    28   ar
    27    28    29   ar
    28    29    24   ar
    29    20    16   am
    30     7     1    1
    31    14     8   ar
    32    12    15    1
@<TRIPOS>MOLECULE
*****
 29 32 0 0 0
SMALL
GASTEIGER

@<TRIPOS>ATOM
      1 N           7.1440   -4.4671   26.0679 N.3     1  UNL1       -0.2641
      2 C           7.7530   -5.2739   24.9596 C.3     1  UNL1        0.0730
      3 C           7.3909   -4.9824   23.5334 C.3     1  UNL1        0.0245
      4 C           6.4199   -3.8842   23.2155 C.3     1  UNL1        0.0577
      5 C           5.8109   -3.0774   24.3238 C.3     1  UNL1        0.1808
      6 F           4.8399   -1.9792   24.0059 F       1  UNL1       -0.2354
      7 C           6.1730   -3.3689   25.7500 C.3     1  UNL1        0.1084
      8 C           6.0579   -3.5927   21.7893 C.ar    1  UNL1       -0.0196
      9 C           4.6646   -3.8561   21.3003 C.ar    1  UNL1       -0.0011
     10 C           4.3026   -3.5647   19.8741 C.ar    1  UNL1        0.0363
     11 C           5.3340   -3.0097   18.9370 C.ar    1  UNL1        0.1337
     12 O           4.9720   -2.7182   17.5108 O.3     1  UNL1       -0.5055
     13 C           6.7274   -2.7463   19.4260 C.ar    1  UNL1        0.0363
     14 C           7.0894   -3.0377   20.8521 C.ar    1  UNL1       -0.0011
     15 H           4.1016   -2.8828   17.2054 H       1  UNL1        0.2922
     16 N           8.1959   -4.4780   29.8040 N.am    1  UNL1       -0.2743
     17 C           7.9301   -5.9362   29.5735 C.3     1  UNL1        0.0957
     18 C           7.5037   -6.1096   28.1458 C.3     1  UNL1        0.0468
     19 C           7.5059   -4.7586   27.4940 C.3     1  UNL1        0.1368
     20 C           7.9337   -3.7503   28.5188 C.2     1  UNL1        0.2404
     21 O           8.0747   -2.2734   28.2974 O.2     1  UNL1       -0.2734
     22 C           8.6450   -3.8568   31.0933 C.3     1  UNL1        0.1202
     23 C           4.7792   -0.6693   34.3942 C.3     1  UNL1        0.0310
     24 C           5.7456   -1.4662   33.5690 C.ar    1  UNL1       -0.0219
     25 C           7.1736   -1.0227   33.4498 C.ar    1  UNL1       -0.0045
     26 C           8.1400   -1.8195   32.6245 C.ar    1  UNL1       -0.0029
     27 C           7.6785   -3.0599   31.9185 C.ar    1  UNL1       -0.0024
     28 C           6.2506   -3.5034   32.0378 C.ar    1  UNL1       -0.0029
     29 C           5.2842   -2.7066   32.8630 C.ar    1  UNL1       -0.0045
@<TRIPOS>BOND
     1    23    24    1
     2    24    25   ar
     3    25    26   ar
     4    26    27   ar
     5    27    22    1
     6    22    16    1
     7    16    17    1
     8    17    18    1
     9    18    19    1
    10    19     1    1
    11     1     2    1
    12     2     3    1
    13     3     4    1
    14     4     8    1
    15     8     9   ar
    16     9    10   ar
    17    10    11   ar
    18    11    12    1
    19    11    13   ar
    20    13    14   ar
    21     4     5    1
    22     5     6    1
    23     5     7    1
    24    19    20    1
    25    20    21    2
    26    27    28   ar
    27    28    29   ar
    28    29    24   ar
    29    20    16   am
    30     7     1    1
    31    14     8   ar
    32    12    15    1
@<TRIPOS>MOLECULE
*****
 29 32 0 0 0
SMALL
GASTEIGER

@<TRIPOS>ATOM
      1 N          -0.3093    2.9320   21.0264 N.3     1  UNL1       -0.2641
      2 C          -0.5927    3.2693   22.4602 C.3     1  UNL1        0.0730
      3 C          -1.9932    3.5871   22.8933 C.3     1  UNL1        0.0245
      4 C          -3.1104    3.5677   21.8925 C.3     1  UNL1        0.0577
      5 C          -2.8270    3.2303   20.4586 C.3     1  UNL1        0.1808
      6 F          -3.9442    3.2109   19.4578 F       1  UNL1       -0.2354
      7 C          -1.4265    2.9125   20.0256 C.3     1  UNL1        0.1084
      8 C          -4.5109    3.8855   22.3256 C.ar    1  UNL1       -0.0196
      9 C          -4.9302    3.6432   23.7453 C.ar    1  UNL1       -0.0011
     10 C          -6.3307    3.9610   24.1783 C.ar    1  UNL1        0.0363
     11 C          -7.3119    4.5212   23.1916 C.ar    1  UNL1        0.1337
     12 O          -8.7124    4.8390   23.6247 O.3     1  UNL1       -0.5055
     13 C          -6.8926    4.7635   21.7720 C.ar    1  UNL1        0.0363
     14 C          -5.4921    4.4457   21.3389 C.ar    1  UNL1       -0.0011
     15 H          -8.9743    4.6877   24.5115 H       1  UNL1        0.2922
     16 N           2.9778    1.7062   19.3657 N.am    1  UNL1       -0.2743
     17 C           3.5150    2.5438   20.4881 C.3     1  UNL1        0.0957
     18 C           2.3490    3.1050   21.2468 C.3     1  UNL1        0.0468
     19 C           1.0911    2.6141   20.5933 C.3     1  UNL1        0.1368
     20 C           1.4797    1.7497   19.4307 C.2     1  UNL1        0.2404
     21 O           0.5361    1.0512   18.4971 O.2     1  UNL1       -0.2734
     22 C           3.7950    0.9567   18.3556 C.3     1  UNL1        0.1202
     23 C           4.6608   -4.9474   18.9819 C.3     1  UNL1        0.0310
     24 C           4.4444   -3.4714   18.8253 C.ar    1  UNL1       -0.0219
     25 C           3.3002   -2.8025   19.5277 C.ar    1  UNL1       -0.0045
     26 C           3.0837   -1.3264   19.3711 C.ar    1  UNL1       -0.0029
     27 C           4.0115   -0.5193   18.5121 C.ar    1  UNL1       -0.0024
     28 C           5.1556   -1.1882   17.8098 C.ar    1  UNL1       -0.0029
     29 C           5.3721   -2.6643   17.9663 C.ar    1  UNL1       -0.0045
@<TRIPOS>BOND
     1    23    24    1
     2    24    25   ar
     3    25    26   ar
     4    26    27   ar
     5    27    22    1
     6    22    16    1
     7    16    17    1
     8    17    18    1
     9    18    19    1
    10    19     1    1
    11     1     2    1
    12     2     3    1
    13     3     4    1
    14     4     8    1
    15     8     9   ar
    16     9    10   ar
    17    10    11   ar
    18    11    12    1
    19    11    13   ar
    20    13    14   ar
    21     4     5    1
    22     5     6    1
    23     5     7    1
    24    19    20    1
    25    20    21    2
    26    27    28   ar
    27    28    29   ar
    28    29    24   ar
    29    20    16   am
    30     7     1    1
    31    14     8   ar
    32    12    15    1
@<TRIPOS>MOLECULE
*****
 29 32 0 0 0
SMALL
GASTEIGER

@<TRIPOS>ATOM
      1 N           6.6587   -3.5889   28.6344 N.3     1  UNL1       -0.2641
      2 C           6.2813   -2.1409   28.7381 C.3     1  UNL1        0.0730
      3 C           6.0139   -1.5298   30.0817 C.3     1  UNL1        0.0245
      4 C           6.1239   -2.3668   31.3216 C.3     1  UNL1        0.0577
      5 C           6.5013   -3.8149   31.2179 C.3     1  UNL1        0.1808
      6 F           6.6113   -4.6519   32.4578 F       1  UNL1       -0.2354
      7 C           6.7687   -4.4259   29.8743 C.3     1  UNL1        0.1084
      8 C           5.8566   -1.7557   32.6651 C.ar    1  UNL1       -0.0196
      9 C           6.9183   -0.9420   33.3437 C.ar    1  UNL1       -0.0011
     10 C           6.6510   -0.3310   34.6872 C.ar    1  UNL1        0.0363
     11 C           5.3217   -0.5337   35.3522 C.ar    1  UNL1        0.1337
     12 O           5.0543    0.0774   36.6957 O.3     1  UNL1       -0.5055
     13 C           4.2599   -1.3474   34.6736 C.ar    1  UNL1        0.0363
     14 C           4.5273   -1.9584   33.3301 C.ar    1  UNL1       -0.0011
     15 H           5.7176    0.5857   37.1196 H       1  UNL1        0.2922
     16 N           7.4711   -4.4588   24.9400 N.am    1  UNL1       -0.2743
     17 C           7.2039   -5.8217   25.5067 C.3     1  UNL1        0.0957
     18 C           6.8670   -5.6618   26.9597 C.3     1  UNL1        0.0468
     19 C           6.9261   -4.1999   27.2910 C.3     1  UNL1        0.1368
     20 C           7.2994   -3.4565   26.0428 C.2     1  UNL1        0.2404
     21 O           7.4709   -1.9715   25.9190 O.2     1  UNL1       -0.2734
     22 C           7.8445   -4.1521   23.5200 C.3     1  UNL1        0.1202
     23 C           3.5596   -3.3572   19.3960 C.3     1  UNL1        0.0310
     24 C           4.6308   -3.5559   20.4270 C.ar    1  UNL1       -0.0219
     25 C           6.0501   -3.7851   19.9993 C.ar    1  UNL1       -0.0045
     26 C           7.1214   -3.9838   21.0303 C.ar    1  UNL1       -0.0029
     27 C           6.7733   -3.9534   22.4890 C.ar    1  UNL1       -0.0024
     28 C           5.3540   -3.7242   22.9167 C.ar    1  UNL1       -0.0029
     29 C           4.2827   -3.5255   21.8857 C.ar    1  UNL1       -0.0045
@<TRIPOS>BOND
     1    23    24    1
     2    24    25   ar
     3    25    26   ar
     4    26    27   ar
     5    27    22    1
     6    22    16    1
     7    16    17    1
     8    17    18    1
     9    18    19    1
    10    19     1    1
    11     1     2    1
    12     2     3    1
    13     3     4    1
    14     4     8    1
    15     8     9   ar
    16     9    10   ar
    17    10    11   ar
    18    11    12    1
    19    11    13   ar
    20    13    14   ar
    21     4     5    1
    22     5     6    1
    23     5     7    1
    24    19    20    1
    25    20    21    2
    26    27    28   ar
    27    28    29   ar
    28    29    24   ar
    29    20    16   am
    30     7     1    1
    31    14     8   ar
    32    12    15    1
@<TRIPOS>MOLECULE
*****
 29 32 0 0 0
SMALL
GASTEIGER

@<TRIPOS>ATOM
      1 N           5.4781   -1.6012   31.7636 N.3     1  UNL1       -0.2641
      2 C           5.6911   -1.3070   30.3083 C.3     1  UNL1        0.0730
      3 C           6.2983   -2.3469   29.4139 C.3     1  UNL1        0.0245
      4 C           6.6926   -3.6810   29.9749 C.3     1  UNL1        0.0577
      5 C           6.4796   -3.9752   31.4303 C.3     1  UNL1        0.1808
      6 F           6.8739   -5.3093   31.9913 F       1  UNL1       -0.2354
      7 C           5.8723   -2.9353   32.3246 C.3     1  UNL1        0.1084
      8 C           7.2999   -4.7209   29.0805 C.ar    1  UNL1       -0.0196
      9 C           8.7207   -5.1536   29.2904 C.ar    1  UNL1       -0.0011
     10 C           9.3279   -6.1935   28.3961 C.ar    1  UNL1        0.0363
     11 C           8.5143   -6.8007   27.2919 C.ar    1  UNL1        0.1337
     12 O           9.1215   -7.8406   26.3975 O.3     1  UNL1       -0.5055
     13 C           7.0934   -6.3681   27.0820 C.ar    1  UNL1        0.0363
     14 C           6.4862   -5.3282   27.9763 C.ar    1  UNL1       -0.0011
     15 H          10.0091   -8.1109   26.5286 H       1  UNL1        0.2922
     16 N           4.5553    1.0361   34.4578 N.am    1  UNL1       -0.2743
     17 C           3.3175    1.0418   33.6106 C.3     1  UNL1        0.0957
     18 C           3.5124    0.0546   32.4982 C.3     1  UNL1        0.0468
     19 C           4.8709   -0.5613   32.6579 C.3     1  UNL1        0.1368
     20 C           5.5154    0.0453   33.8689 C.2     1  UNL1        0.2404
     21 O           6.8803   -0.2815   34.3983 O.2     1  UNL1       -0.2734
     22 C           4.7917    1.8740   35.6793 C.3     1  UNL1        0.1202
     23 C           0.5687    2.2462   39.9252 C.3     1  UNL1        0.0310
     24 C           1.6244    2.1531   38.8637 C.ar    1  UNL1       -0.0219
     25 C           2.4924    0.9331   38.7741 C.ar    1  UNL1       -0.0045
     26 C           3.5482    0.8401   37.7126 C.ar    1  UNL1       -0.0029
     27 C           3.7359    1.9670   36.7407 C.ar    1  UNL1       -0.0024
     28 C           2.8679    3.1871   36.8303 C.ar    1  UNL1       -0.0029
     29 C           1.8122    3.2801   37.8918 C.ar    1  UNL1       -0.0045
@<TRIPOS>BOND
     1    23    24    1
     2    24    25   ar
     3    25    26   ar
     4    26    27   ar
     5    27    22    1
     6    22    16    1
     7    16    17    1
     8    17    18    1
     9    18    19    1
    10    19     1    1
    11     1     2    1
    12     2     3    1
    13     3     4    1
    14     4     8    1
    15     8     9   ar
    16     9    10   ar
    17    10    11   ar
    18    11    12    1
    19    11    13   ar
    20    13    14   ar
    21     4     5    1
    22     5     6    1
    23     5     7    1
    24    19    20    1
    25    20    21    2
    26    27    28   ar
    27    28    29   ar
    28    29    24   ar
    29    20    16   am
    30     7     1    1
    31    14     8   ar
    32    12    15    1
@<TRIPOS>MOLECULE
*****
 29 32 0 0 0
SMALL
GASTEIGER

@<TRIPOS>ATOM
      1 N           7.3846   -4.8398   25.2228 N.3     1  UNL1       -0.2641
      2 C           6.2106   -3.9141   25.1019 C.3     1  UNL1        0.0730
      3 C           5.7566   -3.4512   23.7493 C.3     1  UNL1        0.0245
      4 C           6.4767   -3.9140   22.5175 C.3     1  UNL1        0.0577
      5 C           7.6508   -4.8397   22.6383 C.3     1  UNL1        0.1808
      6 F           8.3709   -5.3025   21.4066 F       1  UNL1       -0.2354
      7 C           8.1048   -5.3026   23.9910 C.3     1  UNL1        0.1084
      8 C           6.0227   -3.4511   21.1648 C.ar    1  UNL1       -0.0196
      9 C           4.7045   -3.9126   20.6176 C.ar    1  UNL1       -0.0011
     10 C           4.2505   -3.4497   19.2650 C.ar    1  UNL1        0.0363
     11 C           5.1148   -2.5254   18.4596 C.ar    1  UNL1        0.1337
     12 O           4.6608   -2.0625   17.1070 O.3     1  UNL1       -0.5055
     13 C           6.4330   -2.0639   19.0068 C.ar    1  UNL1        0.0363
     14 C           6.8869   -2.5267   20.3594 C.ar    1  UNL1       -0.0011
     15 H           3.8374   -2.3508   16.7651 H       1  UNL1        0.2922
     16 N           8.6650   -5.3036   28.8575 N.am    1  UNL1       -0.2743
     17 C           8.4095   -6.7263   28.4564 C.3     1  UNL1        0.0957
     18 C           7.8987   -6.7257   27.0460 C.3     1  UNL1        0.0468
     19 C           7.8386   -5.3026   26.5754 C.3     1  UNL1        0.1368
     20 C           8.3122   -4.4238   27.6949 C.2     1  UNL1        0.2404
     21 O           8.4150   -2.9278   27.6584 O.2     1  UNL1       -0.2734
     22 C           9.1825   -4.8419   30.1875 C.3     1  UNL1        0.1202
     23 C           5.8486   -1.2101   33.6072 C.3     1  UNL1        0.0310
     24 C           6.6821   -2.1180   32.7523 C.ar    1  UNL1       -0.0219
     25 C           8.1051   -1.7590   32.4424 C.ar    1  UNL1       -0.0045
     26 C           8.9385   -2.6669   31.5874 C.ar    1  UNL1       -0.0029
     27 C           8.3490   -3.9339   31.0424 C.ar    1  UNL1       -0.0024
     28 C           6.9260   -4.2930   31.3524 C.ar    1  UNL1       -0.0029
     29 C           6.0926   -3.3850   32.2073 C.ar    1  UNL1       -0.0045
@<TRIPOS>BOND
     1    23    24    1
     2    24    25   ar
     3    25    26   ar
     4    26    27   ar
     5    27    22    1
     6    22    16    1
     7    16    17    1
     8    17    18    1
     9    18    19    1
    10    19     1    1
    11     1     2    1
    12     2     3    1
    13     3     4    1
    14     4     8    1
    15     8     9   ar
    16     9    10   ar
    17    10    11   ar
    18    11    12    1
    19    11    13   ar
    20    13    14   ar
    21     4     5    1
    22     5     6    1
    23     5     7    1
    24    19    20    1
    25    20    21    2
    26    27    28   ar
    27    28    29   ar
    28    29    24   ar
    29    20    16   am
    30     7     1    1
    31    14     8   ar
    32    12    15    1
@<TRIPOS>MOLECULE
*****
 29 32 0 0 0
SMALL
GASTEIGER

@<TRIPOS>ATOM
      1 N          -0.2335    2.4241   19.7779 N.3     1  UNL1       -0.2641
      2 C          -0.1923    1.8577   21.1662 C.3     1  UNL1        0.0730
      3 C           0.7484    0.7353   21.4907 C.3     1  UNL1        0.0245
      4 C           1.6478    0.1791   20.4269 C.3     1  UNL1        0.0577
      5 C           1.6066    0.7455   19.0385 C.3     1  UNL1        0.1808
      6 F           2.5060    0.1894   17.9746 F       1  UNL1       -0.2354
      7 C           0.6659    1.8680   18.7141 C.3     1  UNL1        0.1084
      8 C           2.5885   -0.9433   20.7514 C.ar    1  UNL1       -0.0196
      9 C           2.9159   -1.9722   19.7102 C.ar    1  UNL1       -0.0011
     10 C           3.8566   -3.0946   20.0347 C.ar    1  UNL1        0.0363
     11 C           4.4697   -3.1881   21.4004 C.ar    1  UNL1        0.1337
     12 O           5.4104   -4.3106   21.7249 O.3     1  UNL1       -0.5055
     13 C           4.1422   -2.1593   22.4417 C.ar    1  UNL1        0.0363
     14 C           3.2016   -1.0369   22.1172 C.ar    1  UNL1       -0.0011
     15 H           5.6149   -4.9533   21.0745 H       1  UNL1        0.2922
     16 N          -3.1676    4.9257   19.3326 N.am    1  UNL1       -0.2743
     17 C          -2.0757    5.6218   18.5755 C.3     1  UNL1        0.0957
     18 C          -0.8437    4.7694   18.6501 C.3     1  UNL1        0.0468
     19 C          -1.1741    3.5465   19.4534 C.3     1  UNL1        0.1368
     20 C          -2.6103    3.6430   19.8752 C.2     1  UNL1        0.2404
     21 O          -3.3581    2.6342   20.6956 O.2     1  UNL1       -0.2734
     22 C          -4.5704    5.4246   19.5152 C.3     1  UNL1        0.1202
     23 C          -7.0619    5.4419   24.9733 C.3     1  UNL1        0.0310
     24 C          -6.4390    5.4376   23.6088 C.ar    1  UNL1       -0.0219
     25 C          -7.1155    4.7212   22.4778 C.ar    1  UNL1       -0.0045
     26 C          -6.4926    4.7168   21.1133 C.ar    1  UNL1       -0.0029
     27 C          -5.1933    5.4289   20.8797 C.ar    1  UNL1       -0.0024
     28 C          -4.5168    6.1454   22.0107 C.ar    1  UNL1       -0.0029
     29 C          -5.1397    6.1497   23.3752 C.ar    1  UNL1       -0.0045
@<TRIPOS>BOND
     1    23    24    1
     2    24    25   ar
     3    25    26   ar
     4    26    27   ar
     5    27    22    1
     6    22    16    1
     7    16    17    1
     8    17    18    1
     9    18    19    1
    10    19     1    1
    11     1     2    1
    12     2     3    1
    13     3     4    1
    14     4     8    1
    15     8     9   ar
    16     9    10   ar
    17    10    11   ar
    18    11    12    1
    19    11    13   ar
    20    13    14   ar
    21     4     5    1
    22     5     6    1
    23     5     7    1
    24    19    20    1
    25    20    21    2
    26    27    28   ar
    27    28    29   ar
    28    29    24   ar
    29    20    16   am
    30     7     1    1
    31    14     8   ar
    32    12    15    1
@<TRIPOS>MOLECULE
*****
 29 32 0 0 0
SMALL
GASTEIGER

@<TRIPOS>ATOM
      1 N           0.9140    1.5032   19.1625 N.3     1  UNL1       -0.2641
      2 C           0.5556    0.2952   19.9763 C.3     1  UNL1        0.0730
      3 C           1.5803   -0.7711   20.2272 C.3     1  UNL1        0.0245
      4 C           2.9634   -0.6295   19.6643 C.3     1  UNL1        0.0577
      5 C           3.3219    0.5786   18.8505 C.3     1  UNL1        0.1808
      6 F           4.7051    0.7202   18.2876 F       1  UNL1       -0.2354
      7 C           2.2972    1.6448   18.5996 C.3     1  UNL1        0.1084
      8 C           3.9881   -1.6958   19.9153 C.ar    1  UNL1       -0.0196
      9 C           5.1521   -1.4194   20.8200 C.ar    1  UNL1       -0.0011
     10 C           6.1768   -2.4857   21.0710 C.ar    1  UNL1        0.0363
     11 C           6.0374   -3.8285   20.4170 C.ar    1  UNL1        0.1337
     12 O           7.0621   -4.8948   20.6679 O.3     1  UNL1       -0.5055
     13 C           4.8734   -4.1049   19.5122 C.ar    1  UNL1        0.0363
     14 C           3.8488   -3.0386   19.2613 C.ar    1  UNL1       -0.0011
     15 H           7.7892   -4.7221   21.2331 H       1  UNL1        0.2922
     16 N          -1.9643    4.1066   19.2147 N.am    1  UNL1       -0.2743
     17 C          -1.4106    4.3143   17.8362 C.3     1  UNL1        0.0957
     18 C          -0.2649    3.3643   17.6488 C.3     1  UNL1        0.0468
     19 C          -0.1106    2.5695   18.9116 C.3     1  UNL1        0.1368
     20 C          -1.1608    3.0282   19.8793 C.2     1  UNL1        0.2404
     21 O          -1.3708    2.5012   21.2679 O.2     1  UNL1       -0.2734
     22 C          -3.1187    4.8472   19.8220 C.3     1  UNL1        0.1202
     23 C          -4.7858    3.6941   25.4693 C.3     1  UNL1        0.0310
     24 C          -4.3690    3.9824   24.0574 C.ar    1  UNL1       -0.0219
     25 C          -4.9395    3.1772   22.9278 C.ar    1  UNL1       -0.0045
     26 C          -4.5227    3.4654   21.5160 C.ar    1  UNL1       -0.0029
     27 C          -3.5355    4.5589   21.2338 C.ar    1  UNL1       -0.0024
     28 C          -2.9650    5.3641   22.3635 C.ar    1  UNL1       -0.0029
     29 C          -3.3818    5.0758   23.7753 C.ar    1  UNL1       -0.0045
@<TRIPOS>BOND
     1    23    24    1
     2    24    25   ar
     3    25    26   ar
     4    26    27   ar
     5    27    22    1
     6    22    16    1
     7    16    17    1
     8    17    18    1
     9    18    19    1
    10    19     1    1
    11     1     2    1
    12     2     3    1
    13     3     4    1
    14     4     8    1
    15     8     9   ar
    16     9    10   ar
    17    10    11   ar
    18    11    12    1
    19    11    13   ar
    20    13    14   ar
    21     4     5    1
    22     5     6    1
    23     5     7    1
    24    19    20    1
    25    20    21    2
    26    27    28   ar
    27    28    29   ar
    28    29    24   ar
    29    20    16   am
    30     7     1    1
    31    14     8   ar
    32    12    15    1
