@<TRIPOS>MOLECULE
*****
 34 38 0 0 0
SMALL
GASTEIGER

@<TRIPOS>ATOM
      1 N          -8.6031  -19.3917   21.3290 N.pl3   1  UNL1       -0.3054
      2 C          -9.1848  -19.3956   19.9464 C.3     1  UNL1        0.0910
      3 C          -8.0553  -19.5308   18.9687 C.3     1  UNL1        0.0245
      4 C          -6.7755  -19.6105   19.7470 C.3     1  UNL1        0.0372
      5 C          -5.2865  -19.7433   19.6238 C.3     1  UNL1        0.0738
      6 N          -4.7048  -19.7395   21.0064 N.3     1  UNL1       -0.2712
      7 C          -5.8342  -19.6042   21.9841 C.3     1  UNL1        0.0921
      8 C          -7.1140  -19.5245   21.2058 C.3     1  UNL1        0.0901
      9 C         -10.2195  -18.0633   22.8693 C.ar    1  UNL1        0.1515
     10 C         -10.9912  -17.9470   24.1503 C.ar    1  UNL1        0.0382
     11 C         -10.9184  -19.0429   25.1719 C.ar    1  UNL1        0.0032
     12 C         -10.0738  -20.2551   24.9126 C.ar    1  UNL1        0.0015
     13 C          -9.3020  -20.3713   23.6316 C.ar    1  UNL1        0.0176
     14 C          -9.3748  -19.2754   22.6099 C.ar    1  UNL1        0.0823
     15 O         -10.2924  -16.9674   21.8477 O.3     1  UNL1       -0.4779
     16 C         -11.4581  -15.9583   19.7566 C.3     1  UNL1        0.0472
     17 C         -11.5016  -16.8400   20.9694 C.3     1  UNL1        0.1662
     18 C         -12.7543  -17.5942   21.3037 C.3     1  UNL1        0.0472
     19 C          -3.2492  -19.8512   21.3508 C.3     1  UNL1        0.0731
     20 C          -2.2194  -19.1996   20.4762 C.3     1  UNL1        0.0294
     21 C          -1.8380  -17.7672   20.7061 C.3     1  UNL1        0.0666
     22 S          -1.8170  -17.2110   22.0990 S.3     1  UNL1       -0.0756
     23 C          -2.9636  -16.3788   22.5917 C.ar    1  UNL1        0.1933
     24 N          -3.3695  -15.0353   22.0622 N.ar    1  UNL1       -0.1221
     25 N          -4.5624  -14.5702   22.8436 N.ar    1  UNL1       -0.1266
     26 C          -4.8938  -15.6261   23.8560 C.ar    1  UNL1        0.1862
     27 N          -3.9057  -16.7439   23.7003 N.ar    1  UNL1       -0.2872
     28 C          -3.8666  -18.0054   24.5110 C.3     1  UNL1        0.1340
     29 C          -6.0162  -15.5736   24.8497 C.ar    1  UNL1        0.1362
     30 C          -7.4391  -15.5878   24.3753 C.ar    1  UNL1        0.1211
     31 N          -8.5615  -15.5352   25.3691 N.ar    1  UNL1       -0.2390
     32 C          -8.2610  -15.4685   26.8372 C.ar    1  UNL1        0.1195
     33 C          -6.8380  -15.4544   27.3115 C.ar    1  UNL1        0.1196
     34 N          -5.7156  -15.5069   26.3179 N.ar    1  UNL1       -0.2375
@<TRIPOS>BOND
     1    16    17    1
     2    17    18    1
     3    17    15    1
     4    15     9    1
     5     9    10   ar
     6    10    11   ar
     7    11    12   ar
     8    12    13   ar
     9    13    14   ar
    10    14     1    1
    11     1     2    1
    12     2     3    1
    13     3     4    1
    14     4     5    1
    15     5     6    1
    16     6    19    1
    17    19    20    1
    18    20    21    1
    19    21    22    1
    20    22    23    1
    21    23    24   ar
    22    24    25   ar
    23    25    26   ar
    24    26    29    1
    25    29    30   ar
    26    30    31   ar
    27    31    32   ar
    28    32    33   ar
    29    33    34   ar
    30    26    27   ar
    31    27    28    1
    32     6     7    1
    33     7     8    1
    34    14     9   ar
    35     8     1    1
    36     8     4    1
    37    27    23   ar
    38    34    29   ar
@<TRIPOS>MOLECULE
*****
 34 38 0 0 0
SMALL
GASTEIGER

@<TRIPOS>ATOM
      1 N          -9.5440  -19.5751   22.9105 N.pl3   1  UNL1       -0.3054
      2 C         -10.0207  -20.7526   23.7081 C.3     1  UNL1        0.0910
      3 C         -10.1458  -20.3227   25.1397 C.3     1  UNL1        0.0245
      4 C          -9.7464  -18.8795   25.2269 C.3     1  UNL1        0.0372
      5 C          -9.5769  -17.7218   26.1655 C.3     1  UNL1        0.0738
      6 N          -9.1002  -16.5443   25.3679 N.3     1  UNL1       -0.2712
      7 C          -8.9751  -16.9742   23.9363 C.3     1  UNL1        0.0921
      8 C          -9.3745  -18.4174   23.8491 C.3     1  UNL1        0.0901
      9 C         -10.4213  -19.3857   20.4723 C.ar    1  UNL1        0.1515
     10 C         -10.1599  -19.3688   18.9953 C.ar    1  UNL1        0.0382
     11 C          -8.7600  -19.5244   18.4795 C.ar    1  UNL1        0.0032
     12 C          -7.6214  -19.6968   19.4407 C.ar    1  UNL1        0.0015
     13 C          -7.8828  -19.7137   20.9177 C.ar    1  UNL1        0.0176
     14 C          -9.2827  -19.5582   21.4335 C.ar    1  UNL1        0.0823
     15 O         -11.8212  -19.2302   20.9880 O.3     1  UNL1       -0.4779
     16 C         -12.0859  -16.6619   20.6992 C.3     1  UNL1        0.0472
     17 C         -12.2831  -17.9044   21.5161 C.3     1  UNL1        0.1662
     18 C         -12.9421  -17.8210   22.8610 C.3     1  UNL1        0.0472
     19 C          -8.8011  -15.1770   25.9072 C.3     1  UNL1        0.0731
     20 C          -8.2428  -15.0220   27.2907 C.3     1  UNL1        0.0294
     21 C          -6.8735  -15.5448   27.6098 C.3     1  UNL1        0.0666
     22 S          -5.6799  -15.0257   26.8641 S.3     1  UNL1       -0.0756
     23 C          -5.4151  -15.4837   25.4605 C.ar    1  UNL1        0.1933
     24 N          -5.9524  -14.8518   24.2107 N.ar    1  UNL1       -0.1221
     25 N          -5.4359  -15.6316   23.0380 N.ar    1  UNL1       -0.1266
     26 C          -4.5793  -16.7455   23.5631 C.ar    1  UNL1        0.1862
     27 N          -4.5665  -16.6540   25.0603 N.ar    1  UNL1       -0.2872
     28 C          -3.8337  -17.5718   25.9933 C.3     1  UNL1        0.1340
     29 C          -3.8616  -17.7707   22.7362 C.ar    1  UNL1        0.1362
     30 C          -2.3638  -17.8443   22.7670 C.ar    1  UNL1        0.1211
     31 N          -1.6461  -18.8696   21.9400 N.ar    1  UNL1       -0.2390
     32 C          -2.4263  -19.8213   21.0824 C.ar    1  UNL1        0.1195
     33 C          -3.9242  -19.7477   21.0516 C.ar    1  UNL1        0.1196
     34 N          -4.6419  -18.7225   21.8785 N.ar    1  UNL1       -0.2375
@<TRIPOS>BOND
     1    16    17    1
     2    17    18    1
     3    17    15    1
     4    15     9    1
     5     9    10   ar
     6    10    11   ar
     7    11    12   ar
     8    12    13   ar
     9    13    14   ar
    10    14     1    1
    11     1     2    1
    12     2     3    1
    13     3     4    1
    14     4     5    1
    15     5     6    1
    16     6    19    1
    17    19    20    1
    18    20    21    1
    19    21    22    1
    20    22    23    1
    21    23    24   ar
    22    24    25   ar
    23    25    26   ar
    24    26    29    1
    25    29    30   ar
    26    30    31   ar
    27    31    32   ar
    28    32    33   ar
    29    33    34   ar
    30    26    27   ar
    31    27    28    1
    32     6     7    1
    33     7     8    1
    34    14     9   ar
    35     8     1    1
    36     8     4    1
    37    27    23   ar
    38    34    29   ar
@<TRIPOS>MOLECULE
*****
 34 38 0 0 0
SMALL
GASTEIGER

@<TRIPOS>ATOM
      1 N          -9.6420  -19.1189   22.9621 N.pl3   1  UNL1       -0.3054
      2 C         -10.5426  -19.9583   23.8190 C.3     1  UNL1        0.0910
      3 C         -10.5305  -19.3846   25.2049 C.3     1  UNL1        0.0245
      4 C          -9.6225  -18.1907   25.2045 C.3     1  UNL1        0.0372
      5 C          -9.0538  -17.0983   26.0608 C.3     1  UNL1        0.0738
      6 N          -8.1532  -16.2590   25.2039 N.3     1  UNL1       -0.2712
      7 C          -8.1652  -16.8326   23.8180 C.3     1  UNL1        0.0921
      8 C          -9.0733  -18.0265   23.8184 C.3     1  UNL1        0.0901
      9 C         -10.4755  -19.2578   20.5052 C.ar    1  UNL1        0.1515
     10 C         -10.1930  -19.4731   19.0479 C.ar    1  UNL1        0.0382
     11 C          -8.7947  -19.7647   18.5899 C.ar    1  UNL1        0.0032
     12 C          -7.6788  -19.8410   19.5894 C.ar    1  UNL1        0.0015
     13 C          -7.9613  -19.6257   21.0468 C.ar    1  UNL1        0.0176
     14 C          -9.3596  -19.3342   21.5047 C.ar    1  UNL1        0.0823
     15 O         -11.8738  -18.9663   20.9631 O.3     1  UNL1       -0.4779
     16 C         -12.9078  -17.3565   22.7207 C.3     1  UNL1        0.0472
     17 C         -12.2487  -17.5786   21.3917 C.3     1  UNL1        0.1662
     18 C         -11.9644  -16.4130   20.4914 C.3     1  UNL1        0.0472
     19 C          -7.3768  -15.0570   25.6538 C.3     1  UNL1        0.0731
     20 C          -5.9081  -15.1749   25.9350 C.3     1  UNL1        0.0294
     21 C          -4.9686  -15.6057   24.8479 C.3     1  UNL1        0.0666
     22 S          -4.4624  -17.0172   24.8098 S.3     1  UNL1       -0.0756
     23 C          -4.1795  -17.6772   23.4928 C.ar    1  UNL1        0.1933
     24 N          -4.6951  -19.0135   23.0475 N.ar    1  UNL1       -0.1221
     25 N          -4.1655  -19.2790   21.6694 N.ar    1  UNL1       -0.1266
     26 C          -3.3226  -18.1067   21.2630 C.ar    1  UNL1        0.1862
     27 N          -3.3312  -17.1167   22.3900 N.ar    1  UNL1       -0.2872
     28 C          -2.6170  -15.7979   22.4104 C.3     1  UNL1        0.1340
     29 C          -2.5982  -17.9515   19.9587 C.ar    1  UNL1        0.1362
     30 C          -1.1683  -18.3880   19.8385 C.ar    1  UNL1        0.1211
     31 N          -0.4439  -18.2328   18.5341 N.ar    1  UNL1       -0.2390
     32 C          -1.1496  -17.6411   17.3501 C.ar    1  UNL1        0.1195
     33 C          -2.5796  -17.2046   17.4703 C.ar    1  UNL1        0.1196
     34 N          -3.3040  -17.3598   18.7746 N.ar    1  UNL1       -0.2375
@<TRIPOS>BOND
     1    16    17    1
     2    17    18    1
     3    17    15    1
     4    15     9    1
     5     9    10   ar
     6    10    11   ar
     7    11    12   ar
     8    12    13   ar
     9    13    14   ar
    10    14     1    1
    11     1     2    1
    12     2     3    1
    13     3     4    1
    14     4     5    1
    15     5     6    1
    16     6    19    1
    17    19    20    1
    18    20    21    1
    19    21    22    1
    20    22    23    1
    21    23    24   ar
    22    24    25   ar
    23    25    26   ar
    24    26    29    1
    25    29    30   ar
    26    30    31   ar
    27    31    32   ar
    28    32    33   ar
    29    33    34   ar
    30    26    27   ar
    31    27    28    1
    32     6     7    1
    33     7     8    1
    34    14     9   ar
    35     8     1    1
    36     8     4    1
    37    27    23   ar
    38    34    29   ar
@<TRIPOS>MOLECULE
*****
 34 38 0 0 0
SMALL
GASTEIGER

@<TRIPOS>ATOM
      1 N         -10.5885  -16.6573   22.9656 N.pl3   1  UNL1       -0.3054
      2 C         -11.8787  -15.9437   22.6893 C.3     1  UNL1        0.0910
      3 C         -12.3080  -16.2863   21.2935 C.3     1  UNL1        0.0245
      4 C         -11.2832  -17.2115   20.7072 C.3     1  UNL1        0.0372
      5 C         -10.9152  -17.9951   19.4821 C.3     1  UNL1        0.0738
      6 N          -9.6251  -18.7085   19.7585 N.3     1  UNL1       -0.2712
      7 C          -9.1957  -18.3660   21.1543 C.3     1  UNL1        0.0921
      8 C         -10.2205  -17.4408   21.7406 C.3     1  UNL1        0.0901
      9 C          -9.9476  -17.6882   25.2627 C.ar    1  UNL1        0.1515
     10 C          -9.1631  -17.6286   26.5398 C.ar    1  UNL1        0.0382
     11 C          -8.2350  -16.4786   26.7970 C.ar    1  UNL1        0.0032
     12 C          -8.0914  -15.3881   25.7771 C.ar    1  UNL1        0.0015
     13 C          -8.8760  -15.4477   24.5000 C.ar    1  UNL1        0.0176
     14 C          -9.8040  -16.5977   24.2427 C.ar    1  UNL1        0.0823
     15 O         -10.8756  -18.8382   25.0055 O.3     1  UNL1       -0.4779
     16 C         -11.3884  -20.3059   22.9240 C.3     1  UNL1        0.0472
     17 C         -10.4764  -19.9256   24.0525 C.3     1  UNL1        0.1662
     18 C          -9.1651  -20.6326   24.2280 C.3     1  UNL1        0.0472
     19 C          -8.8929  -19.6069   18.8063 C.3     1  UNL1        0.0731
     20 C          -7.4470  -19.9295   19.0410 C.3     1  UNL1        0.0294
     21 C          -7.0688  -21.0496   19.9644 C.3     1  UNL1        0.0666
     22 S          -6.6009  -20.7477   21.3573 S.3     1  UNL1       -0.0756
     23 C          -5.5315  -19.7204   21.5830 C.ar    1  UNL1        0.1933
     24 N          -5.5785  -18.6040   22.5838 N.ar    1  UNL1       -0.1221
     25 N          -4.3034  -17.8227   22.4670 N.ar    1  UNL1       -0.1266
     26 C          -3.4683  -18.4561   21.3940 C.ar    1  UNL1        0.1862
     27 N          -4.2273  -19.6290   20.8477 N.ar    1  UNL1       -0.2872
     28 C          -3.7635  -20.5489   19.7574 C.3     1  UNL1        0.1340
     29 C          -2.1123  -17.9973   20.9459 C.ar    1  UNL1        0.1362
     30 C          -1.7456  -16.5455   21.0317 C.ar    1  UNL1        0.1211
     31 N          -0.3895  -16.0867   20.5836 N.ar    1  UNL1       -0.2390
     32 C           0.5998  -17.0799   20.0498 C.ar    1  UNL1        0.1195
     33 C           0.2330  -18.5319   19.9640 C.ar    1  UNL1        0.1196
     34 N          -1.1230  -18.9906   20.4121 N.ar    1  UNL1       -0.2375
@<TRIPOS>BOND
     1    16    17    1
     2    17    18    1
     3    17    15    1
     4    15     9    1
     5     9    10   ar
     6    10    11   ar
     7    11    12   ar
     8    12    13   ar
     9    13    14   ar
    10    14     1    1
    11     1     2    1
    12     2     3    1
    13     3     4    1
    14     4     5    1
    15     5     6    1
    16     6    19    1
    17    19    20    1
    18    20    21    1
    19    21    22    1
    20    22    23    1
    21    23    24   ar
    22    24    25   ar
    23    25    26   ar
    24    26    29    1
    25    29    30   ar
    26    30    31   ar
    27    31    32   ar
    28    32    33   ar
    29    33    34   ar
    30    26    27   ar
    31    27    28    1
    32     6     7    1
    33     7     8    1
    34    14     9   ar
    35     8     1    1
    36     8     4    1
    37    27    23   ar
    38    34    29   ar
@<TRIPOS>MOLECULE
*****
 34 38 0 0 0
SMALL
GASTEIGER

@<TRIPOS>ATOM
      1 N           3.3054   -2.1738   20.1769 N.pl3   1  UNL1       -0.3054
      2 C           3.5345   -3.4243   19.3807 C.3     1  UNL1        0.0910
      3 C           4.3848   -4.3474   20.2022 C.3     1  UNL1        0.0245
      4 C           4.6812   -3.6676   21.5060 C.3     1  UNL1        0.0372
      5 C           5.3899   -3.8179   22.8194 C.3     1  UNL1        0.0738
      6 N           5.1608   -2.5674   23.6155 N.3     1  UNL1       -0.2712
      7 C           4.3105   -1.6443   22.7942 C.3     1  UNL1        0.0921
      8 C           4.0141   -2.3242   21.4904 C.3     1  UNL1        0.0901
      9 C           3.0255   -0.0951   18.6438 C.ar    1  UNL1        0.1515
     10 C           2.2276    1.0965   18.2038 C.ar    1  UNL1        0.0382
     11 C           0.9120    1.4010   18.8569 C.ar    1  UNL1        0.0032
     12 C           0.3942    0.5139   19.9500 C.ar    1  UNL1        0.0015
     13 C           1.1921   -0.6777   20.3899 C.ar    1  UNL1        0.0176
     14 C           2.5076   -0.9822   19.7369 C.ar    1  UNL1        0.0823
     15 O           4.3410   -0.3995   17.9907 O.3     1  UNL1       -0.4779
     16 C           6.6523   -1.3600   18.6873 C.3     1  UNL1        0.0472
     17 C           5.6134   -0.2816   18.7762 C.3     1  UNL1        0.1662
     18 C           5.8470    0.9146   19.6506 C.3     1  UNL1        0.0472
     19 C           5.6892   -2.2890   24.9915 C.3     1  UNL1        0.0731
     20 C           5.8199   -0.8744   25.4726 C.3     1  UNL1        0.0294
     21 C           4.6894   -0.2278   26.2168 C.3     1  UNL1        0.0666
     22 S           3.6087   -1.0739   26.8220 S.3     1  UNL1       -0.0756
     23 C           3.1799   -0.8412   28.2405 C.ar    1  UNL1        0.1933
     24 N           1.7906   -0.5095   28.6984 N.ar    1  UNL1       -0.1221
     25 N           1.8171   -0.3626   30.1909 N.ar    1  UNL1       -0.1266
     26 C           3.2228   -0.6036   30.6555 C.ar    1  UNL1        0.1862
     27 N           4.0651   -0.8994   29.4500 N.ar    1  UNL1       -0.2872
     28 C           5.5345   -1.2004   29.4536 C.3     1  UNL1        0.1340
     29 C           3.7022   -0.5569   32.0761 C.ar    1  UNL1        0.1362
     30 C           4.0588    0.7575   32.7045 C.ar    1  UNL1        0.1211
     31 N           4.5382    0.8041   34.1251 N.ar    1  UNL1       -0.2390
     32 C           4.6609   -0.4638   34.9172 C.ar    1  UNL1        0.1195
     33 C           4.3042   -1.7783   34.2888 C.ar    1  UNL1        0.1196
     34 N           3.8249   -1.8249   32.8682 N.ar    1  UNL1       -0.2375
@<TRIPOS>BOND
     1    16    17    1
     2    17    18    1
     3    17    15    1
     4    15     9    1
     5     9    10   ar
     6    10    11   ar
     7    11    12   ar
     8    12    13   ar
     9    13    14   ar
    10    14     1    1
    11     1     2    1
    12     2     3    1
    13     3     4    1
    14     4     5    1
    15     5     6    1
    16     6    19    1
    17    19    20    1
    18    20    21    1
    19    21    22    1
    20    22    23    1
    21    23    24   ar
    22    24    25   ar
    23    25    26   ar
    24    26    29    1
    25    29    30   ar
    26    30    31   ar
    27    31    32   ar
    28    32    33   ar
    29    33    34   ar
    30    26    27   ar
    31    27    28    1
    32     6     7    1
    33     7     8    1
    34    14     9   ar
    35     8     1    1
    36     8     4    1
    37    27    23   ar
    38    34    29   ar
@<TRIPOS>MOLECULE
*****
 34 38 0 0 0
SMALL
GASTEIGER

@<TRIPOS>ATOM
      1 N           7.3064   -4.3856   22.9502 N.pl3   1  UNL1       -0.3054
      2 C           8.1509   -4.6117   21.7313 C.3     1  UNL1        0.0910
      3 C           8.9885   -5.8333   21.9680 C.3     1  UNL1        0.0245
      4 C           8.6617   -6.3622   23.3331 C.3     1  UNL1        0.0372
      5 C           8.9774   -7.4441   24.3230 C.3     1  UNL1        0.0738
      6 N           8.1329   -7.2179   25.5418 N.3     1  UNL1       -0.2712
      7 C           7.2953   -5.9963   25.3053 C.3     1  UNL1        0.0921
      8 C           7.6221   -5.4674   23.9402 C.3     1  UNL1        0.0901
      9 C           5.0140   -3.2904   22.4065 C.ar    1  UNL1        0.1515
     10 C           4.0271   -2.1777   22.6013 C.ar    1  UNL1        0.0382
     11 C           4.3456   -1.0475   23.5347 C.ar    1  UNL1        0.0032
     12 C           5.6511   -1.0300   24.2733 C.ar    1  UNL1        0.0015
     13 C           6.6380   -2.1427   24.0784 C.ar    1  UNL1        0.0176
     14 C           6.3195   -3.2729   23.1450 C.ar    1  UNL1        0.0823
     15 O           4.6955   -4.4206   21.4731 O.3     1  UNL1       -0.4779
     16 C           3.3695   -4.6770   19.2536 C.3     1  UNL1        0.0472
     17 C           4.5643   -4.1634   20.0011 C.3     1  UNL1        0.1662
     18 C           5.6279   -3.3927   19.2767 C.3     1  UNL1        0.0472
     19 C           8.1271   -8.0647   26.7799 C.3     1  UNL1        0.0731
     20 C           9.1529   -7.8357   27.8500 C.3     1  UNL1        0.0294
     21 C           8.8135   -6.9986   29.0476 C.3     1  UNL1        0.0666
     22 S           7.5656   -6.1662   29.0514 S.3     1  UNL1       -0.0756
     23 C           7.0961   -5.5244   30.3233 C.ar    1  UNL1        0.1933
     24 N           6.9466   -6.2053   31.6515 N.ar    1  UNL1       -0.1221
     25 N           6.4518   -5.1908   32.6394 N.ar    1  UNL1       -0.1266
     26 C           6.2955   -3.8829   31.9218 C.ar    1  UNL1        0.1862
     27 N           6.6937   -4.0891   30.4904 N.ar    1  UNL1       -0.2872
     28 C           6.6901   -3.0435   29.4149 C.3     1  UNL1        0.1340
     29 C           5.8238   -2.5949   32.5290 C.ar    1  UNL1        0.1362
     30 C           4.3947   -2.4481   32.9602 C.ar    1  UNL1        0.1211
     31 N           3.9230   -1.1601   33.5674 N.ar    1  UNL1       -0.2390
     32 C           4.8805   -0.0189   33.7433 C.ar    1  UNL1        0.1195
     33 C           6.3097   -0.1657   33.3120 C.ar    1  UNL1        0.1196
     34 N           6.7814   -1.4537   32.7048 N.ar    1  UNL1       -0.2375
@<TRIPOS>BOND
     1    16    17    1
     2    17    18    1
     3    17    15    1
     4    15     9    1
     5     9    10   ar
     6    10    11   ar
     7    11    12   ar
     8    12    13   ar
     9    13    14   ar
    10    14     1    1
    11     1     2    1
    12     2     3    1
    13     3     4    1
    14     4     5    1
    15     5     6    1
    16     6    19    1
    17    19    20    1
    18    20    21    1
    19    21    22    1
    20    22    23    1
    21    23    24   ar
    22    24    25   ar
    23    25    26   ar
    24    26    29    1
    25    29    30   ar
    26    30    31   ar
    27    31    32   ar
    28    32    33   ar
    29    33    34   ar
    30    26    27   ar
    31    27    28    1
    32     6     7    1
    33     7     8    1
    34    14     9   ar
    35     8     1    1
    36     8     4    1
    37    27    23   ar
    38    34    29   ar
@<TRIPOS>MOLECULE
*****
 34 38 0 0 0
SMALL
GASTEIGER

@<TRIPOS>ATOM
      1 N           3.2910   -2.1416   20.1536 N.pl3   1  UNL1       -0.3054
      2 C           3.5207   -3.3598   19.3092 C.3     1  UNL1        0.0910
      3 C           4.3770   -4.3112   20.0913 C.3     1  UNL1        0.0245
      4 C           4.6764   -3.6810   21.4191 C.3     1  UNL1        0.0372
      5 C           5.3907   -3.8794   22.7232 C.3     1  UNL1        0.0738
      6 N           5.1609   -2.6612   23.5675 N.3     1  UNL1       -0.2712
      7 C           4.3047   -1.7098   22.7855 C.3     1  UNL1        0.0921
      8 C           4.0053   -2.3401   21.4577 C.3     1  UNL1        0.0901
      9 C           2.9269   -0.0850   18.6084 C.ar    1  UNL1        0.1515
     10 C           2.1238    1.1202   18.2176 C.ar    1  UNL1        0.0382
     11 C           0.8819    1.4739   18.9809 C.ar    1  UNL1        0.0032
     12 C           0.4431    0.6224   20.1352 C.ar    1  UNL1        0.0015
     13 C           1.2462   -0.5828   20.5261 C.ar    1  UNL1        0.0176
     14 C           2.4880   -0.9365   19.7627 C.ar    1  UNL1        0.0823
     15 O           4.1687   -0.4385   17.8450 O.3     1  UNL1       -0.4779
     16 C           6.4747    0.4944   17.0958 C.3     1  UNL1        0.0472
     17 C           5.4694    0.2305   18.1773 C.3     1  UNL1        0.1662
     18 C           5.7648    0.6355   19.5910 C.3     1  UNL1        0.0472
     19 C           5.6938   -2.4342   24.9512 C.3     1  UNL1        0.0731
     20 C           6.8001   -3.2982   25.4799 C.3     1  UNL1        0.0294
     21 C           6.5818   -4.1261   26.7115 C.3     1  UNL1        0.0666
     22 S           7.6577   -4.2199   27.7526 S.3     1  UNL1       -0.0756
     23 C           7.2989   -4.1724   29.2083 C.ar    1  UNL1        0.1933
     24 N           7.4534   -5.2946   30.1915 N.ar    1  UNL1       -0.1221
     25 N           6.9726   -4.8102   31.5272 N.ar    1  UNL1       -0.1266
     26 C           6.5210   -3.3885   31.3696 C.ar    1  UNL1        0.1862
     27 N           6.7227   -2.9943   29.9364 N.ar    1  UNL1       -0.2872
     28 C           6.4041   -1.6569   29.3366 C.3     1  UNL1        0.1340
     29 C           5.9653   -2.5144   32.4545 C.ar    1  UNL1        0.1362
     30 C           4.5488   -2.6966   32.9127 C.ar    1  UNL1        0.1211
     31 N           3.9931   -1.8224   33.9977 N.ar    1  UNL1       -0.2390
     32 C           4.8540   -0.7661   34.6245 C.ar    1  UNL1        0.1195
     33 C           6.2707   -0.5839   34.1663 C.ar    1  UNL1        0.1196
     34 N           6.8264   -1.4580   33.0813 N.ar    1  UNL1       -0.2375
@<TRIPOS>BOND
     1    16    17    1
     2    17    18    1
     3    17    15    1
     4    15     9    1
     5     9    10   ar
     6    10    11   ar
     7    11    12   ar
     8    12    13   ar
     9    13    14   ar
    10    14     1    1
    11     1     2    1
    12     2     3    1
    13     3     4    1
    14     4     5    1
    15     5     6    1
    16     6    19    1
    17    19    20    1
    18    20    21    1
    19    21    22    1
    20    22    23    1
    21    23    24   ar
    22    24    25   ar
    23    25    26   ar
    24    26    29    1
    25    29    30   ar
    26    30    31   ar
    27    31    32   ar
    28    32    33   ar
    29    33    34   ar
    30    26    27   ar
    31    27    28    1
    32     6     7    1
    33     7     8    1
    34    14     9   ar
    35     8     1    1
    36     8     4    1
    37    27    23   ar
    38    34    29   ar
@<TRIPOS>MOLECULE
*****
 34 38 0 0 0
SMALL
GASTEIGER

@<TRIPOS>ATOM
      1 N         -15.0825   -1.7219   18.6438 N.pl3   1  UNL1       -0.3054
      2 C         -15.8626   -1.0061   19.7063 C.3     1  UNL1        0.0910
      3 C         -17.2506   -1.5746   19.7246 C.3     1  UNL1        0.0245
      4 C         -17.3282   -2.6418   18.6734 C.3     1  UNL1        0.0372
      5 C         -18.2340   -3.6527   18.0349 C.3     1  UNL1        0.0738
      6 N         -17.4538   -4.3685   16.9725 N.3     1  UNL1       -0.2712
      7 C         -16.0659   -3.8001   16.9542 C.3     1  UNL1        0.0921
      8 C         -15.9882   -2.7329   18.0054 C.3     1  UNL1        0.0901
      9 C         -13.3118   -0.6501   17.0735 C.ar    1  UNL1        0.1515
     10 C         -11.8775   -0.3992   16.7128 C.ar    1  UNL1        0.0382
     11 C         -10.7799   -0.9690   17.5616 C.ar    1  UNL1        0.0032
     12 C         -11.1164   -1.7898   18.7711 C.ar    1  UNL1        0.0015
     13 C         -12.5506   -2.0407   19.1318 C.ar    1  UNL1        0.0176
     14 C         -13.6483   -1.4709   18.2831 C.ar    1  UNL1        0.0823
     15 O         -14.4093   -0.0803   16.2247 O.3     1  UNL1       -0.4779
     16 C         -16.6819    1.1182   16.6103 C.3     1  UNL1        0.0472
     17 C         -15.1847    1.1117   16.7021 C.3     1  UNL1        0.1662
     18 C         -14.4630    2.2971   17.2712 C.3     1  UNL1        0.0472
     19 C         -17.9709   -5.4610   16.0842 C.3     1  UNL1        0.0731
     20 C         -17.4877   -6.8691   16.2683 C.3     1  UNL1        0.0294
     21 C         -17.8250   -7.6198   17.5224 C.3     1  UNL1        0.0666
     22 S         -16.7409   -7.9840   18.4930 S.3     1  UNL1       -0.0756
     23 C         -15.6016   -7.0386   18.7343 C.ar    1  UNL1        0.1933
     24 N         -15.5581   -5.9571   19.7728 N.ar    1  UNL1       -0.1221
     25 N         -14.2354   -5.2587   19.6598 N.ar    1  UNL1       -0.1266
     26 C         -13.4614   -5.9086   18.5514 C.ar    1  UNL1        0.1862
     27 N         -14.3058   -7.0086   17.9794 N.ar    1  UNL1       -0.2872
     28 C         -13.9216   -7.9188   16.8507 C.3     1  UNL1        0.1340
     29 C         -12.0848   -5.5257   18.0950 C.ar    1  UNL1        0.1362
     30 C         -10.9017   -5.7880   18.9789 C.ar    1  UNL1        0.1211
     31 N          -9.5250   -5.4051   18.5225 N.ar    1  UNL1       -0.2390
     32 C          -9.3315   -4.7600   17.1823 C.ar    1  UNL1        0.1195
     33 C         -10.5147   -4.4977   16.2983 C.ar    1  UNL1        0.1196
     34 N         -11.8913   -4.8805   16.7546 N.ar    1  UNL1       -0.2375
@<TRIPOS>BOND
     1    16    17    1
     2    17    18    1
     3    17    15    1
     4    15     9    1
     5     9    10   ar
     6    10    11   ar
     7    11    12   ar
     8    12    13   ar
     9    13    14   ar
    10    14     1    1
    11     1     2    1
    12     2     3    1
    13     3     4    1
    14     4     5    1
    15     5     6    1
    16     6    19    1
    17    19    20    1
    18    20    21    1
    19    21    22    1
    20    22    23    1
    21    23    24   ar
    22    24    25   ar
    23    25    26   ar
    24    26    29    1
    25    29    30   ar
    26    30    31   ar
    27    31    32   ar
    28    32    33   ar
    29    33    34   ar
    30    26    27   ar
    31    27    28    1
    32     6     7    1
    33     7     8    1
    34    14     9   ar
    35     8     1    1
    36     8     4    1
    37    27    23   ar
    38    34    29   ar
@<TRIPOS>MOLECULE
*****
 34 38 0 0 0
SMALL
GASTEIGER

@<TRIPOS>ATOM
      1 N           3.9092    1.4521   35.2876 N.pl3   1  UNL1       -0.3054
      2 C           2.8495    2.1848   34.5195 C.3     1  UNL1        0.0910
      3 C           2.6263    1.4564   33.2274 C.3     1  UNL1        0.0245
      4 C           3.5481    0.2734   33.1970 C.3     1  UNL1        0.0372
      5 C           3.9799   -0.9079   32.3796 C.3     1  UNL1        0.0738
      6 N           5.0396   -1.6405   33.1477 N.3     1  UNL1       -0.2712
      7 C           5.2628   -0.9122   34.4398 C.3     1  UNL1        0.0921
      8 C           4.3410    0.2708   34.4703 C.3     1  UNL1        0.0901
      9 C           3.5348    1.8355   37.8298 C.ar    1  UNL1        0.1515
     10 C           4.0691    2.2171   39.1786 C.ar    1  UNL1        0.0382
     11 C           5.5120    2.5967   39.3338 C.ar    1  UNL1        0.0032
     12 C           6.4206    2.5948   38.1403 C.ar    1  UNL1        0.0015
     13 C           5.8863    2.2133   36.7916 C.ar    1  UNL1        0.0176
     14 C           4.4435    1.8336   36.6364 C.ar    1  UNL1        0.0823
     15 O           2.0920    1.4559   37.6747 O.3     1  UNL1       -0.4779
     16 C           0.3283    2.3284   39.3711 C.3     1  UNL1        0.0472
     17 C           1.2389    1.2383   38.8891 C.3     1  UNL1        0.1662
     18 C           1.2965   -0.0695   39.6215 C.3     1  UNL1        0.0472
     19 C           5.7512   -2.8835   32.7020 C.3     1  UNL1        0.0731
     20 C           7.1529   -2.7971   32.1750 C.3     1  UNL1        0.0294
     21 C           7.7380   -3.9459   31.4082 C.3     1  UNL1        0.0666
     22 S           6.8349   -4.9215   30.7135 S.3     1  UNL1       -0.0756
     23 C           7.1299   -5.3447   29.3050 C.ar    1  UNL1        0.1933
     24 N           7.8115   -6.6150   28.8905 N.ar    1  UNL1       -0.1221
     25 N           7.8980   -6.6274   27.3930 N.ar    1  UNL1       -0.1266
     26 C           7.2698   -5.3648   26.8820 C.ar    1  UNL1        0.1862
     27 N           6.7951   -4.5721   28.0637 N.ar    1  UNL1       -0.2872
     28 C           6.1066   -3.2404   28.0129 C.3     1  UNL1        0.1340
     29 C           7.1393   -4.9650   25.4422 C.ar    1  UNL1        0.1362
     30 C           7.8624   -5.7392   24.3804 C.ar    1  UNL1        0.1211
     31 N           7.7319   -5.3394   22.9405 N.ar    1  UNL1       -0.2390
     32 C           6.8781   -4.1654   22.5625 C.ar    1  UNL1        0.1195
     33 C           6.1550   -3.3912   23.6244 C.ar    1  UNL1        0.1196
     34 N           6.2855   -3.7909   25.0643 N.ar    1  UNL1       -0.2375
@<TRIPOS>BOND
     1    16    17    1
     2    17    18    1
     3    17    15    1
     4    15     9    1
     5     9    10   ar
     6    10    11   ar
     7    11    12   ar
     8    12    13   ar
     9    13    14   ar
    10    14     1    1
    11     1     2    1
    12     2     3    1
    13     3     4    1
    14     4     5    1
    15     5     6    1
    16     6    19    1
    17    19    20    1
    18    20    21    1
    19    21    22    1
    20    22    23    1
    21    23    24   ar
    22    24    25   ar
    23    25    26   ar
    24    26    29    1
    25    29    30   ar
    26    30    31   ar
    27    31    32   ar
    28    32    33   ar
    29    33    34   ar
    30    26    27   ar
    31    27    28    1
    32     6     7    1
    33     7     8    1
    34    14     9   ar
    35     8     1    1
    36     8     4    1
    37    27    23   ar
    38    34    29   ar
