@<TRIPOS>MOLECULE
*****
 65 71 0 0 0
SMALL
GASTEIGER

@<TRIPOS>ATOM
      1 C           2.0158    1.2349   20.9383 C.3     1  UNL1        0.1175
      2 O           2.7459    1.1179   22.2434 O.3     1  UNL1       -0.3367
      3 C           3.4764   -0.1473   22.5833 C.3     1  UNL1        0.1902
      4 C           3.4769   -1.2955   21.6182 C.3     1  UNL1        0.0564
      5 C           2.7469   -1.1785   20.3131 C.3     1  UNL1        0.0074
      6 C           2.0163    0.0867   19.9732 C.3     1  UNL1        0.0275
      7 C           1.2863    0.2037   18.6680 C.3     1  UNL1        0.0025
      8 C           4.2070   -1.4125   22.9232 C.3     1  UNL1        0.0998
      9 C           4.9371   -1.5294   24.2284 C.3     1  UNL1        0.1762
     10 C           4.9366   -0.3812   25.1936 C.3     1  UNL1        0.0737
     11 C           4.2060    0.8840   24.8536 C.3     1  UNL1        0.1255
     12 C           4.1638    2.2974   25.9618 C.3     1  UNL1        0.0552
     13 C           4.5363    2.9743   27.2475 C.2     1  UNL1       -0.0298
     14 C           5.1700    3.1313   28.5979 C.2     1  UNL1       -0.0211
     15 C           4.7479    4.5247   28.9589 C.3     1  UNL1        0.0285
     16 C           5.9684    2.7448   29.8075 C.3     1  UNL1        0.1397
     17 C           6.8099    1.8734   30.6921 C.3     1  UNL1        0.0532
     18 C           7.1775    2.4290   31.8663 C.3     1  UNL1        0.0075
     19 C           7.5664    0.6498   31.1170 C.2     1  UNL1       -0.0237
     20 C           8.1228   -0.7396   31.0177 C.2     1  UNL1       -0.0050
     21 C           8.3944   -2.0834   30.4090 C.2     1  UNL1       -0.0041
     22 C           8.3397   -3.1770   29.3838 C.2     1  UNL1        0.0122
     23 C           9.1743   -4.1315   30.1852 C.3     1  UNL1        0.1668
     24 O           9.3176   -5.3982   29.3947 O.3     1  UNL1       -0.3462
     25 C           8.5715   -5.2267   28.1048 C.3     1  UNL1        0.1749
     26 C           8.7720   -6.5717   27.3585 C.3     1  UNL1        0.1582
     27 O           9.4913   -7.8520   27.6641 O.3     1  UNL1       -0.3778
     28 C           8.0312   -6.4182   26.0633 C.2     1  UNL1       -0.0188
     29 C           8.0096   -7.5452   25.0737 C.3     1  UNL1        0.0285
     30 C           7.3119   -5.1379   25.7578 C.2     1  UNL1       -0.0188
     31 C           7.3335   -4.0109   26.7476 C.3     1  UNL1        0.1510
     32 C           6.5351   -3.6244   25.5379 C.2     1  UNL1        0.3232
     33 O           6.6457   -4.8669   24.7050 O.2     1  UNL1       -0.2497
     34 O           5.6936   -2.7530   24.6533 O.3     1  UNL1       -0.4517
     35 C           7.9672   -3.8538   28.0980 C.3     1  UNL1        0.1467
     36 O           7.9456   -4.9808   27.1083 O.3     1  UNL1       -0.3795
     37 O           3.4760    1.0010   23.5486 O.3     1  UNL1       -0.3362
     38 H           9.3780   -8.4707   26.9256 H       1  UNL1        0.2109
     39 H           7.4269   -4.7190   26.3315 H       1  UNL1        0.2108
     40 C           1.2853    2.5001   20.5984 C.3     1  UNL1        0.0273
     41 C          -0.1851    2.6138   20.8720 C.3     1  UNL1        0.0025
     42 C           2.7875    3.4582   18.7075 C.3     1  UNL1        0.0001
     43 C           2.0251    3.6517   19.9848 C.3     1  UNL1        0.0024
     44 O           5.8578    3.9874   30.6405 O.3     1  UNL1       -0.3284
     45 C           4.9229    4.0235   31.8131 C.3     1  UNL1        0.2379
     46 C           3.6936    3.1641   31.8188 C.3     1  UNL1        0.0934
     47 C           2.7587    3.2002   32.9914 C.3     1  UNL1        0.1498
     48 C           3.0533    4.0958   34.1581 C.3     1  UNL1        0.1718
     49 C           4.2827    4.9551   34.1523 C.3     1  UNL1        0.1473
     50 C           4.5774    5.8506   35.3190 C.3     1  UNL1        0.0348
     51 O           5.2176    4.9190   32.9798 O.3     1  UNL1       -0.3304
     52 O           1.5293    2.3409   32.9972 O.3     1  UNL1       -0.3508
     53 C           0.7821    2.0920   31.7206 C.3     1  UNL1        0.1741
     54 O           2.1186    4.1319   35.3306 O.3     1  UNL1       -0.3279
     55 C           2.2858    3.1518   36.4536 C.3     1  UNL1        0.2377
     56 C           3.4113    2.1606   36.4228 C.3     1  UNL1        0.0934
     57 C           3.5786    1.1804   37.5458 C.3     1  UNL1        0.1494
     58 C           2.6204    1.1914   38.6998 C.3     1  UNL1        0.1647
     59 O           2.7876    0.2112   39.8228 O.3     1  UNL1       -0.3795
     60 C           1.4949    2.1825   38.7307 C.3     1  UNL1        0.1469
     61 C           0.5367    2.1935   39.8847 C.3     1  UNL1        0.0348
     62 O           1.3276    3.1627   37.6077 O.3     1  UNL1       -0.3304
     63 H           3.5571   -0.3528   39.6478 H       1  UNL1        0.2105
     64 O           4.7040    0.1893   37.5149 O.3     1  UNL1       -0.3508
     65 C           5.3834   -0.1339   36.2171 C.3     1  UNL1        0.1741
@<TRIPOS>BOND
     1    42    43    1
     2    43    40    1
     3    40    41    1
     4    40     1    1
     5     1     2    1
     6     2     3    1
     7     3     4    1
     8     4     5    1
     9     5     6    1
    10     6     7    1
    11     3     8    1
    12     9     8    1
    13     9    10    1
    14    10    11    1
    15    11    12    1
    16    12    13    1
    17    13    14    2
    18    14    15    1
    19    14    16    1
    20    16    44    1
    21    45    44    1
    22    45    46    1
    23    46    47    1
    24    47    52    1
    25    52    53    1
    26    47    48    1
    27    48    54    1
    28    55    54    1
    29    55    56    1
    30    56    57    1
    31    57    64    1
    32    64    65    1
    33    57    58    1
    34    58    59    1
    35    58    60    1
    36    60    61    1
    37    60    62    1
    38    48    49    1
    39    49    50    1
    40    49    51    1
    41    16    17    1
    42    17    18    1
    43    17    19    1
    44    19    20    2
    45    20    21    1
    46    21    22    2
    47    22    23    1
    48    23    24    1
    49    25    24    1
    50    25    26    1
    51    26    27    1
    52    26    28    1
    53    28    29    1
    54    28    30    2
    55    31    30    1
    56    31    32    1
    57    32    33    2
    58    32    34    1
    59    31    35    1
    60    35    36    1
    61    11    37    1
    62     6     1    1
    63    34     9    1
    64    37     3    1
    65    51    45    1
    66    35    22    1
    67    62    55    1
    68    35    25    1
    69    59    63    1
    70    27    38    1
    71    36    39    1
@<TRIPOS>MOLECULE
*****
 65 71 0 0 0
SMALL
GASTEIGER

@<TRIPOS>ATOM
      1 C           4.7586   -0.0427   19.7960 C.3     1  UNL1        0.1175
      2 O           3.9895    0.7347   20.8226 O.3     1  UNL1       -0.3367
      3 C           2.5527    1.0873   20.5751 C.3     1  UNL1        0.1902
      4 C           1.8849    0.6624   19.3009 C.3     1  UNL1        0.0564
      5 C           2.6540   -0.1150   18.2743 C.3     1  UNL1        0.0074
      6 C           4.0909   -0.4676   18.5218 C.3     1  UNL1        0.0275
      7 C           4.8600   -1.2450   17.4951 C.3     1  UNL1        0.0025
      8 C           1.1158    1.4398   20.3276 C.3     1  UNL1        0.0998
      9 C           0.3467    2.2173   21.3543 C.3     1  UNL1        0.1762
     10 C           1.0144    2.6422   22.6285 C.3     1  UNL1        0.0737
     11 C           2.4513    2.2896   22.8760 C.3     1  UNL1        0.1255
     12 C           3.3131    2.7659   24.3786 C.3     1  UNL1        0.0552
     13 C           3.3487    3.4355   25.7204 C.2     1  UNL1       -0.0298
     14 C           2.8313    4.2061   26.8987 C.2     1  UNL1       -0.0211
     15 C           4.0465    4.2478   27.7773 C.3     1  UNL1        0.0285
     16 C           1.8400    4.9605   27.7343 C.3     1  UNL1        0.1397
     17 C           0.5255    5.5837   28.0998 C.3     1  UNL1        0.0532
     18 C           0.4953    6.2028   29.2990 C.3     1  UNL1        0.0075
     19 C          -0.9121    5.9809   27.9396 C.2     1  UNL1       -0.0237
     20 C          -2.2539    6.0916   27.2783 C.2     1  UNL1       -0.0050
     21 C          -3.2955    5.8990   26.2163 C.2     1  UNL1       -0.0041
     22 C          -3.8785    5.4323   24.9154 C.2     1  UNL1        0.0122
     23 C          -5.2347    6.0170   25.1777 C.3     1  UNL1        0.1668
     24 O          -6.1084    5.7087   23.9980 O.3     1  UNL1       -0.3462
     25 C          -5.2922    4.9335   23.0066 C.3     1  UNL1        0.1749
     26 C          -6.2663    4.6605   21.8307 C.3     1  UNL1        0.1582
     27 O          -7.7011    4.9948   21.5485 O.3     1  UNL1       -0.3778
     28 C          -5.4656    3.8845   20.8274 C.2     1  UNL1       -0.0188
     29 C          -6.0998    3.4427   19.5419 C.3     1  UNL1        0.0285
     30 C          -4.0309    3.5502   21.1096 C.2     1  UNL1       -0.0188
     31 C          -3.3967    3.9920   22.3952 C.3     1  UNL1        0.1510
     32 C          -2.4054    3.2377   21.5597 C.2     1  UNL1        0.3232
     33 O          -3.2336    2.9016   20.3551 O.2     1  UNL1       -0.2497
     34 O          -1.0908    2.6145   21.1941 O.3     1  UNL1       -0.4517
     35 C          -3.9140    4.7627   23.5736 C.3     1  UNL1        0.1467
     36 O          -4.5481    4.3208   22.2880 O.3     1  UNL1       -0.3795
     37 O           3.2204    1.5122   21.8494 O.3     1  UNL1       -0.3362
     38 H          -7.9518    4.6382   20.6820 H       1  UNL1        0.2109
     39 H          -3.8979    3.8348   21.7571 H       1  UNL1        0.2108
     40 C           6.1954   -0.3952   20.0435 C.3     1  UNL1        0.0273
     41 C           7.2831    0.5418   19.6092 C.3     1  UNL1        0.0025
     42 C           7.2582   -2.7647   19.9675 C.3     1  UNL1        0.0001
     43 C           6.5445   -1.6848   20.7254 C.3     1  UNL1        0.0024
     44 O           2.6683    5.2965   28.9388 O.3     1  UNL1       -0.3284
     45 C           2.4373    4.5741   30.2331 C.3     1  UNL1        0.2379
     46 C           2.1076    3.1109   30.2267 C.3     1  UNL1        0.0934
     47 C           1.8766    2.3885   31.5209 C.3     1  UNL1        0.1498
     48 C           1.9755    3.1295   32.8214 C.3     1  UNL1        0.1718
     49 C           2.3053    4.5927   32.8277 C.3     1  UNL1        0.1473
     50 C           2.4042    5.3337   34.1281 C.3     1  UNL1        0.0348
     51 O           2.5362    5.3151   31.5335 O.3     1  UNL1       -0.3304
     52 O           1.5468    0.9252   31.5147 O.3     1  UNL1       -0.3508
     53 C           2.4038   -0.0335   30.7424 C.3     1  UNL1        0.1741
     54 O           1.7446    2.4071   34.1156 O.3     1  UNL1       -0.3279
     55 C           2.8738    1.6746   34.7775 C.3     1  UNL1        0.2377
     56 C           3.2257    1.9711   36.2052 C.3     1  UNL1        0.0934
     57 C           4.3549    1.2386   36.8671 C.3     1  UNL1        0.1494
     58 C           5.1323    0.2094   36.1013 C.3     1  UNL1        0.1647
     59 O           6.2615   -0.5232   36.7632 O.3     1  UNL1       -0.3795
     60 C           4.7805   -0.0872   34.6736 C.3     1  UNL1        0.1469
     61 C           5.5579   -1.1164   33.9078 C.3     1  UNL1        0.0348
     62 O           3.6513    0.6454   34.0117 O.3     1  UNL1       -0.3304
     63 H           6.3551   -0.2144   37.6779 H       1  UNL1        0.2105
     64 O           4.7067    1.5351   38.2947 O.3     1  UNL1       -0.3508
     65 C           4.1003    2.7203   38.9860 C.3     1  UNL1        0.1741
@<TRIPOS>BOND
     1    42    43    1
     2    43    40    1
     3    40    41    1
     4    40     1    1
     5     1     2    1
     6     2     3    1
     7     3     4    1
     8     4     5    1
     9     5     6    1
    10     6     7    1
    11     3     8    1
    12     9     8    1
    13     9    10    1
    14    10    11    1
    15    11    12    1
    16    12    13    1
    17    13    14    2
    18    14    15    1
    19    14    16    1
    20    16    44    1
    21    45    44    1
    22    45    46    1
    23    46    47    1
    24    47    52    1
    25    52    53    1
    26    47    48    1
    27    48    54    1
    28    55    54    1
    29    55    56    1
    30    56    57    1
    31    57    64    1
    32    64    65    1
    33    57    58    1
    34    58    59    1
    35    58    60    1
    36    60    61    1
    37    60    62    1
    38    48    49    1
    39    49    50    1
    40    49    51    1
    41    16    17    1
    42    17    18    1
    43    17    19    1
    44    19    20    2
    45    20    21    1
    46    21    22    2
    47    22    23    1
    48    23    24    1
    49    25    24    1
    50    25    26    1
    51    26    27    1
    52    26    28    1
    53    28    29    1
    54    28    30    2
    55    31    30    1
    56    31    32    1
    57    32    33    2
    58    32    34    1
    59    31    35    1
    60    35    36    1
    61    11    37    1
    62     6     1    1
    63    34     9    1
    64    37     3    1
    65    51    45    1
    66    35    22    1
    67    62    55    1
    68    35    25    1
    69    59    63    1
    70    27    38    1
    71    36    39    1
@<TRIPOS>MOLECULE
*****
 65 71 0 0 0
SMALL
GASTEIGER

@<TRIPOS>ATOM
      1 C           4.0213    0.0444   19.2547 C.3     1  UNL1        0.1175
      2 O           3.3434    0.7403   20.3975 O.3     1  UNL1       -0.3367
      3 C           1.9128    1.1729   20.2699 C.3     1  UNL1        0.1902
      4 C           1.1601    0.9095   18.9995 C.3     1  UNL1        0.0564
      5 C           1.8379    0.2136   17.8567 C.3     1  UNL1        0.0074
      6 C           3.2685   -0.2190   17.9843 C.3     1  UNL1        0.0275
      7 C           3.9464   -0.9149   16.8413 C.3     1  UNL1        0.0025
      8 C           0.4822    1.6054   20.1423 C.3     1  UNL1        0.0998
      9 C          -0.1957    2.3014   21.2853 C.3     1  UNL1        0.1762
     10 C           0.5570    2.5648   22.5557 C.3     1  UNL1        0.0737
     11 C           1.9876    2.1322   22.6833 C.3     1  UNL1        0.1255
     12 C           2.9484    2.4152   24.1746 C.3     1  UNL1        0.0552
     13 C           3.0851    2.9396   25.5733 C.2     1  UNL1       -0.0298
     14 C           2.6661    3.6031   26.8516 C.2     1  UNL1       -0.0211
     15 C           3.9267    3.5054   27.6588 C.3     1  UNL1        0.0285
     16 C           1.7553    4.3048   27.8151 C.3     1  UNL1        0.1397
     17 C           0.4914    4.9377   28.3169 C.3     1  UNL1        0.0532
     18 C           0.5527    5.4293   29.5727 C.3     1  UNL1        0.0075
     19 C          -0.9333    5.4055   28.2807 C.2     1  UNL1       -0.0237
     20 C          -2.3019    5.6371   27.7121 C.2     1  UNL1       -0.0050
     21 C          -3.4059    5.5971   26.6975 C.2     1  UNL1       -0.0041
     22 C          -4.0775    5.2917   25.3914 C.2     1  UNL1        0.0122
     23 C          -5.3902    5.8987   25.7892 C.3     1  UNL1        0.1668
     24 O          -6.3381    5.7494   24.6363 O.3     1  UNL1       -0.3462
     25 C          -5.6113    5.0502   23.5260 C.3     1  UNL1        0.1749
     26 C          -6.6577    4.9396   22.3862 C.3     1  UNL1        0.1582
     27 O          -8.0889    5.3575   22.2223 O.3     1  UNL1       -0.3778
     28 C          -5.9470    4.2413   21.2650 C.2     1  UNL1       -0.0188
     29 C          -6.6676    3.9610   19.9796 C.3     1  UNL1        0.0285
     30 C          -4.5158    3.8234   21.4289 C.2     1  UNL1       -0.0188
     31 C          -3.7952    4.1038   22.7143 C.3     1  UNL1        0.1510
     32 C          -2.8844    3.4021   21.7509 C.2     1  UNL1        0.3232
     33 O          -3.7895    3.2261   20.5678 O.2     1  UNL1       -0.2497
     34 O          -1.6204    2.7692   21.2491 O.3     1  UNL1       -0.4517
     35 C          -4.2141    4.7673   23.9927 C.3     1  UNL1        0.1467
     36 O          -4.9347    4.4869   22.7073 O.3     1  UNL1       -0.3795
     37 O           2.6655    1.4363   21.5404 O.3     1  UNL1       -0.3362
     38 H          -8.4010    5.1031   21.3398 H       1  UNL1        0.2109
     39 H          -4.3360    4.0336   22.0933 H       1  UNL1        0.2108
     40 C           5.4519   -0.3881   19.3823 C.3     1  UNL1        0.0273
     41 C           6.5566    0.5523   19.0014 C.3     1  UNL1        0.0025
     42 C           4.6755   -2.6820   20.3232 C.3     1  UNL1        0.0001
     43 C           5.7778   -1.7612   19.8907 C.3     1  UNL1        0.0024
     44 O           2.6606    4.4808   28.9982 O.3     1  UNL1       -0.3284
     45 C           2.8799    3.3428   29.9506 C.3     1  UNL1        0.2379
     46 C           3.5996    3.5768   31.2456 C.3     1  UNL1        0.0934
     47 C           3.8190    2.4388   32.1980 C.3     1  UNL1        0.1498
     48 C           3.3186    1.0669   31.8551 C.3     1  UNL1        0.1718
     49 C           2.5989    0.8330   30.5601 C.3     1  UNL1        0.1473
     50 C           2.0984   -0.5389   30.2173 C.3     1  UNL1        0.0348
     51 O           2.3795    1.9709   29.6077 O.3     1  UNL1       -0.3304
     52 O           4.5387    2.6726   33.4930 O.3     1  UNL1       -0.3508
     53 C           5.7342    3.5777   33.5339 C.3     1  UNL1        0.1741
     54 O           3.5379   -0.0711   32.8074 O.3     1  UNL1       -0.3279
     55 C           4.8508   -0.7964   32.8197 C.3     1  UNL1        0.2377
     56 C           4.9780   -2.1289   32.1427 C.3     1  UNL1        0.0934
     57 C           6.2908   -2.8542   32.1550 C.3     1  UNL1        0.1494
     58 C           7.4767   -2.2470   32.8443 C.3     1  UNL1        0.1647
     59 O           8.7896   -2.9722   32.8566 O.3     1  UNL1       -0.3795
     60 C           7.3495   -0.9145   33.5213 C.3     1  UNL1        0.1469
     61 C           8.5354   -0.3073   34.2107 C.3     1  UNL1        0.0348
     62 O           6.0366   -0.1892   33.5091 O.3     1  UNL1       -0.3304
     63 H           8.6999   -3.8113   32.3783 H       1  UNL1        0.2105
     64 O           6.4180   -4.1866   31.4780 O.3     1  UNL1       -0.3508
     65 C           6.9111   -4.2652   30.0635 C.3     1  UNL1        0.1741
@<TRIPOS>BOND
     1    42    43    1
     2    43    40    1
     3    40    41    1
     4    40     1    1
     5     1     2    1
     6     2     3    1
     7     3     4    1
     8     4     5    1
     9     5     6    1
    10     6     7    1
    11     3     8    1
    12     9     8    1
    13     9    10    1
    14    10    11    1
    15    11    12    1
    16    12    13    1
    17    13    14    2
    18    14    15    1
    19    14    16    1
    20    16    44    1
    21    45    44    1
    22    45    46    1
    23    46    47    1
    24    47    52    1
    25    52    53    1
    26    47    48    1
    27    48    54    1
    28    55    54    1
    29    55    56    1
    30    56    57    1
    31    57    64    1
    32    64    65    1
    33    57    58    1
    34    58    59    1
    35    58    60    1
    36    60    61    1
    37    60    62    1
    38    48    49    1
    39    49    50    1
    40    49    51    1
    41    16    17    1
    42    17    18    1
    43    17    19    1
    44    19    20    2
    45    20    21    1
    46    21    22    2
    47    22    23    1
    48    23    24    1
    49    25    24    1
    50    25    26    1
    51    26    27    1
    52    26    28    1
    53    28    29    1
    54    28    30    2
    55    31    30    1
    56    31    32    1
    57    32    33    2
    58    32    34    1
    59    31    35    1
    60    35    36    1
    61    11    37    1
    62     6     1    1
    63    34     9    1
    64    37     3    1
    65    51    45    1
    66    35    22    1
    67    62    55    1
    68    35    25    1
    69    59    63    1
    70    27    38    1
    71    36    39    1
@<TRIPOS>MOLECULE
*****
 65 71 0 0 0
SMALL
GASTEIGER

@<TRIPOS>ATOM
      1 C           4.4760    0.4313   32.3751 C.3     1  UNL1        0.1175
      2 O           4.6360    0.3886   30.8843 O.3     1  UNL1       -0.3367
      3 C           5.2845   -0.7970   30.2332 C.3     1  UNL1        0.1902
      4 C           5.7730   -1.9398   31.0730 C.3     1  UNL1        0.0564
      5 C           5.6130   -1.8971   32.5638 C.3     1  UNL1        0.0074
      6 C           4.9645   -0.7116   33.2148 C.3     1  UNL1        0.0275
      7 C           4.8045   -0.6689   34.7057 C.3     1  UNL1        0.0025
      8 C           5.9330   -1.9825   29.5822 C.3     1  UNL1        0.0998
      9 C           6.0930   -2.0252   28.0913 C.3     1  UNL1        0.1762
     10 C           5.6045   -0.8824   27.2515 C.3     1  UNL1        0.0737
     11 C           4.9560    0.3032   27.9026 C.3     1  UNL1        0.1255
     12 C           4.3484    1.7058   26.9587 C.3     1  UNL1        0.0552
     13 C           4.1167    2.4172   25.6586 C.2     1  UNL1       -0.0298
     14 C           4.1456    2.6375   24.1752 C.2     1  UNL1       -0.0211
     15 C           3.4891    3.9818   24.0663 C.3     1  UNL1        0.0285
     16 C           4.4306    2.3334   22.7342 C.3     1  UNL1        0.1397
     17 C           4.9283    1.5510   21.5552 C.3     1  UNL1        0.0532
     18 C           4.7475    2.1411   20.3546 C.3     1  UNL1        0.0075
     19 C           5.5630    0.4095   20.8175 C.2     1  UNL1       -0.0237
     20 C           6.2381   -0.9173   20.6335 C.2     1  UNL1       -0.0050
     21 C           6.8507   -2.2274   21.0312 C.2     1  UNL1       -0.0041
     22 C           7.3077   -3.3215   21.9500 C.2     1  UNL1        0.0122
     23 C           7.8397   -4.1873   20.8468 C.3     1  UNL1        0.1668
     24 O           8.4002   -5.4337   21.4650 O.3     1  UNL1       -0.3462
     25 C           8.2146   -5.3383   22.9504 C.3     1  UNL1        0.1749
     26 C           8.8170   -6.6568   23.5025 C.3     1  UNL1        0.1582
     27 O           9.4703   -7.8586   22.8868 O.3     1  UNL1       -0.3778
     28 C           8.6399   -6.5789   24.9899 C.2     1  UNL1       -0.0188
     29 C           9.1160   -7.7028   25.8617 C.3     1  UNL1        0.0285
     30 C           7.9866   -5.3772   25.6055 C.2     1  UNL1       -0.0188
     31 C           7.5105   -4.2532   24.7336 C.3     1  UNL1        0.1510
     32 C           7.2255   -3.9491   26.1746 C.2     1  UNL1        0.3232
     33 O           7.7707   -5.1747   26.8458 O.2     1  UNL1       -0.2497
     34 O           6.7278   -3.1667   27.3536 O.3     1  UNL1       -0.4517
     35 C           7.5393   -4.0328   23.2502 C.3     1  UNL1        0.1467
     36 O           8.0155   -5.1568   24.1221 O.3     1  UNL1       -0.3795
     37 O           4.7960    0.3459   29.3934 O.3     1  UNL1       -0.3362
     38 H           9.7163   -8.4859   23.5845 H       1  UNL1        0.2109
     39 H           7.8258   -4.9485   25.0503 H       1  UNL1        0.2108
     40 C           3.8275    1.6168   33.0261 C.3     1  UNL1        0.0273
     41 C           4.6710    2.7492   33.5322 C.3     1  UNL1        0.0025
     42 C           1.4770    1.9821   31.9812 C.3     1  UNL1        0.0001
     43 C           2.3355    1.6700   33.1711 C.3     1  UNL1        0.0024
     44 O           3.8853    3.5590   22.0631 O.3     1  UNL1       -0.3284
     45 C           2.5171    3.5317   21.4486 C.3     1  UNL1        0.2379
     46 C           1.7763    2.2333   21.3250 C.3     1  UNL1        0.0934
     47 C           0.4082    2.2060   20.7104 C.3     1  UNL1        0.1498
     48 C          -0.2190    3.4771   20.2196 C.3     1  UNL1        0.1718
     49 C           0.5218    4.7754   20.3433 C.3     1  UNL1        0.1473
     50 C          -0.1054    6.0466   19.8525 C.3     1  UNL1        0.0348
     51 O           1.8899    4.8028   20.9578 O.3     1  UNL1       -0.3304
     52 O          -0.3327    0.9076   20.5868 O.3     1  UNL1       -0.3508
     53 C           0.4261   -0.3776   20.4365 C.3     1  UNL1        0.1741
     54 O          -1.5871    3.4498   19.6051 O.3     1  UNL1       -0.3279
     55 C          -2.8037    3.5158   20.4800 C.3     1  UNL1        0.2377
     56 C          -4.1655    3.6379   19.8630 C.3     1  UNL1        0.0934
     57 C          -5.3821    3.7039   20.7379 C.3     1  UNL1        0.1494
     58 C          -5.2370    3.6478   22.2298 C.3     1  UNL1        0.1647
     59 O          -6.4536    3.7139   23.1047 O.3     1  UNL1       -0.3795
     60 C          -3.8752    3.5258   22.8468 C.3     1  UNL1        0.1469
     61 C          -3.7301    3.4697   24.3388 C.3     1  UNL1        0.0348
     62 O          -2.6586    3.4598   21.9719 O.3     1  UNL1       -0.3304
     63 H          -7.2462    3.7908   22.5510 H       1  UNL1        0.2105
     64 O          -6.7439    3.8260   20.1209 O.3     1  UNL1       -0.3508
     65 C          -6.8809    4.1853   18.6710 C.3     1  UNL1        0.1741
@<TRIPOS>BOND
     1    42    43    1
     2    43    40    1
     3    40    41    1
     4    40     1    1
     5     1     2    1
     6     2     3    1
     7     3     4    1
     8     4     5    1
     9     5     6    1
    10     6     7    1
    11     3     8    1
    12     9     8    1
    13     9    10    1
    14    10    11    1
    15    11    12    1
    16    12    13    1
    17    13    14    2
    18    14    15    1
    19    14    16    1
    20    16    44    1
    21    45    44    1
    22    45    46    1
    23    46    47    1
    24    47    52    1
    25    52    53    1
    26    47    48    1
    27    48    54    1
    28    55    54    1
    29    55    56    1
    30    56    57    1
    31    57    64    1
    32    64    65    1
    33    57    58    1
    34    58    59    1
    35    58    60    1
    36    60    61    1
    37    60    62    1
    38    48    49    1
    39    49    50    1
    40    49    51    1
    41    16    17    1
    42    17    18    1
    43    17    19    1
    44    19    20    2
    45    20    21    1
    46    21    22    2
    47    22    23    1
    48    23    24    1
    49    25    24    1
    50    25    26    1
    51    26    27    1
    52    26    28    1
    53    28    29    1
    54    28    30    2
    55    31    30    1
    56    31    32    1
    57    32    33    2
    58    32    34    1
    59    31    35    1
    60    35    36    1
    61    11    37    1
    62     6     1    1
    63    34     9    1
    64    37     3    1
    65    51    45    1
    66    35    22    1
    67    62    55    1
    68    35    25    1
    69    59    63    1
    70    27    38    1
    71    36    39    1
@<TRIPOS>MOLECULE
*****
 65 71 0 0 0
SMALL
GASTEIGER

@<TRIPOS>ATOM
      1 C           6.4008    0.4068   18.8791 C.3     1  UNL1        0.1175
      2 O           5.4663    0.5382   20.0449 O.3     1  UNL1       -0.3367
      3 C           4.2152    1.3555   19.9149 C.3     1  UNL1        0.1902
      4 C           3.8988    2.0414   18.6191 C.3     1  UNL1        0.0564
      5 C           4.8334    1.9100   17.4532 C.3     1  UNL1        0.0074
      6 C           6.0844    1.0927   17.5832 C.3     1  UNL1        0.0275
      7 C           7.0190    0.9614   16.4173 C.3     1  UNL1        0.0025
      8 C           2.9642    2.1728   19.7849 C.3     1  UNL1        0.0998
      9 C           2.0296    2.3041   20.9508 C.3     1  UNL1        0.1762
     10 C           2.3460    1.6182   22.2467 C.3     1  UNL1        0.0737
     11 C           3.5971    0.8009   22.3767 C.3     1  UNL1        0.1255
     12 C           4.0380   -0.0470   23.8979 C.3     1  UNL1        0.0552
     13 C           3.7637   -0.4199   25.3247 C.2     1  UNL1       -0.0298
     14 C           3.0236   -0.4604   26.6287 C.2     1  UNL1       -0.0211
     15 C           3.9286   -1.3283   27.4520 C.3     1  UNL1        0.0285
     16 C           1.9304   -0.1622   27.6116 C.3     1  UNL1        0.1397
     17 C           0.6505    0.4292   28.1236 C.3     1  UNL1        0.0532
     18 C           0.3490    0.1282   29.4046 C.3     1  UNL1        0.0075
     19 C          -0.6212    1.2238   28.0868 C.2     1  UNL1       -0.0237
     20 C          -1.6911    2.1006   27.5069 C.2     1  UNL1       -0.0050
     21 C          -2.3963    2.9262   26.4720 C.2     1  UNL1       -0.0041
     22 C          -2.6296    3.5749   25.1398 C.2     1  UNL1        0.0122
     23 C          -3.9238    4.2153   25.5457 C.3     1  UNL1        0.1668
     24 O          -4.4494    4.9841   24.3697 O.3     1  UNL1       -0.3462
     25 C          -3.4800    4.8188   23.2371 C.3     1  UNL1        0.1749
     26 C          -4.0978    5.6391   22.0745 C.3     1  UNL1        0.1582
     27 O          -5.3391    6.4645   21.9074 O.3     1  UNL1       -0.3778
     28 C          -3.1398    5.4850   20.9306 C.2     1  UNL1       -0.0188
     29 C          -3.4231    6.1564   19.6196 C.3     1  UNL1        0.0285
     30 C          -1.8985    4.6597   21.0978 C.2     1  UNL1       -0.0188
     31 C          -1.6152    3.9883   22.4089 C.3     1  UNL1        0.1510
     32 C          -0.5220    3.6901   21.4260 C.2     1  UNL1        0.3232
     33 O          -1.0004    4.4417   20.2193 O.2     1  UNL1       -0.2497
     34 O           0.7578    3.0987   20.9140 O.3     1  UNL1       -0.4517
     35 C          -2.3553    3.9478   23.7130 C.3     1  UNL1        0.1467
     36 O          -2.6386    4.6192   22.4018 O.3     1  UNL1       -0.3795
     37 O           4.5316    0.6695   21.2109 O.3     1  UNL1       -0.3362
     38 H          -5.3692    6.8246   21.0072 H       1  UNL1        0.2109
     39 H          -1.9255    4.4191   21.7754 H       1  UNL1        0.2108
     40 C           7.6519   -0.4105   19.0091 C.3     1  UNL1        0.0273
     41 C           8.9059    0.2172   19.5412 C.3     1  UNL1        0.0025
     42 C           6.3484   -2.5728   18.3963 C.3     1  UNL1        0.0001
     43 C           7.6489   -1.8556   18.6070 C.3     1  UNL1        0.0024
     44 O           2.4089   -0.9138   28.8183 O.3     1  UNL1       -0.3284
     45 C           2.9862   -0.1691   29.9855 C.3     1  UNL1        0.2379
     46 C           3.2037   -0.8739   31.2916 C.3     1  UNL1        0.0934
     47 C           3.7810   -0.1291   32.4587 C.3     1  UNL1        0.1498
     48 C           4.1408    1.3205   32.3196 C.3     1  UNL1        0.1718
     49 C           3.9233    2.0252   31.0136 C.3     1  UNL1        0.1473
     50 C           4.2830    3.4748   30.8745 C.3     1  UNL1        0.0348
     51 O           3.3460    1.2805   29.8464 O.3     1  UNL1       -0.3304
     52 O           3.9985   -0.8339   33.7648 O.3     1  UNL1       -0.3508
     53 C           5.3745   -1.2887   34.1517 C.3     1  UNL1        0.1741
     54 O           4.7180    2.0652   33.4867 O.3     1  UNL1       -0.3279
     55 C           3.8651    2.3591   34.6850 C.3     1  UNL1        0.2377
     56 C           2.8907    3.4992   34.6507 C.3     1  UNL1        0.0934
     57 C           2.0377    3.7931   35.8490 C.3     1  UNL1        0.1494
     58 C           2.1591    2.9470   37.0817 C.3     1  UNL1        0.1647
     59 O           1.3061    3.2410   38.2800 O.3     1  UNL1       -0.3795
     60 C           3.1333    1.8071   37.1160 C.3     1  UNL1        0.1469
     61 C           3.2547    0.9610   38.3487 C.3     1  UNL1        0.0348
     62 O           3.9863    1.5131   35.9177 O.3     1  UNL1       -0.3304
     63 H           0.7366    4.0034   38.0923 H       1  UNL1        0.2105
     64 O           1.0634    4.9330   35.8147 O.3     1  UNL1       -0.3508
     65 C           0.8078    5.6627   34.5292 C.3     1  UNL1        0.1741
@<TRIPOS>BOND
     1    42    43    1
     2    43    40    1
     3    40    41    1
     4    40     1    1
     5     1     2    1
     6     2     3    1
     7     3     4    1
     8     4     5    1
     9     5     6    1
    10     6     7    1
    11     3     8    1
    12     9     8    1
    13     9    10    1
    14    10    11    1
    15    11    12    1
    16    12    13    1
    17    13    14    2
    18    14    15    1
    19    14    16    1
    20    16    44    1
    21    45    44    1
    22    45    46    1
    23    46    47    1
    24    47    52    1
    25    52    53    1
    26    47    48    1
    27    48    54    1
    28    55    54    1
    29    55    56    1
    30    56    57    1
    31    57    64    1
    32    64    65    1
    33    57    58    1
    34    58    59    1
    35    58    60    1
    36    60    61    1
    37    60    62    1
    38    48    49    1
    39    49    50    1
    40    49    51    1
    41    16    17    1
    42    17    18    1
    43    17    19    1
    44    19    20    2
    45    20    21    1
    46    21    22    2
    47    22    23    1
    48    23    24    1
    49    25    24    1
    50    25    26    1
    51    26    27    1
    52    26    28    1
    53    28    29    1
    54    28    30    2
    55    31    30    1
    56    31    32    1
    57    32    33    2
    58    32    34    1
    59    31    35    1
    60    35    36    1
    61    11    37    1
    62     6     1    1
    63    34     9    1
    64    37     3    1
    65    51    45    1
    66    35    22    1
    67    62    55    1
    68    35    25    1
    69    59    63    1
    70    27    38    1
    71    36    39    1
@<TRIPOS>MOLECULE
*****
 65 71 0 0 0
SMALL
GASTEIGER

@<TRIPOS>ATOM
      1 C           6.4725    0.3419   18.8408 C.3     1  UNL1        0.1175
      2 O           5.6219    0.4265   20.0733 O.3     1  UNL1       -0.3367
      3 C           4.3489    1.2196   20.0532 C.3     1  UNL1        0.1902
      4 C           3.9266    1.9283   18.8005 C.3     1  UNL1        0.0564
      5 C           4.7772    1.8438   17.5679 C.3     1  UNL1        0.0074
      6 C           6.0501    1.0506   17.5881 C.3     1  UNL1        0.0275
      7 C           6.9008    0.9661   16.3554 C.3     1  UNL1        0.0025
      8 C           3.0759    2.0128   20.0330 C.3     1  UNL1        0.0998
      9 C           2.2253    2.0973   21.2657 C.3     1  UNL1        0.1762
     10 C           2.6477    1.3886   22.5184 C.3     1  UNL1        0.0737
     11 C           3.9206    0.5954   22.5386 C.3     1  UNL1        0.1255
     12 C           4.4866   -0.2776   24.0031 C.3     1  UNL1        0.0552
     13 C           4.3231   -0.6891   25.4363 C.2     1  UNL1       -0.0298
     14 C           3.6798   -0.7754   26.7885 C.2     1  UNL1       -0.0211
     15 C           4.6586   -1.6425   27.5234 C.3     1  UNL1        0.0285
     16 C           2.6545   -0.5233   27.8541 C.3     1  UNL1        0.1397
     17 C           1.4035    0.0286   28.4706 C.3     1  UNL1        0.0532
     18 C           1.2009   -0.3081   29.7622 C.3     1  UNL1        0.0075
     19 C           0.1171    0.7966   28.5444 C.2     1  UNL1       -0.0237
     20 C          -1.0089    1.6635   28.0641 C.2     1  UNL1       -0.0050
     21 C          -1.8029    2.4974   27.1029 C.2     1  UNL1       -0.0041
     22 C          -2.1442    3.1715   25.8070 C.2     1  UNL1        0.0122
     23 C          -3.4182    3.7746   26.3200 C.3     1  UNL1        0.1668
     24 O          -4.0420    4.5589   25.2039 O.3     1  UNL1       -0.3462
     25 C          -3.1536    4.4404   24.0011 C.3     1  UNL1        0.1749
     26 C          -3.8695    5.2739   22.9061 C.3     1  UNL1        0.1582
     27 O          -5.1356    6.0762   22.8485 O.3     1  UNL1       -0.3778
     28 C          -2.9935    5.1667   21.6932 C.2     1  UNL1       -0.0188
     29 C          -3.3837    5.8619   20.4226 C.3     1  UNL1        0.0285
     30 C          -1.7275    4.3644   21.7509 C.2     1  UNL1       -0.0188
     31 C          -1.3374    3.6692   23.0216 C.3     1  UNL1        0.1510
     32 C          -0.3122    3.4172   21.9560 C.2     1  UNL1        0.3232
     33 O          -0.8909    4.1859   20.8054 O.2     1  UNL1       -0.2497
     34 O           0.9389    2.8652   21.3394 O.3     1  UNL1       -0.4517
     35 C          -1.9807    3.5829   24.3739 C.3     1  UNL1        0.1467
     36 O          -2.3708    4.2781   23.1032 O.3     1  UNL1       -0.3795
     37 O           4.7713    0.5109   21.3060 O.3     1  UNL1       -0.3362
     38 H          -5.2375    6.4562   21.9618 H       1  UNL1        0.2109
     39 H          -1.7009    4.1078   22.4226 H       1  UNL1        0.2108
     40 C           7.7455   -0.4512   18.8609 C.3     1  UNL1        0.0273
     41 C           9.0513    0.2331   19.1373 C.3     1  UNL1        0.0025
     42 C           6.4025   -2.6202   18.3690 C.3     1  UNL1        0.0001
     43 C           7.7126   -1.9288   18.6047 C.3     1  UNL1        0.0024
     44 O           3.2334   -1.2921   29.0047 O.3     1  UNL1       -0.3284
     45 C           3.6940   -0.5675   30.2348 C.3     1  UNL1        0.2379
     46 C           4.0920    0.8761   30.1499 C.3     1  UNL1        0.0934
     47 C           4.5526    1.6007   31.3800 C.3     1  UNL1        0.1498
     48 C           4.6152    0.8814   32.6948 C.3     1  UNL1        0.1718
     49 C           4.2173   -0.5623   32.7796 C.3     1  UNL1        0.1473
     50 C           4.2799   -1.2816   34.0944 C.3     1  UNL1        0.0348
     51 O           3.7566   -1.2868   31.5496 O.3     1  UNL1       -0.3304
     52 O           4.9506    3.0444   31.2952 O.3     1  UNL1       -0.3508
     53 C           3.8991    4.1057   31.1608 C.3     1  UNL1        0.1741
     54 O           5.0759    1.6059   33.9248 O.3     1  UNL1       -0.3279
     55 C           4.0703    2.1443   34.8988 C.3     1  UNL1        0.2377
     56 C           3.9557    1.5426   36.2682 C.3     1  UNL1        0.0934
     57 C           2.9501    2.0810   37.2422 C.3     1  UNL1        0.1494
     58 C           2.0591    3.2212   36.8471 C.3     1  UNL1        0.1647
     59 O           1.0535    3.7596   37.8211 O.3     1  UNL1       -0.3795
     60 C           2.1736    3.8229   35.4778 C.3     1  UNL1        0.1469
     61 C           1.2826    4.9630   35.0827 C.3     1  UNL1        0.0348
     62 O           3.1792    3.2845   34.5038 O.3     1  UNL1       -0.3304
     63 H           1.1100    3.2625   38.6522 H       1  UNL1        0.2105
     64 O           2.8355    1.4793   38.6114 O.3     1  UNL1       -0.3508
     65 C           1.6707    0.5960   38.9474 C.3     1  UNL1        0.1741
@<TRIPOS>BOND
     1    42    43    1
     2    43    40    1
     3    40    41    1
     4    40     1    1
     5     1     2    1
     6     2     3    1
     7     3     4    1
     8     4     5    1
     9     5     6    1
    10     6     7    1
    11     3     8    1
    12     9     8    1
    13     9    10    1
    14    10    11    1
    15    11    12    1
    16    12    13    1
    17    13    14    2
    18    14    15    1
    19    14    16    1
    20    16    44    1
    21    45    44    1
    22    45    46    1
    23    46    47    1
    24    47    52    1
    25    52    53    1
    26    47    48    1
    27    48    54    1
    28    55    54    1
    29    55    56    1
    30    56    57    1
    31    57    64    1
    32    64    65    1
    33    57    58    1
    34    58    59    1
    35    58    60    1
    36    60    61    1
    37    60    62    1
    38    48    49    1
    39    49    50    1
    40    49    51    1
    41    16    17    1
    42    17    18    1
    43    17    19    1
    44    19    20    2
    45    20    21    1
    46    21    22    2
    47    22    23    1
    48    23    24    1
    49    25    24    1
    50    25    26    1
    51    26    27    1
    52    26    28    1
    53    28    29    1
    54    28    30    2
    55    31    30    1
    56    31    32    1
    57    32    33    2
    58    32    34    1
    59    31    35    1
    60    35    36    1
    61    11    37    1
    62     6     1    1
    63    34     9    1
    64    37     3    1
    65    51    45    1
    66    35    22    1
    67    62    55    1
    68    35    25    1
    69    59    63    1
    70    27    38    1
    71    36    39    1
@<TRIPOS>MOLECULE
*****
 65 71 0 0 0
SMALL
GASTEIGER

@<TRIPOS>ATOM
      1 C           6.9615   -4.1417   28.8484 C.3     1  UNL1        0.1175
      2 O           6.1515   -2.8928   29.0328 O.3     1  UNL1       -0.3367
      3 C           5.8509   -2.3910   30.4141 C.3     1  UNL1        0.1902
      4 C           6.3603   -3.1381   31.6108 C.3     1  UNL1        0.0564
      5 C           7.1702   -4.3870   31.4264 C.3     1  UNL1        0.0074
      6 C           7.4709   -4.8888   30.0451 C.3     1  UNL1        0.0275
      7 C           8.2809   -6.1378   29.8607 C.3     1  UNL1        0.0025
      8 C           5.5503   -1.8892   31.7953 C.3     1  UNL1        0.0998
      9 C           4.7402   -0.6402   31.9797 C.3     1  UNL1        0.1762
     10 C           4.2309    0.1070   30.7830 C.3     1  UNL1        0.0737
     11 C           4.5315   -0.3948   29.4017 C.3     1  UNL1        0.1255
     12 C           3.9536    0.4494   27.9250 C.3     1  UNL1        0.0552
     13 C           3.2131    1.5666   27.2514 C.2     1  UNL1       -0.0298
     14 C           2.3952    2.8191   27.1420 C.2     1  UNL1       -0.0211
     15 C           2.2747    2.9607   25.6535 C.3     1  UNL1        0.0285
     16 C           1.6243    4.0164   27.6133 C.3     1  UNL1        0.1397
     17 C           1.0178    4.9762   28.5936 C.3     1  UNL1        0.0532
     18 C           0.3370    6.0053   28.0460 C.3     1  UNL1        0.0075
     19 C           0.6680    5.5523   29.9336 C.2     1  UNL1       -0.0237
     20 C           0.6281    5.6570   31.4294 C.2     1  UNL1       -0.0050
     21 C           0.9044    5.2744   32.8532 C.2     1  UNL1       -0.0041
     22 C           1.4546    4.4628   33.9884 C.2     1  UNL1        0.0122
     23 C           0.8931    5.3559   35.0547 C.3     1  UNL1        0.1668
     24 O           1.2866    4.7906   36.3873 O.3     1  UNL1       -0.3462
     25 C           2.0912    3.5482   36.1445 C.3     1  UNL1        0.1749
     26 C           2.4519    3.0359   37.5635 C.3     1  UNL1        0.1582
     27 O           2.1712    3.5074   38.9596 O.3     1  UNL1       -0.3778
     28 C           3.2584    1.7911   37.3401 C.2     1  UNL1       -0.0188
     29 C           3.7844    1.0178   38.5129 C.3     1  UNL1        0.0285
     30 C           3.5390    1.3196   35.9442 C.2     1  UNL1       -0.0188
     31 C           3.0130    2.0930   34.7714 C.3     1  UNL1        0.1510
     32 C           3.7839    0.8957   34.3001 C.2     1  UNL1        0.3232
     33 O           4.2052    0.2868   35.6046 O.2     1  UNL1       -0.2497
     34 O           4.3904   -0.0641   33.3198 O.3     1  UNL1       -0.4517
     35 C           2.1950    3.3456   34.6619 C.3     1  UNL1        0.1467
     36 O           2.7211    2.5722   35.8346 O.3     1  UNL1       -0.3795
     37 O           5.3415   -1.6438   29.2173 O.3     1  UNL1       -0.3362
     38 H           2.5798    2.8986   39.5947 H       1  UNL1        0.2109
     39 H           3.2171    1.8014   35.5173 H       1  UNL1        0.2108
     40 C           7.2621   -4.6435   27.4671 C.3     1  UNL1        0.0273
     41 C           8.2893   -3.9483   26.6236 C.3     1  UNL1        0.0025
     42 C           7.2918   -6.9129   26.2028 C.3     1  UNL1        0.0001
     43 C           6.5356   -5.8405   26.9294 C.3     1  UNL1        0.0024
     44 O           1.2030    4.6252   26.3087 O.3     1  UNL1       -0.3284
     45 C          -0.1065    4.2373   25.6882 C.3     1  UNL1        0.2379
     46 C          -1.3317    4.1056   26.5434 C.3     1  UNL1        0.0934
     47 C          -2.6413    3.7176   25.9229 C.3     1  UNL1        0.1498
     48 C          -2.7253    3.4614   24.4473 C.3     1  UNL1        0.1718
     49 C          -1.5000    3.5931   23.5923 C.3     1  UNL1        0.1473
     50 C          -1.5840    3.3370   22.1167 C.3     1  UNL1        0.0348
     51 O          -0.1905    3.9811   24.2127 O.3     1  UNL1       -0.3304
     52 O          -3.8665    3.5859   26.7780 O.3     1  UNL1       -0.3508
     53 C          -4.7416    4.7792   27.0237 C.3     1  UNL1        0.1741
     54 O          -4.0347    3.0735   23.8269 O.3     1  UNL1       -0.3279
     55 C          -4.9558    4.1316   23.2960 C.3     1  UNL1        0.2377
     56 C          -6.3906    4.1647   23.7323 C.3     1  UNL1        0.0934
     57 C          -7.3117    5.2228   23.2014 C.3     1  UNL1        0.1494
     58 C          -6.7981    6.2479   22.2343 C.3     1  UNL1        0.1647
     59 O          -7.7192    7.3061   21.7034 O.3     1  UNL1       -0.3795
     60 C          -5.3633    6.2149   21.7980 C.3     1  UNL1        0.1469
     61 C          -4.8496    7.2400   20.8309 C.3     1  UNL1        0.0348
     62 O          -4.4422    5.1568   22.3289 O.3     1  UNL1       -0.3304
     63 H          -8.6036    7.1849   22.0830 H       1  UNL1        0.2105
     64 O          -8.7465    5.2559   23.6377 O.3     1  UNL1       -0.3508
     65 C          -9.1114    5.8353   24.9723 C.3     1  UNL1        0.1741
@<TRIPOS>BOND
     1    42    43    1
     2    43    40    1
     3    40    41    1
     4    40     1    1
     5     1     2    1
     6     2     3    1
     7     3     4    1
     8     4     5    1
     9     5     6    1
    10     6     7    1
    11     3     8    1
    12     9     8    1
    13     9    10    1
    14    10    11    1
    15    11    12    1
    16    12    13    1
    17    13    14    2
    18    14    15    1
    19    14    16    1
    20    16    44    1
    21    45    44    1
    22    45    46    1
    23    46    47    1
    24    47    52    1
    25    52    53    1
    26    47    48    1
    27    48    54    1
    28    55    54    1
    29    55    56    1
    30    56    57    1
    31    57    64    1
    32    64    65    1
    33    57    58    1
    34    58    59    1
    35    58    60    1
    36    60    61    1
    37    60    62    1
    38    48    49    1
    39    49    50    1
    40    49    51    1
    41    16    17    1
    42    17    18    1
    43    17    19    1
    44    19    20    2
    45    20    21    1
    46    21    22    2
    47    22    23    1
    48    23    24    1
    49    25    24    1
    50    25    26    1
    51    26    27    1
    52    26    28    1
    53    28    29    1
    54    28    30    2
    55    31    30    1
    56    31    32    1
    57    32    33    2
    58    32    34    1
    59    31    35    1
    60    35    36    1
    61    11    37    1
    62     6     1    1
    63    34     9    1
    64    37     3    1
    65    51    45    1
    66    35    22    1
    67    62    55    1
    68    35    25    1
    69    59    63    1
    70    27    38    1
    71    36    39    1
@<TRIPOS>MOLECULE
*****
 65 71 0 0 0
SMALL
GASTEIGER

@<TRIPOS>ATOM
      1 C           6.8962   -4.0467   29.2278 C.3     1  UNL1        0.1175
      2 O           6.1585   -2.7552   29.4219 O.3     1  UNL1       -0.3367
      3 C           5.8202   -2.2854   30.8056 C.3     1  UNL1        0.1902
      4 C           6.2196   -3.1070   31.9953 C.3     1  UNL1        0.0564
      5 C           6.9573   -4.3985   31.8012 C.3     1  UNL1        0.0074
      6 C           7.2956   -4.8684   30.4174 C.3     1  UNL1        0.0275
      7 C           8.0334   -6.1600   30.2234 C.3     1  UNL1        0.0025
      8 C           5.4818   -1.8155   32.1894 C.3     1  UNL1        0.0998
      9 C           4.7441   -0.5240   32.3835 C.3     1  UNL1        0.1762
     10 C           4.3446    0.2977   31.1938 C.3     1  UNL1        0.0737
     11 C           4.6830   -0.1722   29.8101 C.3     1  UNL1        0.1255
     12 C           4.2356    0.7609   28.3415 C.3     1  UNL1        0.0552
     13 C           3.6026    1.9477   27.6774 C.2     1  UNL1       -0.0298
     14 C           2.8722    3.2539   27.5780 C.2     1  UNL1       -0.0211
     15 C           2.8369    3.4570   26.0922 C.3     1  UNL1        0.0285
     16 C           2.1555    4.4810   28.0582 C.3     1  UNL1        0.1397
     17 C           1.5617    5.4420   29.0450 C.3     1  UNL1        0.0532
     18 C           0.9761    6.5326   28.5061 C.3     1  UNL1        0.0075
     19 C           1.1811    5.9907   30.3883 C.2     1  UNL1       -0.0237
     20 C           1.0718    6.0435   31.8833 C.2     1  UNL1       -0.0050
     21 C           1.2503    5.5923   33.3026 C.2     1  UNL1       -0.0041
     22 C           1.6895    4.7059   34.4302 C.2     1  UNL1        0.0122
     23 C           1.1320    5.5943   35.5025 C.3     1  UNL1        0.1668
     24 O           1.4205    4.9567   36.8292 O.3     1  UNL1       -0.3462
     25 C           2.1563    3.6741   36.5769 C.3     1  UNL1        0.1749
     26 C           2.4110    3.0882   37.9904 C.3     1  UNL1        0.1582
     27 O           2.0900    3.5260   39.3887 O.3     1  UNL1       -0.3778
     28 C           3.1476    1.8025   37.7574 C.2     1  UNL1       -0.0188
     29 C           3.5631    0.9545   38.9229 C.3     1  UNL1        0.0285
     30 C           3.4686    1.3647   36.3592 C.2     1  UNL1       -0.0188
     31 C           3.0530    2.2128   35.1937 C.3     1  UNL1        0.1510
     32 C           3.7697    0.9857   34.7135 C.2     1  UNL1        0.3232
     33 O           4.0846    0.3038   36.0119 O.2     1  UNL1       -0.2497
     34 O           4.3635    0.0247   33.7267 O.3     1  UNL1       -0.4517
     35 C           2.3225    3.5191   35.0943 C.3     1  UNL1        0.1467
     36 O           2.7381    2.6710   36.2597 O.3     1  UNL1       -0.3795
     37 O           5.4207   -1.4637   29.6160 O.3     1  UNL1       -0.3362
     38 H           2.4263    2.8693   40.0184 H       1  UNL1        0.2109
     39 H           3.2000    1.8816   35.9366 H       1  UNL1        0.2108
     40 C           7.2345   -4.5166   27.8440 C.3     1  UNL1        0.0273
     41 C           8.4000   -3.9189   27.1130 C.3     1  UNL1        0.0025
     42 C           7.0770   -6.7100   26.4605 C.3     1  UNL1        0.0001
     43 C           6.4074   -5.5841   27.1913 C.3     1  UNL1        0.0024
     44 O           1.8406    5.1629   26.7598 O.3     1  UNL1       -0.3284
     45 C           0.4323    5.1787   26.2432 C.3     1  UNL1        0.2379
     46 C           0.0238    6.1862   25.2098 C.3     1  UNL1        0.0934
     47 C          -1.3845    6.2019   24.6932 C.3     1  UNL1        0.1498
     48 C          -2.3840    5.2101   25.2102 C.3     1  UNL1        0.1718
     49 C          -1.9754    4.2027   26.2436 C.3     1  UNL1        0.1473
     50 C          -2.9750    3.2109   26.7606 C.3     1  UNL1        0.0348
     51 O          -0.5673    4.1869   26.7602 O.3     1  UNL1       -0.3304
     52 O          -1.7930    7.2094   23.6598 O.3     1  UNL1       -0.3508
     53 C          -1.2405    7.1225   22.2680 C.3     1  UNL1        0.1741
     54 O          -3.7922    5.2258   24.6937 O.3     1  UNL1       -0.3279
     55 C          -4.0901    4.7221   23.3126 C.3     1  UNL1        0.2377
     56 C          -3.1009    3.8445   22.6046 C.3     1  UNL1        0.0934
     57 C          -3.3988    3.3407   21.2236 C.3     1  UNL1        0.1494
     58 C          -4.6861    3.7146   20.5504 C.3     1  UNL1        0.1647
     59 O          -4.9841    3.2109   19.1693 O.3     1  UNL1       -0.3795
     60 C          -5.6753    4.5922   21.2583 C.3     1  UNL1        0.1469
     61 C          -6.9626    4.9661   20.5851 C.3     1  UNL1        0.0348
     62 O          -5.3774    5.0960   22.6394 O.3     1  UNL1       -0.3304
     63 H          -4.2470    2.6618   18.8594 H       1  UNL1        0.2105
     64 O          -2.4096    2.4631   20.5157 O.3     1  UNL1       -0.3508
     65 C          -1.1141    3.0379   20.0244 C.3     1  UNL1        0.1741
@<TRIPOS>BOND
     1    42    43    1
     2    43    40    1
     3    40    41    1
     4    40     1    1
     5     1     2    1
     6     2     3    1
     7     3     4    1
     8     4     5    1
     9     5     6    1
    10     6     7    1
    11     3     8    1
    12     9     8    1
    13     9    10    1
    14    10    11    1
    15    11    12    1
    16    12    13    1
    17    13    14    2
    18    14    15    1
    19    14    16    1
    20    16    44    1
    21    45    44    1
    22    45    46    1
    23    46    47    1
    24    47    52    1
    25    52    53    1
    26    47    48    1
    27    48    54    1
    28    55    54    1
    29    55    56    1
    30    56    57    1
    31    57    64    1
    32    64    65    1
    33    57    58    1
    34    58    59    1
    35    58    60    1
    36    60    61    1
    37    60    62    1
    38    48    49    1
    39    49    50    1
    40    49    51    1
    41    16    17    1
    42    17    18    1
    43    17    19    1
    44    19    20    2
    45    20    21    1
    46    21    22    2
    47    22    23    1
    48    23    24    1
    49    25    24    1
    50    25    26    1
    51    26    27    1
    52    26    28    1
    53    28    29    1
    54    28    30    2
    55    31    30    1
    56    31    32    1
    57    32    33    2
    58    32    34    1
    59    31    35    1
    60    35    36    1
    61    11    37    1
    62     6     1    1
    63    34     9    1
    64    37     3    1
    65    51    45    1
    66    35    22    1
    67    62    55    1
    68    35    25    1
    69    59    63    1
    70    27    38    1
    71    36    39    1
@<TRIPOS>MOLECULE
*****
 65 71 0 0 0
SMALL
GASTEIGER

@<TRIPOS>ATOM
      1 C           3.7884    2.6409   36.7622 C.3     1  UNL1        0.1175
      2 O           3.9236    2.3618   35.2946 O.3     1  UNL1       -0.3367
      3 C           4.5040    1.0594   34.8291 C.3     1  UNL1        0.1902
      4 C           4.9493    0.0359   35.8312 C.3     1  UNL1        0.0564
      5 C           4.8141    0.3150   37.2988 C.3     1  UNL1        0.0074
      6 C           4.2337    1.6174   37.7643 C.3     1  UNL1        0.0275
      7 C           4.0985    1.8964   39.2320 C.3     1  UNL1        0.0025
      8 C           5.0845   -0.2431   34.3637 C.3     1  UNL1        0.0998
      9 C           5.2196   -0.5221   32.8960 C.3     1  UNL1        0.1762
     10 C           4.7744    0.5013   31.8939 C.3     1  UNL1        0.0737
     11 C           4.1939    1.8038   32.3594 C.3     1  UNL1        0.1255
     12 C           3.6407    3.0736   31.2152 C.3     1  UNL1        0.0552
     13 C           3.4241    3.5877   29.8228 C.2     1  UNL1       -0.0298
     14 C           3.4412    3.5759   28.3230 C.2     1  UNL1       -0.0211
     15 C           2.8489    4.9188   28.0132 C.3     1  UNL1        0.0285
     16 C           3.6892    3.0403   26.9440 C.3     1  UNL1        0.1397
     17 C           4.1306    2.0623   25.8959 C.3     1  UNL1        0.0532
     18 C           3.9604    2.4694   24.6201 C.3     1  UNL1        0.0075
     19 C           4.6981    0.7907   25.3382 C.2     1  UNL1       -0.0237
     20 C           5.3053   -0.5808   25.3557 C.2     1  UNL1       -0.0050
     21 C           5.8597   -1.8434   25.9459 C.2     1  UNL1       -0.0041
     22 C           6.2770   -2.8050   27.0189 C.2     1  UNL1        0.0122
     23 C           6.7498   -3.8555   26.0582 C.3     1  UNL1        0.1668
     24 O           7.2586   -5.0187   26.8569 O.3     1  UNL1       -0.3462
     25 C           7.1003   -4.6872   28.3112 C.3     1  UNL1        0.1749
     26 C           7.6465   -5.9339   29.0553 C.3     1  UNL1        0.1582
     27 O           8.2314   -7.2472   28.6272 O.3     1  UNL1       -0.3778
     28 C           7.4958   -5.6198   30.5142 C.2     1  UNL1       -0.0188
     29 C           7.9301   -6.6191   31.5452 C.3     1  UNL1        0.0285
     30 C           6.9109   -4.3066   30.9422 C.2     1  UNL1       -0.0188
     31 C           6.4766   -3.3074   29.9112 C.3     1  UNL1        0.1510
     32 C           6.2285   -2.7717   31.2902 C.2     1  UNL1        0.3232
     33 O           6.7239   -3.9056   32.1380 O.2     1  UNL1       -0.2497
     34 O           5.7871   -1.7937   32.3383 O.3     1  UNL1       -0.4517
     35 C           6.4937   -3.3191   28.4113 C.3     1  UNL1        0.1467
     36 O           6.9280   -4.3182   29.4424 O.3     1  UNL1       -0.3795
     37 O           4.0588    2.0828   33.8269 O.3     1  UNL1       -0.3362
     38 H           8.4573   -7.7715   29.4114 H       1  UNL1        0.2109
     39 H           6.7626   -3.9608   30.3288 H       1  UNL1        0.2108
     40 C           3.2080    3.9433   37.2277 C.3     1  UNL1        0.0273
     41 C           4.1152    5.0790   37.5979 C.3     1  UNL1        0.0025
     42 C           1.0452    5.2423   36.6071 C.3     1  UNL1        0.0001
     43 C           1.7204    4.1101   37.3229 C.3     1  UNL1        0.0024
     44 O           3.1938    4.1742   26.0962 O.3     1  UNL1       -0.3284
     45 C           1.7234    4.3391   25.8491 C.3     1  UNL1        0.2379
     46 C           1.2215    5.5189   25.0707 C.3     1  UNL1        0.0934
     47 C          -0.2489    5.6838   24.8236 C.3     1  UNL1        0.1498
     48 C          -1.2171    4.6689   25.3550 C.3     1  UNL1        0.1718
     49 C          -0.7151    3.4891   26.1334 C.3     1  UNL1        0.1473
     50 C          -1.6833    2.4741   26.6648 C.3     1  UNL1        0.0348
     51 O           0.7552    3.3242   26.3805 O.3     1  UNL1       -0.3304
     52 O          -0.7509    6.8636   24.0451 O.3     1  UNL1       -0.3508
     53 C          -0.4484    6.9796   22.5805 C.3     1  UNL1        0.1741
     54 O          -2.6874    4.8337   25.1079 O.3     1  UNL1       -0.3279
     55 C          -3.2878    4.3659   23.8155 C.3     1  UNL1        0.2377
     56 C          -2.4295    3.6789   22.7949 C.3     1  UNL1        0.0934
     57 C          -3.0299    3.2110   21.5024 C.3     1  UNL1        0.1494
     58 C          -4.4888    3.4301   21.2304 C.3     1  UNL1        0.1647
     59 O          -5.0892    2.9622   19.9380 O.3     1  UNL1       -0.3795
     60 C          -5.3470    4.1170   22.2509 C.3     1  UNL1        0.1469
     61 C          -6.8059    4.3360   21.9790 C.3     1  UNL1        0.0348
     62 O          -4.7466    4.5849   23.5434 O.3     1  UNL1       -0.3304
     63 H          -4.4030    2.5425   19.3959 H       1  UNL1        0.2105
     64 O          -2.1717    2.5241   20.4819 O.3     1  UNL1       -0.3508
     65 C          -0.6839    2.4713   20.6663 C.3     1  UNL1        0.1741
@<TRIPOS>BOND
     1    42    43    1
     2    43    40    1
     3    40    41    1
     4    40     1    1
     5     1     2    1
     6     2     3    1
     7     3     4    1
     8     4     5    1
     9     5     6    1
    10     6     7    1
    11     3     8    1
    12     9     8    1
    13     9    10    1
    14    10    11    1
    15    11    12    1
    16    12    13    1
    17    13    14    2
    18    14    15    1
    19    14    16    1
    20    16    44    1
    21    45    44    1
    22    45    46    1
    23    46    47    1
    24    47    52    1
    25    52    53    1
    26    47    48    1
    27    48    54    1
    28    55    54    1
    29    55    56    1
    30    56    57    1
    31    57    64    1
    32    64    65    1
    33    57    58    1
    34    58    59    1
    35    58    60    1
    36    60    61    1
    37    60    62    1
    38    48    49    1
    39    49    50    1
    40    49    51    1
    41    16    17    1
    42    17    18    1
    43    17    19    1
    44    19    20    2
    45    20    21    1
    46    21    22    2
    47    22    23    1
    48    23    24    1
    49    25    24    1
    50    25    26    1
    51    26    27    1
    52    26    28    1
    53    28    29    1
    54    28    30    2
    55    31    30    1
    56    31    32    1
    57    32    33    2
    58    32    34    1
    59    31    35    1
    60    35    36    1
    61    11    37    1
    62     6     1    1
    63    34     9    1
    64    37     3    1
    65    51    45    1
    66    35    22    1
    67    62    55    1
    68    35    25    1
    69    59    63    1
    70    27    38    1
    71    36    39    1
