@<TRIPOS>MOLECULE
*****
 26 30 0 0 0
SMALL
GASTEIGER

@<TRIPOS>ATOM
      1 O          -5.1660  -14.5856   25.7863 O.2     1  UNL1       -0.2638
      2 C          -5.9529  -15.5343   24.9314 C.2     1  UNL1        0.3160
      3 N          -7.4181  -15.7324   25.1838 N.am    1  UNL1       -0.1720
      4 C          -8.2050  -16.6811   24.3288 C.ar    1  UNL1        0.0776
      5 C          -9.6702  -16.8791   24.5812 C.ar    1  UNL1        0.0198
      6 C         -10.4570  -17.8278   23.7263 C.ar    1  UNL1        0.0359
      7 C          -9.7785  -18.5785   22.6190 C.ar    1  UNL1        0.0032
      8 C          -8.3132  -18.3804   22.3666 C.ar    1  UNL1        0.0052
      9 C          -7.5265  -17.4318   23.2215 C.ar    1  UNL1        0.0623
     10 C          -6.0611  -17.2337   22.9691 C.2     1  UNL1        0.2419
     11 N          -5.1272  -17.8303   21.9583 N.2     1  UNL1       -0.0302
     12 C          -3.7631  -17.2503   22.1886 C.2     1  UNL1        0.3765
     13 N          -3.8541  -16.2953   23.3416 N.2     1  UNL1       -0.0256
     14 C          -5.2744  -16.2850   23.8241 C.2     1  UNL1        0.2907
     15 C          -2.5254  -17.5694   21.4035 C.ar    1  UNL1        0.0989
     16 C          -1.5560  -16.4789   21.0557 C.ar    1  UNL1        0.0085
     17 C          -0.3183  -16.7980   20.2706 C.ar    1  UNL1        0.0003
     18 C          -0.0500  -18.2076   19.8334 C.ar    1  UNL1        0.0009
     19 C          -1.0195  -19.2981   20.1813 C.ar    1  UNL1        0.0116
     20 C          -2.2571  -18.9790   20.9663 C.ar    1  UNL1        0.0651
     21 CL         -3.2266  -20.0695   21.3142 Cl      1  UNL1       -0.0820
     22 C         -11.9223  -18.0259   23.9787 C.ar    1  UNL1        0.1455
     23 C         -13.0374  -17.6270   23.0581 C.ar    1  UNL1        0.0407
     24 C         -14.3340  -18.0122   23.7064 C.ar    1  UNL1        0.0438
     25 C         -14.0203  -18.6492   25.0278 C.ar    1  UNL1        0.1796
     26 O         -12.5298  -18.6576   25.1960 O.2     1  UNL1       -0.4504
@<TRIPOS>BOND
     1     1     2    2
     2     2     3    1
     3     3     4    2
     4     4     5   ar
     5     5     6   ar
     6     6    22    1
     7    22    23   ar
     8    23    24   ar
     9    24    25   ar
    10    25    26   ar
    11     6     7   ar
    12     7     8   ar
    13     8     9   ar
    14     9    10    2
    15    10    11    1
    16    11    12    2
    17    12    15    1
    18    15    16   ar
    19    16    17   ar
    20    17    18   ar
    21    18    19   ar
    22    19    20   ar
    23    20    21    1
    24    12    13    1
    25    13    14    2
    26    14     2    1
    27     9     4   ar
    28    14    10    1
    29    26    22   ar
    30    20    15   ar
@<TRIPOS>MOLECULE
*****
 26 30 0 0 0
SMALL
GASTEIGER

@<TRIPOS>ATOM
      1 O           0.8430    5.5493   17.9055 O.2     1  UNL1       -0.2638
      2 C           0.7433    4.1856   18.5225 C.2     1  UNL1        0.3160
      3 N           1.8071    3.1622   18.2559 N.am    1  UNL1       -0.1720
      4 C           1.7074    1.7986   18.8729 C.ar    1  UNL1        0.0776
      5 C           2.7712    0.7752   18.6063 C.ar    1  UNL1        0.0198
      6 C           2.6715   -0.5884   19.2232 C.ar    1  UNL1        0.0359
      7 C           1.5080   -0.9286   20.1067 C.ar    1  UNL1        0.0032
      8 C           0.4442    0.0947   20.3732 C.ar    1  UNL1        0.0052
      9 C           0.5439    1.4583   19.7563 C.ar    1  UNL1        0.0623
     10 C          -0.5199    2.4817   20.0228 C.2     1  UNL1        0.2419
     11 N          -1.7736    2.4354   20.8449 N.2     1  UNL1       -0.0302
     12 C          -2.4488    3.7704   20.7361 C.2     1  UNL1        0.3765
     13 N          -1.6123    4.6418   19.8467 N.2     1  UNL1       -0.0256
     14 C          -0.4202    3.8453   19.4059 C.2     1  UNL1        0.2907
     15 C          -3.7348    4.1648   21.4001 C.ar    1  UNL1        0.0989
     16 C          -3.7192    4.7274   22.7905 C.ar    1  UNL1        0.0085
     17 C          -5.0052    5.1218   23.4544 C.ar    1  UNL1        0.0003
     18 C          -6.3067    4.9535   22.7279 C.ar    1  UNL1        0.0009
     19 C          -6.3223    4.3909   21.3375 C.ar    1  UNL1        0.0116
     20 C          -5.0363    3.9966   20.6736 C.ar    1  UNL1        0.0651
     21 CL         -5.0519    3.4340   19.2832 Cl      1  UNL1       -0.0820
     22 C           3.7353   -1.6118   18.9567 C.ar    1  UNL1        0.1455
     23 C           3.6497   -3.0755   19.2732 C.ar    1  UNL1        0.0407
     24 C           4.9330   -3.7195   18.8390 C.ar    1  UNL1        0.0438
     25 C           5.8117   -2.6537   18.2541 C.ar    1  UNL1        0.1796
     26 O           5.0715   -1.3511   18.3269 O.2     1  UNL1       -0.4504
@<TRIPOS>BOND
     1     1     2    2
     2     2     3    1
     3     3     4    2
     4     4     5   ar
     5     5     6   ar
     6     6    22    1
     7    22    23   ar
     8    23    24   ar
     9    24    25   ar
    10    25    26   ar
    11     6     7   ar
    12     7     8   ar
    13     8     9   ar
    14     9    10    2
    15    10    11    1
    16    11    12    2
    17    12    15    1
    18    15    16   ar
    19    16    17   ar
    20    17    18   ar
    21    18    19   ar
    22    19    20   ar
    23    20    21    1
    24    12    13    1
    25    13    14    2
    26    14     2    1
    27     9     4   ar
    28    14    10    1
    29    26    22   ar
    30    20    15   ar
@<TRIPOS>MOLECULE
*****
 26 30 0 0 0
SMALL
GASTEIGER

@<TRIPOS>ATOM
      1 O           9.1320   -5.4094   20.8684 O.2     1  UNL1       -0.2638
      2 C           7.9743   -4.6721   21.4735 C.2     1  UNL1        0.3160
      3 N           7.0524   -3.8758   20.5985 N.am    1  UNL1       -0.1720
      4 C           5.8946   -3.1384   21.2036 C.ar    1  UNL1        0.0776
      5 C           4.9727   -2.3421   20.3285 C.ar    1  UNL1        0.0198
      6 C           3.8150   -1.6048   20.9337 C.ar    1  UNL1        0.0359
      7 C           3.5794   -1.6638   22.4139 C.ar    1  UNL1        0.0032
      8 C           4.5014   -2.4601   23.2889 C.ar    1  UNL1        0.0052
      9 C           5.6590   -3.1974   22.6838 C.ar    1  UNL1        0.0623
     10 C           6.5811   -3.9938   23.5589 C.2     1  UNL1        0.2419
     11 N           6.6002   -4.2356   25.0391 N.2     1  UNL1       -0.0302
     12 C           7.7697   -5.1223   25.3488 C.2     1  UNL1        0.3765
     13 N           8.4733   -5.4286   24.0600 N.2     1  UNL1       -0.0256
     14 C           7.7387   -4.7311   22.9537 C.2     1  UNL1        0.2907
     15 C           8.1659   -5.6162   26.7087 C.ar    1  UNL1        0.0989
     16 C           8.6829   -4.6525   27.7353 C.ar    1  UNL1        0.0085
     17 C           9.0791   -5.1463   29.0951 C.ar    1  UNL1        0.0003
     18 C           8.9584   -6.6038   29.4283 C.ar    1  UNL1        0.0009
     19 C           8.4415   -7.5676   28.4016 C.ar    1  UNL1        0.0116
     20 C           8.0453   -7.0737   27.0418 C.ar    1  UNL1        0.0651
     21 CL          7.5283   -8.0374   26.0151 Cl      1  UNL1       -0.0820
     22 C           2.8930   -0.8084   20.0586 C.ar    1  UNL1        0.1455
     23 C           1.4401   -0.5424   20.3201 C.ar    1  UNL1        0.0407
     24 C           0.9112    0.2921   19.1915 C.ar    1  UNL1        0.0438
     25 C           2.0371    0.5419   18.2324 C.ar    1  UNL1        0.1796
     26 O           3.2619   -0.1383   18.7683 O.2     1  UNL1       -0.4504
@<TRIPOS>BOND
     1     1     2    2
     2     2     3    1
     3     3     4    2
     4     4     5   ar
     5     5     6   ar
     6     6    22    1
     7    22    23   ar
     8    23    24   ar
     9    24    25   ar
    10    25    26   ar
    11     6     7   ar
    12     7     8   ar
    13     8     9   ar
    14     9    10    2
    15    10    11    1
    16    11    12    2
    17    12    15    1
    18    15    16   ar
    19    16    17   ar
    20    17    18   ar
    21    18    19   ar
    22    19    20   ar
    23    20    21    1
    24    12    13    1
    25    13    14    2
    26    14     2    1
    27     9     4   ar
    28    14    10    1
    29    26    22   ar
    30    20    15   ar
@<TRIPOS>MOLECULE
*****
 26 30 0 0 0
SMALL
GASTEIGER

@<TRIPOS>ATOM
      1 O          -6.3810  -14.7926   26.2930 O.2     1  UNL1       -0.2638
      2 C          -6.1902  -15.6665   25.0888 C.2     1  UNL1        0.3160
      3 N          -4.8229  -15.8399   24.4970 N.am    1  UNL1       -0.1720
      4 C          -4.6321  -16.7139   23.2929 C.ar    1  UNL1        0.0776
      5 C          -3.2648  -16.8873   22.7011 C.ar    1  UNL1        0.0198
      6 C          -3.0741  -17.7612   21.4970 C.ar    1  UNL1        0.0359
      7 C          -4.2507  -18.4617   20.8847 C.ar    1  UNL1        0.0032
      8 C          -5.6180  -18.2882   21.4765 C.ar    1  UNL1        0.0052
      9 C          -5.8087  -17.4143   22.6806 C.ar    1  UNL1        0.0623
     10 C          -7.1761  -17.2409   23.2724 C.2     1  UNL1        0.2419
     11 N          -8.5140  -17.8003   22.8890 N.2     1  UNL1       -0.0302
     12 C          -9.5317  -17.2722   23.8562 C.2     1  UNL1        0.3765
     13 N          -8.8227  -16.3863   24.8373 N.2     1  UNL1       -0.0256
     14 C          -7.3669  -16.3670   24.4765 C.2     1  UNL1        0.2907
     15 C         -11.0005  -17.5765   23.8444 C.ar    1  UNL1        0.0989
     16 C         -11.5727  -18.5502   24.8315 C.ar    1  UNL1        0.0085
     17 C         -13.0414  -18.8544   24.8196 C.ar    1  UNL1        0.0003
     18 C         -13.9380  -18.1850   23.8206 C.ar    1  UNL1        0.0009
     19 C         -13.3658  -17.2113   22.8335 C.ar    1  UNL1        0.0116
     20 C         -11.8970  -16.9070   22.8454 C.ar    1  UNL1        0.0651
     21 CL        -11.3248  -15.9333   21.8582 Cl      1  UNL1       -0.0820
     22 C          -1.7067  -17.9347   20.9051 C.ar    1  UNL1        0.1455
     23 C          -0.7891  -16.8318   20.4673 C.ar    1  UNL1        0.0407
     24 C           0.4679  -17.4570   19.9388 C.ar    1  UNL1        0.0438
     25 C           0.3271  -18.9463   20.0500 C.ar    1  UNL1        0.1796
     26 O          -1.0169  -19.2415   20.6473 O.2     1  UNL1       -0.4504
@<TRIPOS>BOND
     1     1     2    2
     2     2     3    1
     3     3     4    2
     4     4     5   ar
     5     5     6   ar
     6     6    22    1
     7    22    23   ar
     8    23    24   ar
     9    24    25   ar
    10    25    26   ar
    11     6     7   ar
    12     7     8   ar
    13     8     9   ar
    14     9    10    2
    15    10    11    1
    16    11    12    2
    17    12    15    1
    18    15    16   ar
    19    16    17   ar
    20    17    18   ar
    21    18    19   ar
    22    19    20   ar
    23    20    21    1
    24    12    13    1
    25    13    14    2
    26    14     2    1
    27     9     4   ar
    28    14    10    1
    29    26    22   ar
    30    20    15   ar
@<TRIPOS>MOLECULE
*****
 26 30 0 0 0
SMALL
GASTEIGER

@<TRIPOS>ATOM
      1 O           8.3131   -6.0212   22.6752 O.2     1  UNL1       -0.2638
      2 C           7.3130   -4.9632   23.0368 C.2     1  UNL1        0.3160
      3 N           6.5086   -4.2931   21.9626 N.am    1  UNL1       -0.1720
      4 C           5.5085   -3.2352   22.3242 C.ar    1  UNL1        0.0776
      5 C           4.7041   -2.5651   21.2500 C.ar    1  UNL1        0.0198
      6 C           3.7040   -1.5072   21.6116 C.ar    1  UNL1        0.0359
      7 C           3.5085   -1.1194   23.0474 C.ar    1  UNL1        0.0032
      8 C           4.3129   -1.7895   24.1215 C.ar    1  UNL1        0.0052
      9 C           5.3129   -2.8474   23.7599 C.ar    1  UNL1        0.0623
     10 C           6.1174   -3.5175   24.8341 C.2     1  UNL1        0.2419
     11 N           6.1426   -3.3456   26.3240 N.2     1  UNL1       -0.0302
     12 C           7.1583   -4.2973   26.8832 C.2     1  UNL1        0.3765
     13 N           7.7607   -5.0574   25.7389 N.2     1  UNL1       -0.0256
     14 C           7.1174   -4.5754   24.4725 C.2     1  UNL1        0.2907
     15 C           7.5098   -4.4603   28.3323 C.ar    1  UNL1        0.0989
     16 C           6.6953   -5.3695   29.2040 C.ar    1  UNL1        0.0085
     17 C           7.0468   -5.5324   30.6531 C.ar    1  UNL1        0.0003
     18 C           8.2129   -4.7862   31.2305 C.ar    1  UNL1        0.0009
     19 C           9.0274   -3.8770   30.3588 C.ar    1  UNL1        0.0116
     20 C           8.6759   -3.7140   28.9097 C.ar    1  UNL1        0.0651
     21 CL          9.4905   -2.8048   28.0380 Cl      1  UNL1       -0.0820
     22 C           2.8996   -0.8371   20.5375 C.ar    1  UNL1        0.1455
     23 C           1.4270   -0.5556   20.5847 C.ar    1  UNL1        0.0407
     24 C           1.0438    0.1247   19.3039 C.ar    1  UNL1        0.0438
     25 C           2.2796    0.2637   18.4651 C.ar    1  UNL1        0.1796
     26 O           3.4265   -0.3307   19.2275 O.2     1  UNL1       -0.4504
@<TRIPOS>BOND
     1     1     2    2
     2     2     3    1
     3     3     4    2
     4     4     5   ar
     5     5     6   ar
     6     6    22    1
     7    22    23   ar
     8    23    24   ar
     9    24    25   ar
    10    25    26   ar
    11     6     7   ar
    12     7     8   ar
    13     8     9   ar
    14     9    10    2
    15    10    11    1
    16    11    12    2
    17    12    15    1
    18    15    16   ar
    19    16    17   ar
    20    17    18   ar
    21    18    19   ar
    22    19    20   ar
    23    20    21    1
    24    12    13    1
    25    13    14    2
    26    14     2    1
    27     9     4   ar
    28    14    10    1
    29    26    22   ar
    30    20    15   ar
@<TRIPOS>MOLECULE
*****
 26 30 0 0 0
SMALL
GASTEIGER

@<TRIPOS>ATOM
      1 O           1.0830    3.0528   25.2718 O.2     1  UNL1       -0.2638
      2 C           0.9734    2.3358   23.9587 C.2     1  UNL1        0.3160
      3 N           1.9561    1.2580   23.6085 N.am    1  UNL1       -0.1720
      4 C           1.8465    0.5410   22.2954 C.ar    1  UNL1        0.0776
      5 C           2.8292   -0.5368   21.9452 C.ar    1  UNL1        0.0198
      6 C           2.7196   -1.2537   20.6322 C.ar    1  UNL1        0.0359
      7 C           1.6274   -0.8929   19.6695 C.ar    1  UNL1        0.0032
      8 C           0.6447    0.1849   20.0197 C.ar    1  UNL1        0.0052
      9 C           0.7543    0.9018   21.3327 C.ar    1  UNL1        0.0623
     10 C          -0.2284    1.9797   21.6830 C.2     1  UNL1        0.2419
     11 N          -1.4015    2.5480   20.9410 N.2     1  UNL1       -0.0302
     12 C          -2.0170    3.6163   21.7954 C.2     1  UNL1        0.3765
     13 N          -1.2243    3.7081   23.0655 N.2     1  UNL1       -0.0256
     14 C          -0.1188    2.6966   22.9960 C.2     1  UNL1        0.2907
     15 C          -3.2150    4.4469   21.4418 C.ar    1  UNL1        0.0989
     16 C          -3.0676    5.6221   20.5214 C.ar    1  UNL1        0.0085
     17 C          -4.2656    6.4526   20.1678 C.ar    1  UNL1        0.0003
     18 C          -5.6109    6.1080   20.7346 C.ar    1  UNL1        0.0009
     19 C          -5.7583    4.9328   21.6550 C.ar    1  UNL1        0.0116
     20 C          -4.5603    4.1023   22.0086 C.ar    1  UNL1        0.0651
     21 CL         -4.7077    2.9270   22.9291 Cl      1  UNL1       -0.0820
     22 C           3.7023   -2.3316   20.2818 C.ar    1  UNL1        0.1455
     23 C           3.4656   -3.4642   19.3274 C.ar    1  UNL1        0.0407
     24 C           4.7112   -4.2986   19.2801 C.ar    1  UNL1        0.0438
     25 C           5.7178   -3.6816   20.2055 C.ar    1  UNL1        0.1796
     26 O           5.0942   -2.4660   20.8246 O.2     1  UNL1       -0.4504
@<TRIPOS>BOND
     1     1     2    2
     2     2     3    1
     3     3     4    2
     4     4     5   ar
     5     5     6   ar
     6     6    22    1
     7    22    23   ar
     8    23    24   ar
     9    24    25   ar
    10    25    26   ar
    11     6     7   ar
    12     7     8   ar
    13     8     9   ar
    14     9    10    2
    15    10    11    1
    16    11    12    2
    17    12    15    1
    18    15    16   ar
    19    16    17   ar
    20    17    18   ar
    21    18    19   ar
    22    19    20   ar
    23    20    21    1
    24    12    13    1
    25    13    14    2
    26    14     2    1
    27     9     4   ar
    28    14    10    1
    29    26    22   ar
    30    20    15   ar
@<TRIPOS>MOLECULE
*****
 26 30 0 0 0
SMALL
GASTEIGER

@<TRIPOS>ATOM
      1 O          -0.7556    3.0026   22.6968 O.2     1  UNL1       -0.2638
      2 C           0.3128    1.9911   22.9897 C.2     1  UNL1        0.3160
      3 N           0.8882    1.1647   21.8781 N.am    1  UNL1       -0.1720
      4 C           1.9566    0.1533   22.1710 C.ar    1  UNL1        0.0776
      5 C           2.5321   -0.6731   21.0594 C.ar    1  UNL1        0.0198
      6 C           3.6003   -1.6845   21.3524 C.ar    1  UNL1        0.0359
      7 C           4.0931   -1.8694   22.7570 C.ar    1  UNL1        0.0032
      8 C           3.5176   -1.0430   23.8686 C.ar    1  UNL1        0.0052
      9 C           2.4494   -0.0317   23.5757 C.ar    1  UNL1        0.0623
     10 C           1.8738    0.7948   24.6873 C.2     1  UNL1        0.2419
     11 N           2.1585    0.8345   26.1595 N.2     1  UNL1       -0.0302
     12 C           1.2662    1.8704   26.7764 C.2     1  UNL1        0.3765
     13 N           0.4300    2.4709   25.6855 N.2     1  UNL1       -0.0256
     14 C           0.8055    1.8062   24.3944 C.2     1  UNL1        0.2907
     15 C           1.2185    2.2408   28.2292 C.ar    1  UNL1        0.0989
     16 C           1.9647    3.4454   28.7211 C.ar    1  UNL1        0.0085
     17 C           1.9170    3.8157   30.1738 C.ar    1  UNL1        0.0003
     18 C           1.1229    2.9814   31.1348 C.ar    1  UNL1        0.0009
     19 C           0.3767    1.7767   30.6429 C.ar    1  UNL1        0.0116
     20 C           0.4244    1.4064   29.1902 C.ar    1  UNL1        0.0651
     21 CL         -0.3219    0.2018   28.6983 Cl      1  UNL1       -0.0820
     22 C           4.1759   -2.5110   20.2407 C.ar    1  UNL1        0.1455
     23 C           3.9175   -3.9690   20.0012 C.ar    1  UNL1        0.0407
     24 C           4.6928   -4.3836   18.7859 C.ar    1  UNL1        0.0438
     25 C           5.4303   -3.1818   18.2742 C.ar    1  UNL1        0.1796
     26 O           5.1108   -2.0245   19.1733 O.2     1  UNL1       -0.4504
@<TRIPOS>BOND
     1     1     2    2
     2     2     3    1
     3     3     4    2
     4     4     5   ar
     5     5     6   ar
     6     6    22    1
     7    22    23   ar
     8    23    24   ar
     9    24    25   ar
    10    25    26   ar
    11     6     7   ar
    12     7     8   ar
    13     8     9   ar
    14     9    10    2
    15    10    11    1
    16    11    12    2
    17    12    15    1
    18    15    16   ar
    19    16    17   ar
    20    17    18   ar
    21    18    19   ar
    22    19    20   ar
    23    20    21    1
    24    12    13    1
    25    13    14    2
    26    14     2    1
    27     9     4   ar
    28    14    10    1
    29    26    22   ar
    30    20    15   ar
@<TRIPOS>MOLECULE
*****
 26 30 0 0 0
SMALL
GASTEIGER

@<TRIPOS>ATOM
      1 O          -0.1936    2.8418   17.8428 O.2     1  UNL1       -0.2638
      2 C           0.0060    2.4697   19.2822 C.2     1  UNL1        0.3160
      3 N          -0.7356    3.2074   20.3573 N.am    1  UNL1       -0.1720
      4 C          -0.5360    2.8352   21.7967 C.ar    1  UNL1        0.0776
      5 C          -1.2776    3.5729   22.8719 C.ar    1  UNL1        0.0198
      6 C          -1.0780    3.2007   24.3112 C.ar    1  UNL1        0.0359
      7 C          -0.1368    2.0910   24.6753 C.ar    1  UNL1        0.0032
      8 C           0.6048    1.3534   23.6002 C.ar    1  UNL1        0.0052
      9 C           0.4052    1.7255   22.1609 C.ar    1  UNL1        0.0623
     10 C           1.1468    0.9879   21.0857 C.2     1  UNL1        0.2419
     11 N           2.1325   -0.1415   21.1402 N.2     1  UNL1       -0.0302
     12 C           2.5421   -0.4673   19.7344 C.2     1  UNL1        0.3765
     13 N           1.8096    0.4606   18.8113 N.2     1  UNL1       -0.0256
     14 C           0.9472    1.3600   19.6464 C.2     1  UNL1        0.2907
     15 C           3.5137   -1.5340   19.3240 C.ar    1  UNL1        0.0989
     16 C           3.1505   -2.9806   19.4826 C.ar    1  UNL1        0.0085
     17 C           4.1220   -4.0471   19.0721 C.ar    1  UNL1        0.0003
     18 C           5.4568   -3.6670   18.5031 C.ar    1  UNL1        0.0009
     19 C           5.8201   -2.2203   18.3445 C.ar    1  UNL1        0.0116
     20 C           4.8485   -1.1538   18.7549 C.ar    1  UNL1        0.0651
     21 CL          5.2117    0.2929   18.5964 Cl      1  UNL1       -0.0820
     22 C          -1.8196    3.9384   25.3864 C.ar    1  UNL1        0.1455
     23 C          -3.2760    3.7905   25.7133 C.ar    1  UNL1        0.0407
     24 C          -3.5915    4.7141   26.8524 C.ar    1  UNL1        0.0438
     25 C          -2.3299    5.4328   27.2294 C.ar    1  UNL1        0.1796
     26 O          -1.2349    4.9533   26.3234 O.2     1  UNL1       -0.4504
@<TRIPOS>BOND
     1     1     2    2
     2     2     3    1
     3     3     4    2
     4     4     5   ar
     5     5     6   ar
     6     6    22    1
     7    22    23   ar
     8    23    24   ar
     9    24    25   ar
    10    25    26   ar
    11     6     7   ar
    12     7     8   ar
    13     8     9   ar
    14     9    10    2
    15    10    11    1
    16    11    12    2
    17    12    15    1
    18    15    16   ar
    19    16    17   ar
    20    17    18   ar
    21    18    19   ar
    22    19    20   ar
    23    20    21    1
    24    12    13    1
    25    13    14    2
    26    14     2    1
    27     9     4   ar
    28    14    10    1
    29    26    22   ar
    30    20    15   ar
@<TRIPOS>MOLECULE
*****
 26 30 0 0 0
SMALL
GASTEIGER

@<TRIPOS>ATOM
      1 O           9.4824   -3.5250   19.7470 O.2     1  UNL1       -0.2638
      2 C           8.1920   -3.2536   20.4622 C.2     1  UNL1        0.3160
      3 N           7.1554   -2.3724   19.8307 N.am    1  UNL1       -0.1720
      4 C           5.8651   -2.1010   20.5459 C.ar    1  UNL1        0.0776
      5 C           4.8284   -1.2199   19.9144 C.ar    1  UNL1        0.0198
      6 C           3.5382   -0.9485   20.6296 C.ar    1  UNL1        0.0359
      7 C           3.2846   -1.5583   21.9764 C.ar    1  UNL1        0.0032
      8 C           4.3212   -2.4395   22.6079 C.ar    1  UNL1        0.0052
      9 C           5.6115   -2.7108   21.8927 C.ar    1  UNL1        0.0623
     10 C           6.6482   -3.5921   22.5242 C.2     1  UNL1        0.2419
     11 N           6.6794   -4.3269   23.8315 N.2     1  UNL1       -0.0302
     12 C           7.9890   -5.0524   23.9242 C.2     1  UNL1        0.3765
     13 N           8.7671   -4.7659   22.6742 N.2     1  UNL1       -0.0256
     14 C           7.9384   -3.8634   21.8090 C.2     1  UNL1        0.2907
     15 C           8.4411   -5.9132   25.0665 C.ar    1  UNL1        0.0989
     16 C           8.2517   -7.4000   25.0059 C.ar    1  UNL1        0.0085
     17 C           8.7038   -8.2607   26.1481 C.ar    1  UNL1        0.0003
     18 C           9.3453   -7.6347   27.3509 C.ar    1  UNL1        0.0009
     19 C           9.5347   -6.1480   27.4114 C.ar    1  UNL1        0.0116
     20 C           9.0826   -5.2873   26.2692 C.ar    1  UNL1        0.0651
     21 CL          9.2720   -3.8004   26.3298 Cl      1  UNL1       -0.0820
     22 C           2.5015   -0.0673   19.9981 C.ar    1  UNL1        0.1455
     23 C           2.4147    0.2891   18.5437 C.ar    1  UNL1        0.0407
     24 C           1.2291    1.1888   18.3568 C.ar    1  UNL1        0.0438
     25 C           0.5832    1.3885   19.6959 C.ar    1  UNL1        0.1796
     26 O           1.3696    0.6122   20.7102 O.2     1  UNL1       -0.4504
@<TRIPOS>BOND
     1     1     2    2
     2     2     3    1
     3     3     4    2
     4     4     5   ar
     5     5     6   ar
     6     6    22    1
     7    22    23   ar
     8    23    24   ar
     9    24    25   ar
    10    25    26   ar
    11     6     7   ar
    12     7     8   ar
    13     8     9   ar
    14     9    10    2
    15    10    11    1
    16    11    12    2
    17    12    15    1
    18    15    16   ar
    19    16    17   ar
    20    17    18   ar
    21    18    19   ar
    22    19    20   ar
    23    20    21    1
    24    12    13    1
    25    13    14    2
    26    14     2    1
    27     9     4   ar
    28    14    10    1
    29    26    22   ar
    30    20    15   ar
