@<TRIPOS>MOLECULE
*****
 34 37 0 0 0
SMALL
GASTEIGER

@<TRIPOS>ATOM
      1 C           4.8379   -0.3916   34.5101 C.ar    1  UNL1       -0.0045
      2 C           4.5969   -1.7612   33.9479 C.ar    1  UNL1       -0.0026
      3 C           4.2452   -1.9260   32.4991 C.ar    1  UNL1        0.0029
      4 C           4.1347   -0.7212   31.6124 C.ar    1  UNL1        0.0391
      5 C           4.3757    0.6484   32.1746 C.ar    1  UNL1        0.0029
      6 C           4.7273    0.8132   33.6234 C.ar    1  UNL1       -0.0026
      7 C           3.7830   -0.8860   30.1635 C.ar    1  UNL1        0.2033
      8 N           2.4004   -0.8537   29.5826 N.ar    1  UNL1       -0.0560
      9 O           2.5151   -1.0598   28.1013 O.2     1  UNL1       -0.3370
     10 C           3.9686   -1.2194   27.7667 C.ar    1  UNL1        0.2366
     11 N           4.7522   -1.1120   29.0412 N.ar    1  UNL1       -0.1907
     12 C           4.5384   -1.4466   26.3978 C.3     1  UNL1        0.0880
     13 C           3.8510   -0.8726   25.1946 C.3     1  UNL1        0.0098
     14 C           3.9946   -1.5404   23.8591 C.3     1  UNL1        0.0005
     15 C           3.2776   -0.9875   22.6631 C.3     1  UNL1        0.0000
     16 C           3.4212   -1.6552   21.3277 C.3     1  UNL1        0.0000
     17 C           4.2817   -2.8758   21.1881 C.3     1  UNL1        0.0000
     18 C           4.9986   -3.4287   22.3841 C.3     1  UNL1        0.0000
     19 C           4.8550   -2.7610   23.7196 C.3     1  UNL1        0.0000
     20 C           5.1896   -0.2268   35.9590 C.3     1  UNL1        0.0941
     21 N           4.1027   -0.1330   36.9886 N.am    1  UNL1       -0.3010
     22 C           3.5518    1.2067   37.3776 C.2     1  UNL1        0.2394
     23 O           4.0877    2.4528   36.7371 O.2     1  UNL1       -0.2736
     24 H           3.7510   -0.9508   37.4090 H       1  UNL1        0.1497
     25 C           2.4649    1.3005   38.4072 C.3     1  UNL1        0.1586
     26 N           2.2164    0.3241   39.5184 N.3     1  UNL1       -0.2893
     27 C           1.0337    0.8073   40.3043 C.3     1  UNL1        0.0715
     28 C           0.5512    2.0824   39.6788 C.3     1  UNL1        0.0482
     29 C           1.4357    2.3872   38.5063 C.3     1  UNL1        0.1350
     30 O           1.3127    3.5710   37.5933 O.3     1  UNL1       -0.3825
     31 H           3.0361    0.2721   40.1233 H       1  UNL1        0.1237
     32 H           0.5650    4.1207   37.8756 H       1  UNL1        0.2104
     33 C           7.4320    1.0783   36.0942 C.3     1  UNL1        0.0021
     34 C           6.6280   -0.1558   36.3783 C.3     1  UNL1        0.0241
@<TRIPOS>BOND
     1    33    34    1
     2    20    34    1
     3    20    21    1
     4    21    22   am
     5    22    23    2
     6    25    22    1
     7    25    26    1
     8    26    27    1
     9    27    28    1
    10    28    29    1
    11    29    30    1
    12    20     1    1
    13     1     2   ar
    14     2     3   ar
    15     3     4   ar
    16     4     7    1
    17     7     8   ar
    18     8     9   ar
    19     9    10   ar
    20    10    12    1
    21    12    13    1
    22    13    14    1
    23    14    15    1
    24    15    16    1
    25    16    17    1
    26    17    18    1
    27    18    19    1
    28    10    11   ar
    29     4     5   ar
    30     5     6   ar
    31    29    25    1
    32     6     1   ar
    33    11     7   ar
    34    19    14    1
    35    21    24    1
    36    26    31    1
    37    30    32    1
@<TRIPOS>MOLECULE
*****
 34 37 0 0 0
SMALL
GASTEIGER

@<TRIPOS>ATOM
      1 C           6.8397   -4.7124   29.0155 C.ar    1  UNL1       -0.0045
      2 C           6.9920   -5.9076   28.1221 C.ar    1  UNL1       -0.0026
      3 C           6.9069   -5.7467   26.6332 C.ar    1  UNL1        0.0029
      4 C           6.6695   -4.3905   26.0377 C.ar    1  UNL1        0.0391
      5 C           6.5172   -3.1953   26.9312 C.ar    1  UNL1        0.0029
      6 C           6.6023   -3.3563   28.4200 C.ar    1  UNL1       -0.0026
      7 C           6.5845   -4.2297   24.5488 C.ar    1  UNL1        0.2033
      8 N           7.2719   -5.0879   23.5285 N.ar    1  UNL1       -0.0560
      9 O           6.9094   -4.5710   22.1679 O.2     1  UNL1       -0.3370
     10 C           5.9978   -3.3933   22.3472 C.ar    1  UNL1        0.2366
     11 N           5.7970   -3.1824   23.8187 N.ar    1  UNL1       -0.1907
     12 C           5.3932   -2.5709   21.2480 C.3     1  UNL1        0.0880
     13 C           3.9186   -2.6420   20.9825 C.3     1  UNL1        0.0098
     14 C           3.2654   -1.6201   20.0998 C.3     1  UNL1        0.0005
     15 C           1.9698   -0.9885   20.5152 C.3     1  UNL1        0.0000
     16 C           1.3166    0.0333   19.6326 C.3     1  UNL1        0.0000
     17 C           1.9590    0.4236   18.3345 C.3     1  UNL1        0.0000
     18 C           3.2545   -0.2080   17.9191 C.3     1  UNL1        0.0000
     19 C           3.9078   -1.2299   18.8018 C.3     1  UNL1        0.0000
     20 C           6.9248   -4.8733   30.5045 C.3     1  UNL1        0.0941
     21 N           6.1806   -3.9317   31.4043 N.am    1  UNL1       -0.3010
     22 C           6.9046   -2.7965   32.0654 C.2     1  UNL1        0.2394
     23 O           8.3728   -2.6029   31.8268 O.2     1  UNL1       -0.2736
     24 H           5.2170   -4.0588   31.5609 H       1  UNL1        0.1497
     25 C           6.1604   -1.8549   32.9653 C.3     1  UNL1        0.1586
     26 N           6.6482   -0.5182   33.4397 N.3     1  UNL1       -0.2893
     27 C           5.5871    0.0781   34.3163 C.3     1  UNL1        0.0715
     28 C           4.4434   -0.8901   34.3836 C.3     1  UNL1        0.0482
     29 C           4.7978   -2.0848   33.5486 C.3     1  UNL1        0.1350
     30 O           3.9400   -3.2966   33.3346 O.3     1  UNL1       -0.3825
     31 H           6.8196    0.0915   32.6401 H       1  UNL1        0.1237
     32 H           3.1082   -3.1942   33.8229 H       1  UNL1        0.2104
     33 C           9.2511   -5.8987   31.0400 C.3     1  UNL1        0.0021
     34 C           7.7540   -5.9757   31.0936 C.3     1  UNL1        0.0241
@<TRIPOS>BOND
     1    33    34    1
     2    20    34    1
     3    20    21    1
     4    21    22   am
     5    22    23    2
     6    25    22    1
     7    25    26    1
     8    26    27    1
     9    27    28    1
    10    28    29    1
    11    29    30    1
    12    20     1    1
    13     1     2   ar
    14     2     3   ar
    15     3     4   ar
    16     4     7    1
    17     7     8   ar
    18     8     9   ar
    19     9    10   ar
    20    10    12    1
    21    12    13    1
    22    13    14    1
    23    14    15    1
    24    15    16    1
    25    16    17    1
    26    17    18    1
    27    18    19    1
    28    10    11   ar
    29     4     5   ar
    30     5     6   ar
    31    29    25    1
    32     6     1   ar
    33    11     7   ar
    34    19    14    1
    35    21    24    1
    36    26    31    1
    37    30    32    1
@<TRIPOS>MOLECULE
*****
 34 37 0 0 0
SMALL
GASTEIGER

@<TRIPOS>ATOM
      1 C           7.3876   -5.2880   26.3345 C.ar    1  UNL1       -0.0045
      2 C           6.5613   -4.0865   25.9834 C.ar    1  UNL1       -0.0026
      3 C           6.4183   -3.6674   24.5503 C.ar    1  UNL1        0.0029
      4 C           7.1017   -4.4499   23.4683 C.ar    1  UNL1        0.0391
      5 C           7.9280   -5.6515   23.8194 C.ar    1  UNL1        0.0029
      6 C           8.0710   -6.0705   25.2526 C.ar    1  UNL1       -0.0026
      7 C           6.9587   -4.0308   22.0351 C.ar    1  UNL1        0.2033
      8 N           8.0554   -3.5066   21.1562 N.ar    1  UNL1       -0.0560
      9 O           7.4684   -3.2141   19.8071 O.2     1  UNL1       -0.3370
     10 C           6.0089   -3.5575   19.8523 C.ar    1  UNL1        0.2366
     11 N           5.6939   -4.0622   21.2293 N.ar    1  UNL1       -0.1907
     12 C           5.0354   -3.4203   18.7194 C.3     1  UNL1        0.0880
     13 C           4.7362   -2.0663   18.1475 C.3     1  UNL1        0.0098
     14 C           3.5485   -1.2914   18.6362 C.3     1  UNL1        0.0005
     15 C           2.8659   -1.6899   19.9111 C.3     1  UNL1        0.0000
     16 C           1.6783   -0.9150   20.3998 C.3     1  UNL1        0.0000
     17 C           1.1732    0.2584   19.6138 C.3     1  UNL1        0.0000
     18 C           1.8558    0.6569   18.3389 C.3     1  UNL1        0.0000
     19 C           3.0435   -0.1180   17.8501 C.3     1  UNL1        0.0000
     20 C           7.5306   -5.7072   27.7677 C.3     1  UNL1        0.0941
     21 N           6.7314   -5.0183   28.8339 N.am    1  UNL1       -0.3010
     22 C           7.3357   -3.8865   29.6109 C.2     1  UNL1        0.2394
     23 O           8.7394   -3.4435   29.3217 O.2     1  UNL1       -0.2736
     24 H           5.8102   -5.3091   29.0237 H       1  UNL1        0.1497
     25 C           6.5365   -3.1976   30.6770 C.3     1  UNL1        0.1586
     26 N           5.9630   -1.8141   30.5937 N.3     1  UNL1       -0.2893
     27 C           5.2425   -1.5328   31.8789 C.3     1  UNL1        0.0715
     28 C           5.3706   -2.7424   32.7565 C.3     1  UNL1        0.0482
     29 C           6.1703   -3.7714   32.0137 C.3     1  UNL1        0.1350
     30 O           6.5392   -5.1347   32.5189 O.3     1  UNL1       -0.3825
     31 H           5.3110   -1.7562   29.8115 H       1  UNL1        0.1237
     32 H           6.1794   -5.2571   33.4114 H       1  UNL1        0.2104
     33 C           8.8600   -7.0264   29.5684 C.3     1  UNL1        0.0021
     34 C           8.4728   -6.8151   28.1347 C.3     1  UNL1        0.0241
@<TRIPOS>BOND
     1    33    34    1
     2    20    34    1
     3    20    21    1
     4    21    22   am
     5    22    23    2
     6    25    22    1
     7    25    26    1
     8    26    27    1
     9    27    28    1
    10    28    29    1
    11    29    30    1
    12    20     1    1
    13     1     2   ar
    14     2     3   ar
    15     3     4   ar
    16     4     7    1
    17     7     8   ar
    18     8     9   ar
    19     9    10   ar
    20    10    12    1
    21    12    13    1
    22    13    14    1
    23    14    15    1
    24    15    16    1
    25    16    17    1
    26    17    18    1
    27    18    19    1
    28    10    11   ar
    29     4     5   ar
    30     5     6   ar
    31    29    25    1
    32     6     1   ar
    33    11     7   ar
    34    19    14    1
    35    21    24    1
    36    26    31    1
    37    30    32    1
@<TRIPOS>MOLECULE
*****
 34 37 0 0 0
SMALL
GASTEIGER

@<TRIPOS>ATOM
      1 C           7.4165   -4.8518   24.8107 C.ar    1  UNL1       -0.0045
      2 C           8.0778   -6.0130   24.1292 C.ar    1  UNL1       -0.0026
      3 C           8.1994   -7.3289   24.8387 C.ar    1  UNL1        0.0029
      4 C           7.6597   -7.4838   26.2296 C.ar    1  UNL1        0.0391
      5 C           6.9985   -6.3226   26.9111 C.ar    1  UNL1        0.0029
      6 C           6.8769   -5.0067   26.2017 C.ar    1  UNL1       -0.0026
      7 C           7.7813   -8.7998   26.9391 C.ar    1  UNL1        0.2033
      8 N           9.0535   -9.4179   27.4387 N.ar    1  UNL1       -0.0560
      9 O           8.7106  -10.7289   28.0819 O.2     1  UNL1       -0.3370
     10 C           7.2264  -10.9210   27.9798 C.ar    1  UNL1        0.2366
     11 N           6.6522   -9.7288   27.2735 N.ar    1  UNL1       -0.1907
     12 C           6.4525  -12.0987   28.4938 C.3     1  UNL1        0.0880
     13 C           5.4817  -12.8076   27.5966 C.3     1  UNL1        0.0098
     14 C           4.1109  -13.1526   28.0985 C.3     1  UNL1        0.0005
     15 C           3.5127  -12.3805   29.2370 C.3     1  UNL1        0.0000
     16 C           2.1420  -12.7255   29.7389 C.3     1  UNL1        0.0000
     17 C           1.3694  -13.8425   29.1024 C.3     1  UNL1        0.0000
     18 C           1.9675  -14.6146   27.9639 C.3     1  UNL1        0.0000
     19 C           3.3383  -14.2696   27.4620 C.3     1  UNL1        0.0000
     20 C           7.2949   -3.5358   24.1012 C.3     1  UNL1        0.0941
     21 N           6.1170   -3.2694   23.2115 N.am    1  UNL1       -0.3010
     22 C           6.1849   -3.6153   21.7536 C.2     1  UNL1        0.2394
     23 O           7.4309   -4.2275   21.1852 O.2     1  UNL1       -0.2736
     24 H           5.2993   -2.8676   23.5845 H       1  UNL1        0.1497
     25 C           5.0070   -3.3489   20.8639 C.3     1  UNL1        0.1586
     26 N           4.1174   -2.1423   20.9164 N.3     1  UNL1       -0.2893
     27 C           3.0724   -2.2901   19.8504 C.3     1  UNL1        0.0715
     28 C           3.3162   -3.5880   19.1391 C.3     1  UNL1        0.0482
     29 C           4.5119   -4.2424   19.7654 C.3     1  UNL1        0.1350
     30 O           5.1077   -5.5590   19.3638 O.3     1  UNL1       -0.3825
     31 H           4.6668   -1.2996   20.7481 H       1  UNL1        0.1237
     32 H           4.5991   -5.9329   18.6273 H       1  UNL1        0.2104
     33 C           9.5355   -2.7572   25.1614 C.3     1  UNL1        0.0021
     34 C           8.3512   -2.4862   24.2815 C.3     1  UNL1        0.0241
@<TRIPOS>BOND
     1    33    34    1
     2    20    34    1
     3    20    21    1
     4    21    22   am
     5    22    23    2
     6    25    22    1
     7    25    26    1
     8    26    27    1
     9    27    28    1
    10    28    29    1
    11    29    30    1
    12    20     1    1
    13     1     2   ar
    14     2     3   ar
    15     3     4   ar
    16     4     7    1
    17     7     8   ar
    18     8     9   ar
    19     9    10   ar
    20    10    12    1
    21    12    13    1
    22    13    14    1
    23    14    15    1
    24    15    16    1
    25    16    17    1
    26    17    18    1
    27    18    19    1
    28    10    11   ar
    29     4     5   ar
    30     5     6   ar
    31    29    25    1
    32     6     1   ar
    33    11     7   ar
    34    19    14    1
    35    21    24    1
    36    26    31    1
    37    30    32    1
@<TRIPOS>MOLECULE
*****
 34 37 0 0 0
SMALL
GASTEIGER

@<TRIPOS>ATOM
      1 C           5.3224   -0.0276   34.0567 C.ar    1  UNL1       -0.0045
      2 C           6.6719   -0.1858   33.4212 C.ar    1  UNL1       -0.0026
      3 C           7.0228   -1.4610   32.7137 C.ar    1  UNL1        0.0029
      4 C           6.0243   -2.5781   32.6418 C.ar    1  UNL1        0.0391
      5 C           4.6749   -2.4199   33.2773 C.ar    1  UNL1        0.0029
      6 C           4.3239   -1.1447   33.9848 C.ar    1  UNL1       -0.0026
      7 C           6.3753   -3.8534   31.9343 C.ar    1  UNL1        0.2033
      8 N           6.4943   -5.2084   32.5665 N.ar    1  UNL1       -0.0560
      9 O           6.8615   -6.1900   31.4934 O.2     1  UNL1       -0.3370
     10 C           6.9694   -5.4416   30.1978 C.ar    1  UNL1        0.2366
     11 N           6.6689   -3.9975   30.4704 N.ar    1  UNL1       -0.1907
     12 C           7.3168   -6.0334   28.8640 C.3     1  UNL1        0.0880
     13 C           6.7618   -5.4296   27.6081 C.3     1  UNL1        0.0098
     14 C           7.2925   -5.8575   26.2720 C.3     1  UNL1        0.0005
     15 C           7.9209   -7.2102   26.1129 C.3     1  UNL1        0.0000
     16 C           8.4516   -7.6382   24.7769 C.3     1  UNL1        0.0000
     17 C           8.3541   -6.7134   23.5999 C.3     1  UNL1        0.0000
     18 C           7.7258   -5.3607   23.7590 C.3     1  UNL1        0.0000
     19 C           7.1950   -4.9327   25.0951 C.3     1  UNL1        0.0000
     20 C           4.9714    1.2477   34.7642 C.3     1  UNL1        0.0941
     21 N           3.7828    1.2957   35.6780 N.am    1  UNL1       -0.3010
     22 C           3.9755    1.2215   37.1637 C.2     1  UNL1        0.2394
     23 O           5.3568    1.0991   37.7357 O.2     1  UNL1       -0.2736
     24 H           2.8763    1.3760   35.3026 H       1  UNL1        0.1497
     25 C           2.7870    1.2695   38.0775 C.3     1  UNL1        0.1586
     26 N           2.2674    0.1342   38.9088 N.3     1  UNL1       -0.2893
     27 C           1.0686    0.6243   39.6655 C.3     1  UNL1        0.0715
     28 C           0.8472    2.0626   39.3019 C.3     1  UNL1        0.0482
     29 C           1.9092    2.4614   38.3204 C.3     1  UNL1        0.1350
     30 O           2.0659    3.8144   37.6923 O.3     1  UNL1       -0.3825
     31 H           2.9872   -0.1739   39.5625 H       1  UNL1        0.1237
     32 H           1.3688    4.4049   38.0182 H       1  UNL1        0.2104
     33 C           5.1501    3.8044   34.3380 C.3     1  UNL1        0.0021
     34 C           5.8090    2.4748   34.5580 C.3     1  UNL1        0.0241
@<TRIPOS>BOND
     1    33    34    1
     2    20    34    1
     3    20    21    1
     4    21    22   am
     5    22    23    2
     6    25    22    1
     7    25    26    1
     8    26    27    1
     9    27    28    1
    10    28    29    1
    11    29    30    1
    12    20     1    1
    13     1     2   ar
    14     2     3   ar
    15     3     4   ar
    16     4     7    1
    17     7     8   ar
    18     8     9   ar
    19     9    10   ar
    20    10    12    1
    21    12    13    1
    22    13    14    1
    23    14    15    1
    24    15    16    1
    25    16    17    1
    26    17    18    1
    27    18    19    1
    28    10    11   ar
    29     4     5   ar
    30     5     6   ar
    31    29    25    1
    32     6     1   ar
    33    11     7   ar
    34    19    14    1
    35    21    24    1
    36    26    31    1
    37    30    32    1
@<TRIPOS>MOLECULE
*****
 34 37 0 0 0
SMALL
GASTEIGER

@<TRIPOS>ATOM
      1 C           3.6579   -1.4421   19.7926 C.ar    1  UNL1       -0.0045
      2 C           2.6149   -1.3369   20.8654 C.ar    1  UNL1       -0.0026
      3 C           1.5428   -0.2923   20.7691 C.ar    1  UNL1        0.0029
      4 C           1.5136    0.6470   19.6000 C.ar    1  UNL1        0.0391
      5 C           2.5566    0.5417   18.5271 C.ar    1  UNL1        0.0029
      6 C           3.6288   -0.5029   18.6235 C.ar    1  UNL1       -0.0026
      7 C           0.4413    1.6916   19.5037 C.ar    1  UNL1        0.2033
      8 N           0.1572    2.5561   18.3113 N.ar    1  UNL1       -0.0560
      9 O          -0.9947    3.4538   18.6535 O.2     1  UNL1       -0.3370
     10 C          -1.4225    3.1441   20.0575 C.ar    1  UNL1        0.2366
     11 N          -0.5350    2.0550   20.5829 N.ar    1  UNL1       -0.1907
     12 C          -2.5414    3.8072   20.8048 C.3     1  UNL1        0.0880
     13 C          -3.8493    3.0950   20.9839 C.3     1  UNL1        0.0098
     14 C          -4.7904    3.5173   22.0729 C.3     1  UNL1        0.0005
     15 C          -6.1370    4.0787   21.7246 C.3     1  UNL1        0.0000
     16 C          -7.0780    4.5010   22.8136 C.3     1  UNL1        0.0000
     17 C          -6.6724    4.3621   24.2510 C.3     1  UNL1        0.0000
     18 C          -5.3257    3.8007   24.5993 C.3     1  UNL1        0.0000
     19 C          -4.3847    3.3784   23.5103 C.3     1  UNL1        0.0000
     20 C           4.7302   -2.4867   19.8889 C.3     1  UNL1        0.0941
     21 N           5.5284   -2.6280   21.1510 N.am    1  UNL1       -0.3010
     22 C           5.1432   -3.6583   22.1707 C.2     1  UNL1        0.2394
     23 O           3.9596   -4.5475   21.9284 O.2     1  UNL1       -0.2736
     24 H           6.3052   -2.0444   21.3100 H       1  UNL1        0.1497
     25 C           5.9415   -3.7995   23.4328 C.3     1  UNL1        0.1586
     26 N           5.6506   -3.1244   24.7403 N.3     1  UNL1       -0.2893
     27 C           6.7001   -3.5483   25.7245 C.3     1  UNL1        0.0715
     28 C           7.6397   -4.4855   25.0253 C.3     1  UNL1        0.0482
     29 C           7.1708   -4.6407   23.6090 C.3     1  UNL1        0.1350
     30 O           7.8178   -5.4884   22.5540 O.3     1  UNL1       -0.3825
     31 H           4.7285   -3.4029   25.0760 H       1  UNL1        0.1237
     32 H           8.5971   -5.9296   22.9267 H       1  UNL1        0.2104
     33 C           4.3936   -4.7594   18.6757 C.3     1  UNL1        0.0021
     34 C           5.0041   -3.3900   18.7231 C.3     1  UNL1        0.0241
@<TRIPOS>BOND
     1    33    34    1
     2    20    34    1
     3    20    21    1
     4    21    22   am
     5    22    23    2
     6    25    22    1
     7    25    26    1
     8    26    27    1
     9    27    28    1
    10    28    29    1
    11    29    30    1
    12    20     1    1
    13     1     2   ar
    14     2     3   ar
    15     3     4   ar
    16     4     7    1
    17     7     8   ar
    18     8     9   ar
    19     9    10   ar
    20    10    12    1
    21    12    13    1
    22    13    14    1
    23    14    15    1
    24    15    16    1
    25    16    17    1
    26    17    18    1
    27    18    19    1
    28    10    11   ar
    29     4     5   ar
    30     5     6   ar
    31    29    25    1
    32     6     1   ar
    33    11     7   ar
    34    19    14    1
    35    21    24    1
    36    26    31    1
    37    30    32    1
@<TRIPOS>MOLECULE
*****
 34 37 0 0 0
SMALL
GASTEIGER

@<TRIPOS>ATOM
      1 C           7.9061   -5.1835   25.3893 C.ar    1  UNL1       -0.0045
      2 C           8.7082   -5.4573   24.1518 C.ar    1  UNL1       -0.0026
      3 C           8.2506   -4.9215   22.8276 C.ar    1  UNL1        0.0029
      4 C           6.9909   -4.1119   22.7410 C.ar    1  UNL1        0.0391
      5 C           6.1887   -3.8380   23.9785 C.ar    1  UNL1        0.0029
      6 C           6.6463   -4.3738   25.3027 C.ar    1  UNL1       -0.0026
      7 C           6.5333   -3.5761   21.4167 C.ar    1  UNL1        0.2033
      8 N           6.1442   -4.3944   20.2213 N.ar    1  UNL1       -0.0560
      9 O           5.7549   -3.4521   19.1212 O.2     1  UNL1       -0.3370
     10 C           5.9033   -2.0512   19.6367 C.ar    1  UNL1        0.2366
     11 N           6.3844   -2.1279   21.0554 N.ar    1  UNL1       -0.1907
     12 C           5.6203   -0.7944   18.8684 C.3     1  UNL1        0.0880
     13 C           4.3769   -0.6879   18.0362 C.3     1  UNL1        0.0098
     14 C           3.0803   -0.2844   18.6734 C.3     1  UNL1        0.0005
     15 C           2.4079    0.9919   18.2624 C.3     1  UNL1        0.0000
     16 C           1.1114    1.3955   18.8995 C.3     1  UNL1        0.0000
     17 C           0.4872    0.5228   19.9477 C.3     1  UNL1        0.0000
     18 C           1.1595   -0.7535   20.3587 C.3     1  UNL1        0.0000
     19 C           2.4561   -1.1571   19.7216 C.3     1  UNL1        0.0000
     20 C           8.3637   -5.7193   26.7136 C.3     1  UNL1        0.0941
     21 N           8.2861   -4.8573   27.9387 N.am    1  UNL1       -0.3010
     22 C           7.0490   -4.8689   28.7869 C.2     1  UNL1        0.2394
     23 O           5.8894   -5.7426   28.4099 O.2     1  UNL1       -0.2736
     24 H           9.0472   -4.2838   28.1861 H       1  UNL1        0.1497
     25 C           6.9714   -4.0069   30.0120 C.3     1  UNL1        0.1586
     26 N           7.1299   -2.5159   30.0524 N.3     1  UNL1       -0.2893
     27 C           6.9782   -2.0720   31.4772 C.3     1  UNL1        0.0715
     28 C           6.7260   -3.2888   32.3173 C.3     1  UNL1        0.0482
     29 C           6.7218   -4.4846   31.4118 C.3     1  UNL1        0.1350
     30 O           6.5059   -5.9082   31.8323 O.3     1  UNL1       -0.3825
     31 H           6.4136   -2.0759   29.4747 H       1  UNL1        0.1237
     32 H           6.3669   -5.9444   32.7916 H       1  UNL1        0.2104
     33 C           8.0023   -8.2854   26.5273 C.3     1  UNL1        0.0021
     34 C           8.8988   -7.1170   26.8127 C.3     1  UNL1        0.0241
@<TRIPOS>BOND
     1    33    34    1
     2    20    34    1
     3    20    21    1
     4    21    22   am
     5    22    23    2
     6    25    22    1
     7    25    26    1
     8    26    27    1
     9    27    28    1
    10    28    29    1
    11    29    30    1
    12    20     1    1
    13     1     2   ar
    14     2     3   ar
    15     3     4   ar
    16     4     7    1
    17     7     8   ar
    18     8     9   ar
    19     9    10   ar
    20    10    12    1
    21    12    13    1
    22    13    14    1
    23    14    15    1
    24    15    16    1
    25    16    17    1
    26    17    18    1
    27    18    19    1
    28    10    11   ar
    29     4     5   ar
    30     5     6   ar
    31    29    25    1
    32     6     1   ar
    33    11     7   ar
    34    19    14    1
    35    21    24    1
    36    26    31    1
    37    30    32    1
@<TRIPOS>MOLECULE
*****
 34 37 0 0 0
SMALL
GASTEIGER

@<TRIPOS>ATOM
      1 C           3.8177   -1.9771   20.5227 C.ar    1  UNL1       -0.0045
      2 C           2.9876   -1.4004   19.4145 C.ar    1  UNL1       -0.0026
      3 C           1.9381   -0.3732   19.7202 C.ar    1  UNL1        0.0029
      4 C           1.7188    0.0772   21.1341 C.ar    1  UNL1        0.0391
      5 C           2.5489   -0.4996   22.2423 C.ar    1  UNL1        0.0029
      6 C           3.5984   -1.5268   21.9366 C.ar    1  UNL1       -0.0026
      7 C           0.6692    1.1044   21.4398 C.ar    1  UNL1        0.2033
      8 N          -0.4793    1.4826   20.5521 N.ar    1  UNL1       -0.0560
      9 O          -1.2744    2.5456   21.2504 O.2     1  UNL1       -0.3370
     10 C          -0.6173    2.8244   22.5697 C.ar    1  UNL1        0.2366
     11 N           0.5839    1.9337   22.6867 N.ar    1  UNL1       -0.1907
     12 C          -1.0802    3.8193   23.5925 C.3     1  UNL1        0.0880
     13 C          -2.0719    3.4108   24.6411 C.3     1  UNL1        0.0098
     14 C          -3.5308    3.7003   24.4469 C.3     1  UNL1        0.0005
     15 C          -4.3510    4.2197   25.5904 C.3     1  UNL1        0.0000
     16 C          -5.8099    4.5092   25.3963 C.3     1  UNL1        0.0000
     17 C          -6.4487    4.2793   24.0587 C.3     1  UNL1        0.0000
     18 C          -5.6285    3.7598   22.9153 C.3     1  UNL1        0.0000
     19 C          -4.1695    3.4703   23.1094 C.3     1  UNL1        0.0000
     20 C           4.8673   -3.0044   20.2171 C.3     1  UNL1        0.0941
     21 N           5.3431   -3.9338   21.2940 N.am    1  UNL1       -0.3010
     22 C           6.4735   -3.5256   22.1915 C.2     1  UNL1        0.2394
     23 O           7.1281   -2.1879   22.0121 O.2     1  UNL1       -0.2736
     24 H           4.9135   -4.8118   21.4117 H       1  UNL1        0.1497
     25 C           6.9493   -4.4551   23.2684 C.3     1  UNL1        0.1586
     26 N           7.8011   -5.6734   23.0686 N.3     1  UNL1       -0.2893
     27 C           8.0352   -6.3007   24.4109 C.3     1  UNL1        0.0715
     28 C           7.3279   -5.4700   25.4403 C.3     1  UNL1        0.0482
     29 C           6.6569   -4.3294   24.7342 C.3     1  UNL1        0.1350
     30 O           5.8372   -3.2521   25.3805 O.3     1  UNL1       -0.3825
     31 H           8.6928   -5.4076   22.6505 H       1  UNL1        0.1237
     32 H           5.8032   -3.4023   26.3382 H       1  UNL1        0.2104
     33 C           6.7071   -2.3731   18.4947 C.3     1  UNL1        0.0021
     34 C           5.4409   -3.1021   18.8346 C.3     1  UNL1        0.0241
@<TRIPOS>BOND
     1    33    34    1
     2    20    34    1
     3    20    21    1
     4    21    22   am
     5    22    23    2
     6    25    22    1
     7    25    26    1
     8    26    27    1
     9    27    28    1
    10    28    29    1
    11    29    30    1
    12    20     1    1
    13     1     2   ar
    14     2     3   ar
    15     3     4   ar
    16     4     7    1
    17     7     8   ar
    18     8     9   ar
    19     9    10   ar
    20    10    12    1
    21    12    13    1
    22    13    14    1
    23    14    15    1
    24    15    16    1
    25    16    17    1
    26    17    18    1
    27    18    19    1
    28    10    11   ar
    29     4     5   ar
    30     5     6   ar
    31    29    25    1
    32     6     1   ar
    33    11     7   ar
    34    19    14    1
    35    21    24    1
    36    26    31    1
    37    30    32    1
@<TRIPOS>MOLECULE
*****
 34 37 0 0 0
SMALL
GASTEIGER

@<TRIPOS>ATOM
      1 C           5.4217   -3.2429   20.9649 C.ar    1  UNL1       -0.0045
      2 C           4.7279   -3.0707   22.2835 C.ar    1  UNL1       -0.0026
      3 C           5.3970   -3.5226   23.5476 C.ar    1  UNL1        0.0029
      4 C           6.7599   -4.1467   23.4931 C.ar    1  UNL1        0.0391
      5 C           7.4537   -4.3189   22.1744 C.ar    1  UNL1        0.0029
      6 C           6.7846   -3.8670   20.9103 C.ar    1  UNL1       -0.0026
      7 C           7.4290   -4.5986   24.7573 C.ar    1  UNL1        0.2033
      8 N           8.9069   -4.7428   24.9697 N.ar    1  UNL1       -0.0560
      9 O           9.1290   -5.2189   26.3747 O.2     1  UNL1       -0.3370
     10 C           7.7884   -5.3691   27.0305 C.ar    1  UNL1        0.2366
     11 N           6.7377   -4.9858   26.0309 N.ar    1  UNL1       -0.1907
     12 C           7.5417   -5.8230   28.4388 C.3     1  UNL1        0.0880
     13 C           8.0903   -5.0316   29.5888 C.3     1  UNL1        0.0098
     14 C           7.2241   -4.0265   30.2886 C.3     1  UNL1        0.0005
     15 C           6.8501   -4.2307   31.7267 C.3     1  UNL1        0.0000
     16 C           5.9839   -3.2258   32.4264 C.3     1  UNL1        0.0000
     17 C           5.4918   -2.0164   31.6880 C.3     1  UNL1        0.0000
     18 C           5.8658   -1.8122   30.2498 C.3     1  UNL1        0.0000
     19 C           6.7320   -2.8172   29.5501 C.3     1  UNL1        0.0000
     20 C           4.7526   -2.7910   19.7007 C.3     1  UNL1        0.0941
     21 N           4.9851   -1.4020   19.1842 N.am    1  UNL1       -0.3010
     22 C           5.9472   -1.1725   18.0566 C.2     1  UNL1        0.2394
     23 O           6.6769   -2.3319   17.4453 O.2     1  UNL1       -0.2736
     24 H           4.5063   -0.6411   19.5853 H       1  UNL1        0.1497
     25 C           6.1798    0.2165   17.5401 C.3     1  UNL1        0.1586
     26 N           7.2938    0.6442   16.6313 N.3     1  UNL1       -0.2893
     27 C           7.1417    2.1137   16.3713 C.3     1  UNL1        0.0715
     28 C           5.9336    2.5941   17.1194 C.3     1  UNL1        0.0482
     29 C           5.3392    1.4216   17.8418 C.3     1  UNL1        0.1350
     30 O           4.1184    1.4494   18.7129 O.3     1  UNL1       -0.3825
     31 H           7.2402    0.1298   15.7521 H       1  UNL1        0.1237
     32 H           3.7625    2.3513   18.7422 H       1  UNL1        0.2104
     33 C           3.5397   -5.0815   19.5199 C.3     1  UNL1        0.0021
     34 C           3.8510   -3.7280   18.9530 C.3     1  UNL1        0.0241
@<TRIPOS>BOND
     1    33    34    1
     2    20    34    1
     3    20    21    1
     4    21    22   am
     5    22    23    2
     6    25    22    1
     7    25    26    1
     8    26    27    1
     9    27    28    1
    10    28    29    1
    11    29    30    1
    12    20     1    1
    13     1     2   ar
    14     2     3   ar
    15     3     4   ar
    16     4     7    1
    17     7     8   ar
    18     8     9   ar
    19     9    10   ar
    20    10    12    1
    21    12    13    1
    22    13    14    1
    23    14    15    1
    24    15    16    1
    25    16    17    1
    26    17    18    1
    27    18    19    1
    28    10    11   ar
    29     4     5   ar
    30     5     6   ar
    31    29    25    1
    32     6     1   ar
    33    11     7   ar
    34    19    14    1
    35    21    24    1
    36    26    31    1
    37    30    32    1
