@<TRIPOS>MOLECULE
*****
 28 31 0 0 0
SMALL
GASTEIGER

@<TRIPOS>ATOM
      1 C          -3.9377  -18.9043   19.7108 C.ar    1  UNL1        0.2409
      2 N          -3.5574  -20.3004   19.3154 N.ar    1  UNL1       -0.1111
      3 N          -4.5116  -21.2470   19.9812 N.ar    1  UNL1       -0.1271
      4 C          -5.4817  -20.4360   20.7882 C.ar    1  UNL1        0.1712
      5 C          -6.6422  -20.8289   21.6535 C.ar    1  UNL1        0.0383
      6 C          -7.4480  -19.7739   22.3518 C.ar    1  UNL1        0.0217
      7 C          -7.0933  -18.3261   22.1848 C.ar    1  UNL1       -0.0052
      8 C          -5.9328  -17.9332   21.3194 C.ar    1  UNL1        0.0796
      9 N          -5.1270  -18.9882   20.6211 N.ar    1  UNL1       -0.2600
     10 C          -7.8992  -17.2710   22.8831 C.3     1  UNL1        0.0236
     11 C          -8.5342  -16.7359   24.1323 C.3     1  UNL1        0.0047
     12 C          -8.6598  -15.9789   22.8435 C.3     1  UNL1        0.0047
     13 N          -3.2496  -17.6455   19.2729 N.pl3   1  UNL1       -0.1872
     14 H          -3.7126  -17.0131   18.6771 H       1  UNL1        0.1764
     15 C          -0.4625  -17.0547   20.2127 C.3     1  UNL1        0.1997
     16 S          -1.8561  -17.3501   19.7428 S.O2    1  UNL1        0.0580
     17 O          -1.3018  -18.0285   18.5252 O.2     1  UNL1       -0.1544
     18 O          -2.4104  -16.6718   20.9604 O.2     1  UNL1       -0.1544
     19 C          -8.6086  -20.1668   23.2173 C.3     1  UNL1        0.2318
     20 O          -9.9493  -20.4313   22.5991 O.3     1  UNL1       -0.4706
     21 C         -10.9162  -19.3030   22.3934 C.ar    1  UNL1        0.1407
     22 C         -11.9729  -19.0241   23.4207 C.ar    1  UNL1        0.0483
     23 C         -12.9398  -17.8958   23.2150 C.ar    1  UNL1        0.0615
     24 CL        -13.9965  -17.6170   24.2423 Cl      1  UNL1       -0.0821
     25 C         -12.8498  -17.0465   21.9819 C.ar    1  UNL1        0.0230
     26 C         -11.7930  -17.3255   20.9545 C.ar    1  UNL1        0.0615
     27 CL        -11.7030  -16.4762   19.7214 Cl      1  UNL1       -0.0821
     28 C         -10.8262  -18.4537   21.1603 C.ar    1  UNL1        0.0483
@<TRIPOS>BOND
     1    15    16    1
     2    16    17    2
     3    16    18    2
     4    16    13    1
     5    13     1    1
     6     1     2   ar
     7     2     3   ar
     8     3     4   ar
     9     4     5   ar
    10     5     6   ar
    11     6    19    1
    12    19    20    1
    13    20    21    1
    14    21    22   ar
    15    22    23   ar
    16    23    24    1
    17    23    25   ar
    18    25    26   ar
    19    26    27    1
    20    26    28   ar
    21     6     7   ar
    22     7    10    1
    23    10    11    1
    24    11    12    1
    25     7     8   ar
    26     8     9   ar
    27     9     1   ar
    28     9     4   ar
    29    28    21   ar
    30    12    10    1
    31    13    14    1
@<TRIPOS>MOLECULE
*****
 28 31 0 0 0
SMALL
GASTEIGER

@<TRIPOS>ATOM
      1 C          -3.5991  -19.9992   20.7114 C.ar    1  UNL1        0.2409
      2 N          -4.3964  -20.9440   19.8619 N.ar    1  UNL1       -0.1111
      3 N          -5.8506  -20.7024   20.1394 N.ar    1  UNL1       -0.1271
      4 C          -5.9520  -19.6082   21.1604 C.ar    1  UNL1        0.1712
      5 C          -7.1317  -18.9513   21.8139 C.ar    1  UNL1        0.0383
      6 C          -6.9198  -17.8600   22.8208 C.ar    1  UNL1        0.0217
      7 C          -5.5284  -17.4255   23.1744 C.ar    1  UNL1       -0.0052
      8 C          -4.3487  -18.0823   22.5209 C.ar    1  UNL1        0.0796
      9 N          -4.5605  -19.1736   21.5139 N.ar    1  UNL1       -0.2600
     10 C          -5.3166  -16.3340   24.1814 C.3     1  UNL1        0.0236
     11 C          -5.0848  -15.9015   25.5989 C.3     1  UNL1        0.0047
     12 C          -5.1816  -14.8764   24.5081 C.3     1  UNL1        0.0047
     13 N          -2.1031  -19.8978   20.7514 N.pl3   1  UNL1       -0.1872
     14 H          -1.5632  -20.6809   21.0054 H       1  UNL1        0.1764
     15 C          -0.7560  -17.3086   20.0574 C.3     1  UNL1        0.1997
     16 S          -1.4295  -18.6033   20.4044 S.O2    1  UNL1        0.0580
     17 O          -0.9742  -18.4591   21.8264 O.2     1  UNL1       -0.1544
     18 O          -1.8849  -18.7475   18.9825 O.2     1  UNL1       -0.1544
     19 C          -8.0996  -17.2032   23.4743 C.3     1  UNL1        0.2318
     20 O          -9.2780  -18.0287   23.8982 O.3     1  UNL1       -0.4706
     21 C         -10.6232  -17.7890   23.2794 C.ar    1  UNL1        0.1407
     22 C         -10.7226  -17.1634   21.9198 C.ar    1  UNL1        0.0483
     23 C         -12.0679  -16.9238   21.3009 C.ar    1  UNL1        0.0615
     24 CL        -12.1672  -16.2982   19.9413 Cl      1  UNL1       -0.0821
     25 C         -13.3137  -17.3098   22.0418 C.ar    1  UNL1        0.0230
     26 C         -13.2143  -17.9354   23.4014 C.ar    1  UNL1        0.0615
     27 CL        -14.4601  -18.3215   24.1423 Cl      1  UNL1       -0.0821
     28 C         -11.8690  -18.1750   24.0202 C.ar    1  UNL1        0.0483
@<TRIPOS>BOND
     1    15    16    1
     2    16    17    2
     3    16    18    2
     4    16    13    1
     5    13     1    1
     6     1     2   ar
     7     2     3   ar
     8     3     4   ar
     9     4     5   ar
    10     5     6   ar
    11     6    19    1
    12    19    20    1
    13    20    21    1
    14    21    22   ar
    15    22    23   ar
    16    23    24    1
    17    23    25   ar
    18    25    26   ar
    19    26    27    1
    20    26    28   ar
    21     6     7   ar
    22     7    10    1
    23    10    11    1
    24    11    12    1
    25     7     8   ar
    26     8     9   ar
    27     9     1   ar
    28     9     4   ar
    29    28    21   ar
    30    12    10    1
    31    13    14    1
@<TRIPOS>MOLECULE
*****
 28 31 0 0 0
SMALL
GASTEIGER

@<TRIPOS>ATOM
      1 C          -9.7562  -17.0369   22.1419 C.ar    1  UNL1        0.2409
      2 N          -8.8808  -16.5133   23.2417 N.ar    1  UNL1       -0.1111
      3 N          -7.5735  -17.2463   23.1824 N.ar    1  UNL1       -0.1271
      4 C          -7.6408  -18.2229   22.0459 C.ar    1  UNL1        0.1712
      5 C          -6.6481  -19.2134   21.5135 C.ar    1  UNL1        0.0383
      6 C          -7.0044  -20.0744   20.3381 C.ar    1  UNL1        0.0217
      7 C          -8.3533  -19.9451   19.6951 C.ar    1  UNL1       -0.0052
      8 C          -9.3461  -18.9546   20.2275 C.ar    1  UNL1        0.0796
      9 N          -8.9898  -18.0935   21.4029 N.ar    1  UNL1       -0.2600
     10 C          -8.7095  -20.8062   18.5196 C.3     1  UNL1        0.0236
     11 C          -9.2552  -20.9455   17.1293 C.3     1  UNL1        0.0047
     12 C          -8.7809  -22.1581   17.8740 C.3     1  UNL1        0.0047
     13 N         -11.1527  -16.5835   21.8351 N.pl3   1  UNL1       -0.1872
     14 H         -11.8399  -16.5944   22.5400 H       1  UNL1        0.1764
     15 C         -11.8518  -15.6435   19.0732 C.3     1  UNL1        0.1997
     16 S         -11.5023  -16.1136   20.4542 S.O2    1  UNL1        0.0580
     17 O         -10.2585  -15.2756   20.4245 O.2     1  UNL1       -0.1544
     18 O         -12.7460  -16.9515   20.4839 O.2     1  UNL1       -0.1544
     19 C          -6.0115  -21.0649   19.8057 C.3     1  UNL1        0.2318
     20 O          -4.6616  -21.1923   20.4470 O.3     1  UNL1       -0.4706
     21 C          -3.7499  -20.0033   20.5186 C.ar    1  UNL1        0.1407
     22 C          -3.2414  -19.3711   19.2570 C.ar    1  UNL1        0.0483
     23 C          -2.3297  -18.1820   19.3286 C.ar    1  UNL1        0.0615
     24 CL         -1.8212  -17.5498   18.0670 Cl      1  UNL1       -0.0821
     25 C          -1.9267  -17.6252   20.6619 C.ar    1  UNL1        0.0230
     26 C          -2.4353  -18.2575   21.9235 C.ar    1  UNL1        0.0615
     27 CL         -2.0322  -17.7007   23.2567 Cl      1  UNL1       -0.0821
     28 C          -3.3469  -19.4465   21.8518 C.ar    1  UNL1        0.0483
@<TRIPOS>BOND
     1    15    16    1
     2    16    17    2
     3    16    18    2
     4    16    13    1
     5    13     1    1
     6     1     2   ar
     7     2     3   ar
     8     3     4   ar
     9     4     5   ar
    10     5     6   ar
    11     6    19    1
    12    19    20    1
    13    20    21    1
    14    21    22   ar
    15    22    23   ar
    16    23    24    1
    17    23    25   ar
    18    25    26   ar
    19    26    27    1
    20    26    28   ar
    21     6     7   ar
    22     7    10    1
    23    10    11    1
    24    11    12    1
    25     7     8   ar
    26     8     9   ar
    27     9     1   ar
    28     9     4   ar
    29    28    21   ar
    30    12    10    1
    31    13    14    1
@<TRIPOS>MOLECULE
*****
 28 31 0 0 0
SMALL
GASTEIGER

@<TRIPOS>ATOM
      1 C          -3.9746  -19.9540   20.8782 C.ar    1  UNL1        0.2409
      2 N          -4.8687  -20.7907   20.0119 N.ar    1  UNL1       -0.1111
      3 N          -6.2901  -20.4339   20.3317 N.ar    1  UNL1       -0.1271
      4 C          -6.2745  -19.3767   21.3957 C.ar    1  UNL1        0.1712
      5 C          -7.3785  -18.6458   22.1006 C.ar    1  UNL1        0.0383
      6 C          -7.0514  -17.6183   23.1433 C.ar    1  UNL1        0.0217
      7 C          -5.6205  -17.3217   23.4810 C.ar    1  UNL1       -0.0052
      8 C          -4.5164  -18.0526   22.7761 C.ar    1  UNL1        0.0796
      9 N          -4.8434  -19.0801   21.7334 N.ar    1  UNL1       -0.2600
     10 C          -5.2934  -16.2941   24.5238 C.3     1  UNL1        0.0236
     11 C          -4.7067  -15.9380   25.8576 C.3     1  UNL1        0.0047
     12 C          -5.3136  -14.8706   24.9960 C.3     1  UNL1        0.0047
     13 N          -2.4749  -19.9857   20.8877 N.pl3   1  UNL1       -0.1872
     14 H          -2.0016  -20.8203   21.1079 H       1  UNL1        0.1764
     15 C          -0.9181  -17.5055   20.2355 C.3     1  UNL1        0.1997
     16 S          -1.6965  -18.7456   20.5616 S.O2    1  UNL1        0.0580
     17 O          -2.2781  -18.7443   19.1789 O.2     1  UNL1       -0.1544
     18 O          -1.1151  -18.7471   21.9443 O.2     1  UNL1       -0.1544
     19 C          -8.1555  -16.8874   23.8482 C.3     1  UNL1        0.2318
     20 O          -8.9471  -15.8418   23.1202 O.3     1  UNL1       -0.4706
     21 C         -10.2580  -16.2002   22.4853 C.ar    1  UNL1        0.1407
     22 C         -11.2942  -16.9452   23.2734 C.ar    1  UNL1        0.0483
     23 C         -12.6051  -17.3037   22.6385 C.ar    1  UNL1        0.0615
     24 CL        -13.6413  -18.0487   23.4267 Cl      1  UNL1       -0.0821
     25 C         -12.8797  -16.9171   21.2154 C.ar    1  UNL1        0.0230
     26 C         -11.8435  -16.1720   20.4273 C.ar    1  UNL1        0.0615
     27 CL        -12.1181  -15.7854   19.0043 Cl      1  UNL1       -0.0821
     28 C         -10.5326  -15.8136   21.0623 C.ar    1  UNL1        0.0483
@<TRIPOS>BOND
     1    15    16    1
     2    16    17    2
     3    16    18    2
     4    16    13    1
     5    13     1    1
     6     1     2   ar
     7     2     3   ar
     8     3     4   ar
     9     4     5   ar
    10     5     6   ar
    11     6    19    1
    12    19    20    1
    13    20    21    1
    14    21    22   ar
    15    22    23   ar
    16    23    24    1
    17    23    25   ar
    18    25    26   ar
    19    26    27    1
    20    26    28   ar
    21     6     7   ar
    22     7    10    1
    23    10    11    1
    24    11    12    1
    25     7     8   ar
    26     8     9   ar
    27     9     1   ar
    28     9     4   ar
    29    28    21   ar
    30    12    10    1
    31    13    14    1
@<TRIPOS>MOLECULE
*****
 28 31 0 0 0
SMALL
GASTEIGER

@<TRIPOS>ATOM
      1 C         -10.8057  -17.5888   21.9551 C.ar    1  UNL1        0.2409
      2 N         -10.4083  -18.1709   20.6310 N.ar    1  UNL1       -0.1111
      3 N          -8.9107  -18.1555   20.5485 N.ar    1  UNL1       -0.1271
      4 C          -8.3824  -17.5639   21.8217 C.ar    1  UNL1        0.1712
      5 C          -6.9863  -17.2989   22.3018 C.ar    1  UNL1        0.0383
      6 C          -6.7613  -16.6836   23.6511 C.ar    1  UNL1        0.0217
      7 C          -7.9324  -16.3333   24.5204 C.ar    1  UNL1       -0.0052
      8 C          -9.3287  -16.5984   24.0403 C.ar    1  UNL1        0.0796
      9 N          -9.5536  -17.2137   22.6910 N.ar    1  UNL1       -0.2600
     10 C          -7.7074  -15.7180   25.8698 C.3     1  UNL1        0.0236
     11 C          -6.7737  -15.1740   26.9101 C.3     1  UNL1        0.0047
     12 C          -8.2514  -15.1963   27.1666 C.3     1  UNL1        0.0047
     13 N         -12.2088  -17.4127   22.4554 N.pl3   1  UNL1       -0.1872
     14 H         -12.8337  -16.8252   21.9721 H       1  UNL1        0.1764
     15 C         -13.1108  -18.8509   24.9290 C.3     1  UNL1        0.1997
     16 S         -12.6598  -18.1318   23.6922 S.O2    1  UNL1        0.0580
     17 O         -11.5770  -19.1509   23.4945 O.2     1  UNL1       -0.1544
     18 O         -13.7426  -17.1127   23.8898 O.2     1  UNL1       -0.1544
     19 C          -5.3651  -16.4185   24.1312 C.3     1  UNL1        0.2318
     20 O          -4.3434  -17.5164   24.1093 O.3     1  UNL1       -0.4706
     21 C          -3.6937  -17.9107   22.8160 C.ar    1  UNL1        0.1407
     22 C          -4.1612  -19.1336   22.0840 C.ar    1  UNL1        0.0483
     23 C          -3.5115  -19.5279   20.7907 C.ar    1  UNL1        0.0615
     24 CL         -3.9792  -20.7507   20.0588 Cl      1  UNL1       -0.0821
     25 C          -2.3942  -18.6992   20.2295 C.ar    1  UNL1        0.0230
     26 C          -1.9266  -17.4763   20.9616 C.ar    1  UNL1        0.0615
     27 CL         -0.8093  -16.6476   20.4004 Cl      1  UNL1       -0.0821
     28 C          -2.5764  -17.0821   22.2548 C.ar    1  UNL1        0.0483
@<TRIPOS>BOND
     1    15    16    1
     2    16    17    2
     3    16    18    2
     4    16    13    1
     5    13     1    1
     6     1     2   ar
     7     2     3   ar
     8     3     4   ar
     9     4     5   ar
    10     5     6   ar
    11     6    19    1
    12    19    20    1
    13    20    21    1
    14    21    22   ar
    15    22    23   ar
    16    23    24    1
    17    23    25   ar
    18    25    26   ar
    19    26    27    1
    20    26    28   ar
    21     6     7   ar
    22     7    10    1
    23    10    11    1
    24    11    12    1
    25     7     8   ar
    26     8     9   ar
    27     9     1   ar
    28     9     4   ar
    29    28    21   ar
    30    12    10    1
    31    13    14    1
@<TRIPOS>MOLECULE
*****
 28 31 0 0 0
SMALL
GASTEIGER

@<TRIPOS>ATOM
      1 C         -10.3828  -18.7707   21.3516 C.ar    1  UNL1        0.2409
      2 N          -9.7937  -19.2781   20.0688 N.ar    1  UNL1       -0.1111
      3 N          -8.3280  -18.9589   20.0736 N.ar    1  UNL1       -0.1271
      4 C          -8.0113  -18.2542   21.3593 C.ar    1  UNL1        0.1712
      5 C          -6.7307  -17.7034   21.9130 C.ar    1  UNL1        0.0383
      6 C          -6.7199  -17.0363   23.2564 C.ar    1  UNL1        0.0217
      7 C          -7.9897  -16.9200   24.0462 C.ar    1  UNL1       -0.0052
      8 C          -9.2705  -17.4708   23.4926 C.ar    1  UNL1        0.0796
      9 N          -9.2812  -18.1379   22.1491 N.ar    1  UNL1       -0.2600
     10 C          -7.9790  -16.2529   25.3897 C.3     1  UNL1        0.0236
     11 C          -8.3805  -16.2358   26.8349 C.3     1  UNL1        0.0047
     12 C          -7.5589  -15.1145   26.2714 C.3     1  UNL1        0.0047
     13 N         -11.8209  -18.8774   21.7643 N.pl3   1  UNL1       -0.1872
     14 H         -12.2816  -19.7465   21.7235 H       1  UNL1        0.1764
     15 C         -13.2936  -16.4423   22.7140 C.3     1  UNL1        0.1997
     16 S         -12.5573  -17.6599   22.2391 S.O2    1  UNL1        0.0580
     17 O         -12.5676  -18.2103   23.6345 O.2     1  UNL1       -0.1544
     18 O         -12.5469  -17.1095   20.8438 O.2     1  UNL1       -0.1544
     19 C          -5.4392  -16.4855   23.8100 C.3     1  UNL1        0.2318
     20 O          -4.2316  -17.3676   23.9263 O.3     1  UNL1       -0.4706
     21 C          -3.5303  -17.8460   22.6896 C.ar    1  UNL1        0.1407
     22 C          -2.3878  -17.0568   22.1225 C.ar    1  UNL1        0.0483
     23 C          -1.6865  -17.5351   20.8858 C.ar    1  UNL1        0.0615
     24 CL         -0.5440  -16.7458   20.3187 Cl      1  UNL1       -0.0821
     25 C          -2.1277  -18.8028   20.2163 C.ar    1  UNL1        0.0230
     26 C          -3.2703  -19.5921   20.7835 C.ar    1  UNL1        0.0615
     27 CL         -3.7115  -20.8598   20.1140 Cl      1  UNL1       -0.0821
     28 C          -3.9715  -19.1137   22.0201 C.ar    1  UNL1        0.0483
@<TRIPOS>BOND
     1    15    16    1
     2    16    17    2
     3    16    18    2
     4    16    13    1
     5    13     1    1
     6     1     2   ar
     7     2     3   ar
     8     3     4   ar
     9     4     5   ar
    10     5     6   ar
    11     6    19    1
    12    19    20    1
    13    20    21    1
    14    21    22   ar
    15    22    23   ar
    16    23    24    1
    17    23    25   ar
    18    25    26   ar
    19    26    27    1
    20    26    28   ar
    21     6     7   ar
    22     7    10    1
    23    10    11    1
    24    11    12    1
    25     7     8   ar
    26     8     9   ar
    27     9     1   ar
    28     9     4   ar
    29    28    21   ar
    30    12    10    1
    31    13    14    1
@<TRIPOS>MOLECULE
*****
 28 31 0 0 0
SMALL
GASTEIGER

@<TRIPOS>ATOM
      1 C          -4.2152  -18.6311   21.5474 C.ar    1  UNL1        0.2409
      2 N          -4.9584  -19.1573   20.3554 N.ar    1  UNL1       -0.1111
      3 N          -6.3821  -18.6958   20.4559 N.ar    1  UNL1       -0.1271
      4 C          -6.5188  -17.8844   21.7100 C.ar    1  UNL1        0.1712
      5 C          -7.6898  -17.1767   22.3249 C.ar    1  UNL1        0.0383
      6 C          -7.5216  -16.4291   23.6144 C.ar    1  UNL1        0.0217
      7 C          -6.1825  -16.3892   24.2890 C.ar    1  UNL1       -0.0052
      8 C          -5.0115  -17.0969   23.6741 C.ar    1  UNL1        0.0796
      9 N          -5.1797  -17.8444   22.3846 N.ar    1  UNL1       -0.2600
     10 C          -6.0143  -15.6416   25.5786 C.3     1  UNL1        0.0236
     11 C          -5.3068  -14.5996   26.3933 C.3     1  UNL1        0.0047
     12 C          -6.4304  -15.3887   26.9973 C.3     1  UNL1        0.0047
     13 N          -2.7627  -18.8528   21.8493 N.pl3   1  UNL1       -0.1872
     14 H          -2.4988  -19.3937   22.6284 H       1  UNL1        0.1764
     15 C          -0.6619  -17.6478   20.0788 C.3     1  UNL1        0.1997
     16 S          -1.7123  -18.2504   20.9641 S.O2    1  UNL1        0.0580
     17 O          -2.1431  -16.8773   21.3874 O.2     1  UNL1       -0.1544
     18 O          -1.2816  -19.6234   20.5407 O.2     1  UNL1       -0.1544
     19 C          -8.6926  -15.7215   24.2293 C.3     1  UNL1        0.2318
     20 O         -10.0634  -16.3239   24.1417 O.3     1  UNL1       -0.4706
     21 C         -10.5500  -16.8954   22.8430 C.ar    1  UNL1        0.1407
     22 C         -10.9474  -15.9803   21.7230 C.ar    1  UNL1        0.0483
     23 C         -11.4340  -16.5518   20.4242 C.ar    1  UNL1        0.0615
     24 CL        -11.8314  -15.6366   19.3042 Cl      1  UNL1       -0.0821
     25 C         -11.5231  -18.0384   20.2456 C.ar    1  UNL1        0.0230
     26 C         -11.1256  -18.9536   21.3656 C.ar    1  UNL1        0.0615
     27 CL        -11.2147  -20.4402   21.1870 Cl      1  UNL1       -0.0821
     28 C         -10.6391  -18.3821   22.6643 C.ar    1  UNL1        0.0483
@<TRIPOS>BOND
     1    15    16    1
     2    16    17    2
     3    16    18    2
     4    16    13    1
     5    13     1    1
     6     1     2   ar
     7     2     3   ar
     8     3     4   ar
     9     4     5   ar
    10     5     6   ar
    11     6    19    1
    12    19    20    1
    13    20    21    1
    14    21    22   ar
    15    22    23   ar
    16    23    24    1
    17    23    25   ar
    18    25    26   ar
    19    26    27    1
    20    26    28   ar
    21     6     7   ar
    22     7    10    1
    23    10    11    1
    24    11    12    1
    25     7     8   ar
    26     8     9   ar
    27     9     1   ar
    28     9     4   ar
    29    28    21   ar
    30    12    10    1
    31    13    14    1
@<TRIPOS>MOLECULE
*****
 28 31 0 0 0
SMALL
GASTEIGER

@<TRIPOS>ATOM
      1 C          -3.0808  -18.9282   21.4339 C.ar    1  UNL1        0.2409
      2 N          -3.6186  -19.9027   20.4284 N.ar    1  UNL1       -0.1111
      3 N          -5.1148  -19.9005   20.5350 N.ar    1  UNL1       -0.1271
      4 C          -5.5017  -18.9245   21.6063 C.ar    1  UNL1        0.1712
      5 C          -6.8363  -18.5054   22.1477 C.ar    1  UNL1        0.0383
      6 C          -6.9138  -17.4853   23.2447 C.ar    1  UNL1        0.0217
      7 C          -5.6568  -16.8844   23.8002 C.ar    1  UNL1       -0.0052
      8 C          -4.3221  -17.3035   23.2588 C.ar    1  UNL1        0.0796
      9 N          -4.2446  -18.3236   22.1618 N.ar    1  UNL1       -0.2600
     10 C          -5.7344  -15.8642   24.8973 C.3     1  UNL1        0.0236
     11 C          -5.0567  -14.8962   25.8212 C.3     1  UNL1        0.0047
     12 C          -6.5462  -15.0655   25.8733 C.3     1  UNL1        0.0047
     13 N          -1.6333  -18.6134   21.6700 N.pl3   1  UNL1       -0.1872
     14 H          -1.1784  -18.9603   22.4712 H       1  UNL1        0.1764
     15 C          -0.1244  -16.9267   19.7006 C.3     1  UNL1        0.1997
     16 S          -0.8789  -17.7701   20.6853 S.O2    1  UNL1        0.0580
     17 O          -1.4523  -16.5312   21.3070 O.2     1  UNL1       -0.1544
     18 O          -0.3055  -19.0089   20.0636 O.2     1  UNL1       -0.1544
     19 C          -8.2485  -17.0661   23.7861 C.3     1  UNL1        0.2318
     20 O          -9.4678  -17.8901   23.4961 O.3     1  UNL1       -0.4706
     21 C         -10.0306  -17.9334   22.1062 C.ar    1  UNL1        0.1407
     22 C          -9.7117  -19.0882   21.2036 C.ar    1  UNL1        0.0483
     23 C         -10.2745  -19.1315   19.8138 C.ar    1  UNL1        0.0615
     24 CL         -9.9555  -20.2863   18.9113 Cl      1  UNL1       -0.0821
     25 C         -11.1562  -18.0201   19.3268 C.ar    1  UNL1        0.0230
     26 C         -11.4751  -16.8653   20.2294 C.ar    1  UNL1        0.0615
     27 CL        -12.3568  -15.7538   19.7424 Cl      1  UNL1       -0.0821
     28 C         -10.9123  -16.8220   21.6192 C.ar    1  UNL1        0.0483
@<TRIPOS>BOND
     1    15    16    1
     2    16    17    2
     3    16    18    2
     4    16    13    1
     5    13     1    1
     6     1     2   ar
     7     2     3   ar
     8     3     4   ar
     9     4     5   ar
    10     5     6   ar
    11     6    19    1
    12    19    20    1
    13    20    21    1
    14    21    22   ar
    15    22    23   ar
    16    23    24    1
    17    23    25   ar
    18    25    26   ar
    19    26    27    1
    20    26    28   ar
    21     6     7   ar
    22     7    10    1
    23    10    11    1
    24    11    12    1
    25     7     8   ar
    26     8     9   ar
    27     9     1   ar
    28     9     4   ar
    29    28    21   ar
    30    12    10    1
    31    13    14    1
@<TRIPOS>MOLECULE
*****
 28 31 0 0 0
SMALL
GASTEIGER

@<TRIPOS>ATOM
      1 C          -4.7950  -19.2902   21.0896 C.ar    1  UNL1        0.2409
      2 N          -5.7349  -19.6796   19.9873 N.ar    1  UNL1       -0.1111
      3 N          -7.0071  -18.9059   20.1680 N.ar    1  UNL1       -0.1271
      4 C          -6.8536  -18.0383   21.3820 C.ar    1  UNL1        0.1712
      5 C          -7.7821  -17.0627   22.0423 C.ar    1  UNL1        0.0383
      6 C          -7.3434  -16.3246   23.2723 C.ar    1  UNL1        0.0217
      7 C          -5.9763  -16.5621   23.8418 C.ar    1  UNL1       -0.0052
      8 C          -5.0477  -17.5378   23.1815 C.ar    1  UNL1        0.0796
      9 N          -5.4864  -18.2759   21.9515 N.ar    1  UNL1       -0.2600
     10 C          -5.5376  -15.8240   25.0719 C.3     1  UNL1        0.0236
     11 C          -4.6978  -14.7637   25.7203 C.3     1  UNL1        0.0047
     12 C          -5.6175  -15.6060   26.5537 C.3     1  UNL1        0.0047
     13 N          -3.4074  -19.8219   21.2941 N.pl3   1  UNL1       -0.1872
     14 H          -3.2692  -20.6560   21.7986 H       1  UNL1        0.1764
     15 C          -1.0532  -18.3437   20.1658 C.3     1  UNL1        0.1997
     16 S          -2.2303  -19.0828   20.7299 S.O2    1  UNL1        0.0580
     17 O          -1.6355  -18.9818   22.1033 O.2     1  UNL1       -0.1544
     18 O          -2.8251  -19.1838   19.3566 O.2     1  UNL1       -0.1544
     19 C          -8.2719  -15.3490   23.9326 C.3     1  UNL1        0.2318
     20 O          -9.5275  -15.8372   24.5921 O.3     1  UNL1       -0.4706
     21 C         -10.1953  -17.0874   24.1011 C.ar    1  UNL1        0.1407
     22 C          -9.7788  -18.4225   24.6432 C.ar    1  UNL1        0.0483
     23 C         -10.4466  -19.6728   24.1522 C.ar    1  UNL1        0.0615
     24 CL        -10.0301  -21.0079   24.6943 Cl      1  UNL1       -0.0821
     25 C         -11.5308  -19.5878   23.1191 C.ar    1  UNL1        0.0230
     26 C         -11.9473  -18.2526   22.5771 C.ar    1  UNL1        0.0615
     27 CL        -13.0315  -18.1676   21.5440 Cl      1  UNL1       -0.0821
     28 C         -11.2795  -17.0024   23.0681 C.ar    1  UNL1        0.0483
@<TRIPOS>BOND
     1    15    16    1
     2    16    17    2
     3    16    18    2
     4    16    13    1
     5    13     1    1
     6     1     2   ar
     7     2     3   ar
     8     3     4   ar
     9     4     5   ar
    10     5     6   ar
    11     6    19    1
    12    19    20    1
    13    20    21    1
    14    21    22   ar
    15    22    23   ar
    16    23    24    1
    17    23    25   ar
    18    25    26   ar
    19    26    27    1
    20    26    28   ar
    21     6     7   ar
    22     7    10    1
    23    10    11    1
    24    11    12    1
    25     7     8   ar
    26     8     9   ar
    27     9     1   ar
    28     9     4   ar
    29    28    21   ar
    30    12    10    1
    31    13    14    1
