@<TRIPOS>MOLECULE
*****
 44 45 0 0 0
SMALL
GASTEIGER

@<TRIPOS>ATOM
      1 O          -6.2188  -16.5287   23.1006 O.3     1  UNL1        0.0000
      2 P          -7.4556  -16.1483   22.3419 P.3     1  UNL1        0.0000
      3 O          -7.1907  -14.7014   22.6356 O.2     1  UNL1        0.0000
      4 O          -8.6924  -15.7679   21.5832 O.3     1  UNL1        0.0000
      5 H          -8.7975  -14.8037   21.5988 H       1  UNL1        0.0000
      6 C          -7.7204  -17.5952   22.0482 C.3     1  UNL1        0.0000
      7 O          -7.0421  -18.2615   20.8880 O.3     1  UNL1        0.0000
      8 C          -6.5536  -20.7208   20.2074 C.3     1  UNL1        0.0000
      9 C          -6.2870  -19.5410   21.0946 C.3     1  UNL1        0.0000
     10 C          -5.2652  -19.6407   22.1883 C.3     1  UNL1        0.0000
     11 N          -3.9637  -18.9048   22.0682 N.ar    1  UNL1        0.0000
     12 C          -3.1962  -18.2811   23.1959 C.ar    1  UNL1        0.0000
     13 N          -1.9593  -17.6543   22.6239 N.ar    1  UNL1        0.0000
     14 C          -1.9624  -17.8906   21.1426 C.ar    1  UNL1        0.0000
     15 C          -0.9973  -17.5018   20.0622 C.ar    1  UNL1        0.0000
     16 N           0.2415  -16.7289   20.4056 N.pl3   1  UNL1        0.0000
     17 N          -1.2710  -17.8860   18.6383 N.ar    1  UNL1        0.0000
     18 C          -2.5098  -18.6589   18.2949 C.ar    1  UNL1        0.0000
     19 N          -3.4749  -19.0477   19.3753 N.ar    1  UNL1        0.0000
     20 C          -3.2012  -18.6635   20.7992 C.ar    1  UNL1        0.0000
     21 H           0.4211  -16.4768   21.3402 H       1  UNL1        0.0000
     22 H           0.8750  -16.4738   19.6965 H       1  UNL1        0.0000
     23 C          -5.4950  -15.5010   23.9189 C.3     1  UNL1        0.0000
     24 C          -5.1626  -15.7831   25.3541 C.3     1  UNL1        0.0000
     25 C          -5.8590  -15.0285   26.4475 C.3     1  UNL1        0.0000
     26 C          -6.8293  -15.7358   27.3466 C.3     1  UNL1        0.0000
     27 C          -8.3043  -15.5295   27.1684 C.3     1  UNL1        0.0000
     28 C          -8.8837  -15.4087   25.7902 C.3     1  UNL1        0.0000
     29 C          -9.4134  -16.6250   25.0900 C.3     1  UNL1        0.0000
     30 C          -9.0043  -17.9929   25.5499 C.3     1  UNL1        0.0000
     31 C          -9.9752  -19.1333   25.4679 C.3     1  UNL1        0.0000
     32 C          -9.7148  -20.2741   24.5295 C.3     1  UNL1        0.0000
     33 C          -9.6506  -20.0293   23.0510 C.3     1  UNL1        0.0000
     34 C         -10.8650  -20.2550   22.2000 C.3     1  UNL1        0.0000
     35 C         -10.8292  -19.9211   20.7381 C.3     1  UNL1        0.0000
     36 C         -10.4699  -18.5341   20.2942 C.3     1  UNL1        0.0000
     37 C         -11.5301  -17.6220   19.7518 C.3     1  UNL1        0.0000
     38 C         -12.2678  -16.6975   20.6742 C.3     1  UNL1        0.0000
     39 C         -12.8486  -17.2212   21.9542 C.1     1  UNL1        0.0000
     40 C         -13.4294  -17.7450   23.2343 C.1     1  UNL1        0.0000
     41 SI        -14.0102  -18.2687   24.5142 Si      1  UNL1        0.0000
     42 C         -15.3832  -18.2176   23.9122 C.3     1  UNL1        0.0000
     43 C         -12.6373  -18.3199   25.1162 C.3     1  UNL1        0.0000
     44 C         -14.5910  -18.7925   25.7942 C.3     1  UNL1        0.0000
@<TRIPOS>BOND
     1     9     8    1
     2     9    10    1
     3    10    11    1
     4    11    12   ar
     5    12    13   ar
     6    13    14   ar
     7    14    15   ar
     8    15    16    1
     9    15    17   ar
    10    17    18   ar
    11    18    19   ar
    12    19    20   ar
    13     9     7    1
    14     7     6    1
    15     6     2    1
    16     2     3    2
    17     2     4    1
    18     2     1    1
    19     1    23    1
    20    23    24    1
    21    24    25    1
    22    25    26    1
    23    26    27    1
    24    27    28    1
    25    28    29    1
    26    29    30    1
    27    30    31    1
    28    31    32    1
    29    32    33    1
    30    33    34    1
    31    34    35    1
    32    35    36    1
    33    36    37    1
    34    37    38    1
    35    38    39    1
    36    39    40    3
    37    40    41    1
    38    41    42    1
    39    41    43    1
    40    41    44    1
    41    20    11   ar
    42    20    14   ar
    43    16    21    1
    44    16    22    1
    45     4     5    1
@<TRIPOS>MOLECULE
*****
 44 45 0 0 0
SMALL
GASTEIGER

@<TRIPOS>ATOM
      1 O          -5.2621  -16.2694   25.5766 O.3     1  UNL1        0.0000
      2 P          -5.5263  -15.6968   24.2155 P.3     1  UNL1        0.0000
      3 O          -5.6806  -14.3325   24.8194 O.2     1  UNL1        0.0000
      4 O          -5.7904  -15.1243   22.8545 O.3     1  UNL1        0.0000
      5 H          -5.9414  -14.1690   22.9293 H       1  UNL1        0.0000
      6 C          -5.3719  -17.0612   23.6116 C.3     1  UNL1        0.0000
      7 O          -6.2953  -17.5053   22.5161 O.3     1  UNL1        0.0000
      8 C          -7.0750  -19.9836   22.5293 C.3     1  UNL1        0.0000
      9 C          -6.1988  -18.9004   21.9734 C.3     1  UNL1        0.0000
     10 C          -5.2261  -19.2122   20.8749 C.3     1  UNL1        0.0000
     11 N          -3.7580  -18.9898   21.0875 N.ar    1  UNL1        0.0000
     12 C          -3.0050  -19.2326   22.3619 C.ar    1  UNL1        0.0000
     13 N          -1.5668  -18.8783   22.1250 N.ar    1  UNL1        0.0000
     14 C          -1.4310  -18.4166   20.7043 C.ar    1  UNL1        0.0000
     15 C          -0.2491  -17.9424   19.9117 C.ar    1  UNL1        0.0000
     16 N           1.1051  -17.8735   20.5529 N.pl3   1  UNL1        0.0000
     17 N          -0.4216  -17.5370   18.4779 N.ar    1  UNL1        0.0000
     18 C          -1.7759  -17.6059   17.8367 C.ar    1  UNL1        0.0000
     19 N          -2.9577  -18.0801   18.6293 N.ar    1  UNL1        0.0000
     20 C          -2.7853  -18.4855   20.0631 C.ar    1  UNL1        0.0000
     21 H           1.2183  -18.1395   21.4940 H       1  UNL1        0.0000
     22 H           1.8808  -17.5622   20.0327 H       1  UNL1        0.0000
     23 C          -5.8274  -15.6004   26.7943 C.3     1  UNL1        0.0000
     24 C          -6.9670  -16.2330   27.5367 C.3     1  UNL1        0.0000
     25 C          -8.3781  -15.8240   27.2342 C.3     1  UNL1        0.0000
     26 C          -8.7146  -15.2181   25.9039 C.3     1  UNL1        0.0000
     27 C          -9.2334  -16.0845   24.7948 C.3     1  UNL1        0.0000
     28 C          -8.9272  -17.5529   24.7842 C.3     1  UNL1        0.0000
     29 C          -9.9015  -18.5266   25.3781 C.3     1  UNL1        0.0000
     30 C         -10.0165  -19.9115   24.8134 C.3     1  UNL1        0.0000
     31 C         -10.5096  -20.1110   23.4109 C.3     1  UNL1        0.0000
     32 C         -11.7893  -19.4666   22.9670 C.3     1  UNL1        0.0000
     33 C         -12.4690  -18.4624   23.8499 C.3     1  UNL1        0.0000
     34 C         -13.2407  -17.3293   23.2411 C.3     1  UNL1        0.0000
     35 C         -12.5128  -16.1820   22.6057 C.3     1  UNL1        0.0000
     36 C         -12.0214  -16.2956   21.1930 C.3     1  UNL1        0.0000
     37 C         -10.5582  -16.1545   20.8943 C.3     1  UNL1        0.0000
     38 C          -9.6091  -17.2583   21.2561 C.3     1  UNL1        0.0000
     39 C          -9.4108  -18.4137   20.3204 C.1     1  UNL1        0.0000
     40 C          -9.2124  -19.5693   19.3847 C.1     1  UNL1        0.0000
     41 SI         -9.0141  -20.7248   18.4490 Si      1  UNL1        0.0000
     42 C         -10.2956  -20.3789   17.7502 C.3     1  UNL1        0.0000
     43 C          -7.7326  -21.0706   19.1477 C.3     1  UNL1        0.0000
     44 C          -8.8158  -21.8802   17.5133 C.3     1  UNL1        0.0000
@<TRIPOS>BOND
     1     9     8    1
     2     9    10    1
     3    10    11    1
     4    11    12   ar
     5    12    13   ar
     6    13    14   ar
     7    14    15   ar
     8    15    16    1
     9    15    17   ar
    10    17    18   ar
    11    18    19   ar
    12    19    20   ar
    13     9     7    1
    14     7     6    1
    15     6     2    1
    16     2     3    2
    17     2     4    1
    18     2     1    1
    19     1    23    1
    20    23    24    1
    21    24    25    1
    22    25    26    1
    23    26    27    1
    24    27    28    1
    25    28    29    1
    26    29    30    1
    27    30    31    1
    28    31    32    1
    29    32    33    1
    30    33    34    1
    31    34    35    1
    32    35    36    1
    33    36    37    1
    34    37    38    1
    35    38    39    1
    36    39    40    3
    37    40    41    1
    38    41    42    1
    39    41    43    1
    40    41    44    1
    41    20    11   ar
    42    20    14   ar
    43    16    21    1
    44    16    22    1
    45     4     5    1
@<TRIPOS>MOLECULE
*****
 44 45 0 0 0
SMALL
GASTEIGER

@<TRIPOS>ATOM
      1 O          -8.7655  -20.0286   22.5960 O.3     1  UNL1        0.0000
      2 P         -10.0662  -20.0554   21.8494 P.3     1  UNL1        0.0000
      3 O          -9.4165  -19.3560   20.6924 O.2     1  UNL1        0.0000
      4 O         -11.3669  -20.0822   21.1028 O.3     1  UNL1        0.0000
      5 H         -11.2511  -19.6616   20.2364 H       1  UNL1        0.0000
      6 C         -10.7159  -20.7548   23.0064 C.3     1  UNL1        0.0000
      7 O         -10.3307  -20.3972   24.4113 O.3     1  UNL1        0.0000
      8 C          -9.5978  -18.2811   25.7286 C.3     1  UNL1        0.0000
      9 C         -10.6368  -19.0304   24.9482 C.3     1  UNL1        0.0000
     10 C         -11.9819  -18.4128   24.7045 C.3     1  UNL1        0.0000
     11 N         -12.3319  -17.8905   23.3427 N.ar    1  UNL1        0.0000
     12 C         -13.6098  -18.1486   22.6009 C.ar    1  UNL1        0.0000
     13 N         -13.5330  -17.4359   21.2833 N.ar    1  UNL1        0.0000
     14 C         -12.2075  -16.7374   21.2107 C.ar    1  UNL1        0.0000
     15 C         -11.5807  -15.8818   20.1500 C.ar    1  UNL1        0.0000
     16 N         -12.3230  -15.6009   18.8772 N.pl3   1  UNL1        0.0000
     17 N         -10.2115  -15.3072   20.3622 N.ar    1  UNL1        0.0000
     18 C          -9.4691  -15.5881   21.6350 C.ar    1  UNL1        0.0000
     19 N         -10.0960  -16.4437   22.6956 N.ar    1  UNL1        0.0000
     20 C         -11.4652  -17.0183   22.4835 C.ar    1  UNL1        0.0000
     21 H         -13.2217  -15.9780   18.7380 H       1  UNL1        0.0000
     22 H         -11.9116  -15.0393   18.1811 H       1  UNL1        0.0000
     23 C          -7.9812  -18.7535   22.6907 C.3     1  UNL1        0.0000
     24 C          -6.5338  -18.7322   22.2976 C.3     1  UNL1        0.0000
     25 C          -6.1351  -18.2652   20.9290 C.3     1  UNL1        0.0000
     26 C          -6.3124  -19.1707   19.7464 C.3     1  UNL1        0.0000
     27 C          -6.1628  -20.6543   19.9086 C.3     1  UNL1        0.0000
     28 C          -4.8174  -21.2437   20.2126 C.3     1  UNL1        0.0000
     29 C          -3.7527  -20.3965   20.8443 C.3     1  UNL1        0.0000
     30 C          -2.5957  -19.9102   20.0229 C.3     1  UNL1        0.0000
     31 C          -2.8243  -18.9274   18.9130 C.3     1  UNL1        0.0000
     32 C          -1.8206  -17.8437   18.6521 C.3     1  UNL1        0.0000
     33 C          -0.6785  -17.6349   19.6018 C.3     1  UNL1        0.0000
     34 C          -0.7180  -16.5026   20.5848 C.3     1  UNL1        0.0000
     35 C          -1.8977  -16.3422   21.4972 C.3     1  UNL1        0.0000
     36 C          -2.2245  -17.4126   22.4959 C.3     1  UNL1        0.0000
     37 C          -3.4711  -17.3105   23.3238 C.3     1  UNL1        0.0000
     38 C          -4.2676  -16.0394   23.3265 C.3     1  UNL1        0.0000
     39 C          -5.3381  -15.8273   24.3555 C.1     1  UNL1        0.0000
     40 C          -6.4087  -15.6151   25.3847 C.1     1  UNL1        0.0000
     41 SI         -7.4792  -15.4030   26.4138 Si      1  UNL1        0.0000
     42 C          -8.4544  -15.0566   25.3279 C.3     1  UNL1        0.0000
     43 C          -6.5040  -15.7494   27.4996 C.3     1  UNL1        0.0000
     44 C          -8.5497  -15.1908   27.4428 C.3     1  UNL1        0.0000
@<TRIPOS>BOND
     1     9     8    1
     2     9    10    1
     3    10    11    1
     4    11    12   ar
     5    12    13   ar
     6    13    14   ar
     7    14    15   ar
     8    15    16    1
     9    15    17   ar
    10    17    18   ar
    11    18    19   ar
    12    19    20   ar
    13     9     7    1
    14     7     6    1
    15     6     2    1
    16     2     3    2
    17     2     4    1
    18     2     1    1
    19     1    23    1
    20    23    24    1
    21    24    25    1
    22    25    26    1
    23    26    27    1
    24    27    28    1
    25    28    29    1
    26    29    30    1
    27    30    31    1
    28    31    32    1
    29    32    33    1
    30    33    34    1
    31    34    35    1
    32    35    36    1
    33    36    37    1
    34    37    38    1
    35    38    39    1
    36    39    40    3
    37    40    41    1
    38    41    42    1
    39    41    43    1
    40    41    44    1
    41    20    11   ar
    42    20    14   ar
    43    16    21    1
    44    16    22    1
    45     4     5    1
@<TRIPOS>MOLECULE
*****
 44 45 0 0 0
SMALL
GASTEIGER

@<TRIPOS>ATOM
      1 O           7.6781   -7.5734   25.8454 O.3     1  UNL1        0.0000
      2 P           8.4116   -8.0155   27.0768 P.3     1  UNL1        0.0000
      3 O           9.3667   -6.8697   26.9193 O.2     1  UNL1        0.0000
      4 O           9.1451   -8.4576   28.3083 O.3     1  UNL1        0.0000
      5 H           9.8855   -7.8543   28.4777 H       1  UNL1        0.0000
      6 C           7.4565   -9.1614   27.2344 C.3     1  UNL1        0.0000
      7 O           7.8872  -10.4027   27.9580 O.3     1  UNL1        0.0000
      8 C           7.4415  -12.8741   28.6238 C.3     1  UNL1        0.0000
      9 C           6.9522  -11.5707   28.0655 C.3     1  UNL1        0.0000
     10 C           5.5279  -11.4353   27.6147 C.3     1  UNL1        0.0000
     11 N           4.6526  -12.6497   27.5198 N.ar    1  UNL1        0.0000
     12 C           4.7760  -13.7484   26.5061 C.ar    1  UNL1        0.0000
     13 N           3.6999  -14.7564   26.7817 N.ar    1  UNL1        0.0000
     14 C           2.9114  -14.2807   27.9658 C.ar    1  UNL1        0.0000
     15 C           1.7334  -14.8648   28.6875 C.ar    1  UNL1        0.0000
     16 N           1.1446  -16.1668   28.2313 N.pl3   1  UNL1        0.0000
     17 N           1.1442  -14.1470   29.8654 N.ar    1  UNL1        0.0000
     18 C           1.7330  -12.8450   30.3215 C.ar    1  UNL1        0.0000
     19 N           2.9110  -12.2608   29.5998 N.ar    1  UNL1        0.0000
     20 C           3.5002  -12.9787   28.4219 C.ar    1  UNL1        0.0000
     21 H           1.5313  -16.6380   27.4582 H       1  UNL1        0.0000
     22 H           0.3714  -16.5503   28.7050 H       1  UNL1        0.0000
     23 C           8.4218   -7.3852   24.5564 C.3     1  UNL1        0.0000
     24 C           8.0477   -6.2654   23.6312 C.3     1  UNL1        0.0000
     25 C           7.9617   -4.8607   24.1503 C.3     1  UNL1        0.0000
     26 C           6.7242   -4.3980   24.8606 C.3     1  UNL1        0.0000
     27 C           6.0975   -3.0846   24.4970 C.3     1  UNL1        0.0000
     28 C           5.1562   -2.9997   23.3322 C.3     1  UNL1        0.0000
     29 C           3.9881   -2.0596   23.3788 C.3     1  UNL1        0.0000
     30 C           4.1535   -0.6354   22.9378 C.3     1  UNL1        0.0000
     31 C           5.4787   -0.1594   22.4211 C.3     1  UNL1        0.0000
     32 C           5.6487    0.1479   20.9628 C.3     1  UNL1        0.0000
     33 C           6.8252   -0.4025   20.2126 C.3     1  UNL1        0.0000
     34 C           7.4673   -1.6826   20.6590 C.3     1  UNL1        0.0000
     35 C           6.9393   -2.9977   20.1676 C.3     1  UNL1        0.0000
     36 C           6.1893   -3.0674   18.8705 C.3     1  UNL1        0.0000
     37 C           4.8597   -3.7591   18.8091 C.3     1  UNL1        0.0000
     38 C           3.7962   -3.4302   19.8144 C.3     1  UNL1        0.0000
     39 C           3.0505   -2.1322   19.7200 C.1     1  UNL1        0.0000
     40 C           2.3047   -0.8341   19.6257 C.1     1  UNL1        0.0000
     41 SI          1.5590    0.4640   19.5313 Si      1  UNL1        0.0000
     42 C           0.5295   -0.0578   20.4895 C.3     1  UNL1        0.0000
     43 C           2.5884    0.9858   18.5732 C.3     1  UNL1        0.0000
     44 C           0.8131    1.7620   19.4370 C.3     1  UNL1        0.0000
@<TRIPOS>BOND
     1     9     8    1
     2     9    10    1
     3    10    11    1
     4    11    12   ar
     5    12    13   ar
     6    13    14   ar
     7    14    15   ar
     8    15    16    1
     9    15    17   ar
    10    17    18   ar
    11    18    19   ar
    12    19    20   ar
    13     9     7    1
    14     7     6    1
    15     6     2    1
    16     2     3    2
    17     2     4    1
    18     2     1    1
    19     1    23    1
    20    23    24    1
    21    24    25    1
    22    25    26    1
    23    26    27    1
    24    27    28    1
    25    28    29    1
    26    29    30    1
    27    30    31    1
    28    31    32    1
    29    32    33    1
    30    33    34    1
    31    34    35    1
    32    35    36    1
    33    36    37    1
    34    37    38    1
    35    38    39    1
    36    39    40    3
    37    40    41    1
    38    41    42    1
    39    41    43    1
    40    41    44    1
    41    20    11   ar
    42    20    14   ar
    43    16    21    1
    44    16    22    1
    45     4     5    1
@<TRIPOS>MOLECULE
*****
 44 45 0 0 0
SMALL
GASTEIGER

@<TRIPOS>ATOM
      1 O           7.9196   -4.7620   29.9177 O.3     1  UNL1        0.0000
      2 P           7.1726   -4.9898   31.1983 P.3     1  UNL1        0.0000
      3 O           7.3687   -6.4694   31.0495 O.2     1  UNL1        0.0000
      4 O           6.4256   -5.2176   32.4790 O.3     1  UNL1        0.0000
      5 H           6.3841   -6.1688   32.6643 H       1  UNL1        0.0000
      6 C           6.9765   -3.5101   31.3472 C.3     1  UNL1        0.0000
      7 O           5.8423   -2.8290   30.6405 O.3     1  UNL1        0.0000
      8 C           7.5296   -1.2623   29.4370 C.3     1  UNL1        0.0000
      9 C           6.1161   -1.6788   29.7175 C.3     1  UNL1        0.0000
     10 C           4.9765   -0.9450   29.0749 C.3     1  UNL1        0.0000
     11 N           4.1253   -0.0185   29.8917 N.ar    1  UNL1        0.0000
     12 C           4.6075    0.8878   30.9854 C.ar    1  UNL1        0.0000
     13 N           3.4226    1.6307   31.5278 N.ar    1  UNL1        0.0000
     14 C           2.2082    1.1835   30.7694 C.ar    1  UNL1        0.0000
     15 C           0.7630    1.5728   30.8689 C.ar    1  UNL1        0.0000
     16 N           0.3287    2.5921   31.8801 N.pl3   1  UNL1        0.0000
     17 N          -0.2479    0.9428   29.9573 N.ar    1  UNL1        0.0000
     18 C           0.1864   -0.0765   28.9461 C.ar    1  UNL1        0.0000
     19 N           1.6315   -0.4658   28.8466 N.ar    1  UNL1        0.0000
     20 C           2.6424    0.1642   29.7582 C.ar    1  UNL1        0.0000
     21 H           0.9922    3.0056   32.4784 H       1  UNL1        0.0000
     22 H          -0.6198    2.8476   31.9454 H       1  UNL1        0.0000
     23 C           7.4804   -5.4519   28.6603 C.3     1  UNL1        0.0000
     24 C           7.0549   -4.6436   27.4706 C.3     1  UNL1        0.0000
     25 C           6.7532   -5.3259   26.1693 C.3     1  UNL1        0.0000
     26 C           7.0126   -4.6171   24.8730 C.3     1  UNL1        0.0000
     27 C           6.0326   -3.6020   24.3641 C.3     1  UNL1        0.0000
     28 C           5.8777   -3.3831   22.8883 C.3     1  UNL1        0.0000
     29 C           4.5803   -3.7158   22.2128 C.3     1  UNL1        0.0000
     30 C           4.5659   -4.0943   20.7614 C.3     1  UNL1        0.0000
     31 C           3.7173   -3.3240   19.7937 C.3     1  UNL1        0.0000
     32 C           4.3546   -2.6199   18.6327 C.3     1  UNL1        0.0000
     33 C           5.1458   -1.3657   18.8587 C.3     1  UNL1        0.0000
     34 C           4.5695   -0.0357   18.4728 C.3     1  UNL1        0.0000
     35 C           3.2070    0.0392   17.8502 C.3     1  UNL1        0.0000
     36 C           2.1749    0.9705   18.4137 C.3     1  UNL1        0.0000
     37 C           0.9650    0.4181   19.1071 C.3     1  UNL1        0.0000
     38 C           1.1222   -0.6300   20.1687 C.3     1  UNL1        0.0000
     39 C           2.1719   -0.4726   21.2285 C.1     1  UNL1        0.0000
     40 C           3.2217   -0.3152   22.2884 C.1     1  UNL1        0.0000
     41 SI          4.2715   -0.1579   23.3482 Si      1  UNL1        0.0000
     42 C           3.3157   -0.6913   24.3740 C.3     1  UNL1        0.0000
     43 C           5.2272    0.3754   22.3224 C.3     1  UNL1        0.0000
     44 C           5.3212   -0.0007   24.4081 C.3     1  UNL1        0.0000
@<TRIPOS>BOND
     1     9     8    1
     2     9    10    1
     3    10    11    1
     4    11    12   ar
     5    12    13   ar
     6    13    14   ar
     7    14    15   ar
     8    15    16    1
     9    15    17   ar
    10    17    18   ar
    11    18    19   ar
    12    19    20   ar
    13     9     7    1
    14     7     6    1
    15     6     2    1
    16     2     3    2
    17     2     4    1
    18     2     1    1
    19     1    23    1
    20    23    24    1
    21    24    25    1
    22    25    26    1
    23    26    27    1
    24    27    28    1
    25    28    29    1
    26    29    30    1
    27    30    31    1
    28    31    32    1
    29    32    33    1
    30    33    34    1
    31    34    35    1
    32    35    36    1
    33    36    37    1
    34    37    38    1
    35    38    39    1
    36    39    40    3
    37    40    41    1
    38    41    42    1
    39    41    43    1
    40    41    44    1
    41    20    11   ar
    42    20    14   ar
    43    16    21    1
    44    16    22    1
    45     4     5    1
@<TRIPOS>MOLECULE
*****
 44 45 0 0 0
SMALL
GASTEIGER

@<TRIPOS>ATOM
      1 O         -10.4613  -20.4176   20.1071 O.3     1  UNL1        0.0000
      2 P          -9.4858  -19.6676   19.2493 P.3     1  UNL1        0.0000
      3 O          -8.9565  -20.9659   18.7161 O.2     1  UNL1        0.0000
      4 O          -8.5102  -18.9176   18.3915 O.3     1  UNL1        0.0000
      5 H          -7.9772  -19.5475   17.8815 H       1  UNL1        0.0000
      6 C         -10.0151  -18.3693   19.7825 C.3     1  UNL1        0.0000
      7 O         -11.3041  -17.8119   19.2557 O.3     1  UNL1        0.0000
      8 C         -11.3680  -15.2381   18.9078 C.3     1  UNL1        0.0000
      9 C         -11.7674  -16.4534   19.6911 C.3     1  UNL1        0.0000
     10 C         -12.6301  -16.3100   20.9099 C.3     1  UNL1        0.0000
     11 N         -12.1711  -16.8697   22.2237 N.ar    1  UNL1        0.0000
     12 C         -12.9750  -17.7462   23.1377 C.ar    1  UNL1        0.0000
     13 N         -12.1283  -18.0693   24.3330 N.ar    1  UNL1        0.0000
     14 C         -10.8012  -17.3925   24.1577 C.ar    1  UNL1        0.0000
     15 C          -9.5721  -17.3556   25.0167 C.ar    1  UNL1        0.0000
     16 N          -9.5456  -18.0970   26.3204 N.pl3   1  UNL1        0.0000
     17 N          -8.3695  -16.5772   24.5720 N.ar    1  UNL1        0.0000
     18 C          -8.3959  -15.8358   23.2683 C.ar    1  UNL1        0.0000
     19 N          -9.6250  -15.8727   22.4093 N.ar    1  UNL1        0.0000
     20 C         -10.8277  -16.6511   22.8540 C.ar    1  UNL1        0.0000
     21 H         -10.3350  -18.6078   26.6122 H       1  UNL1        0.0000
     22 H          -8.7389  -18.0727   26.8842 H       1  UNL1        0.0000
     23 C         -10.8177  -19.8975   21.4681 C.3     1  UNL1        0.0000
     24 C         -10.4213  -20.6677   22.6928 C.3     1  UNL1        0.0000
     25 C          -9.1431  -20.3379   23.4051 C.3     1  UNL1        0.0000
     26 C          -7.8512  -20.2907   22.6444 C.3     1  UNL1        0.0000
     27 C          -7.2249  -18.9692   22.3111 C.3     1  UNL1        0.0000
     28 C          -6.3757  -18.8302   21.0824 C.3     1  UNL1        0.0000
     29 C          -5.6988  -20.0347   20.4983 C.3     1  UNL1        0.0000
     30 C          -4.2228  -20.2284   20.6820 C.3     1  UNL1        0.0000
     31 C          -3.2719  -19.8205   19.5960 C.3     1  UNL1        0.0000
     32 C          -3.4728  -18.5224   18.8717 C.3     1  UNL1        0.0000
     33 C          -2.3277  -17.5666   18.7138 C.3     1  UNL1        0.0000
     34 C          -1.1746  -17.6130   19.6720 C.3     1  UNL1        0.0000
     35 C          -1.0656  -16.5911   20.7646 C.3     1  UNL1        0.0000
     36 C          -2.1200  -16.5155   21.8288 C.3     1  UNL1        0.0000
     37 C          -2.2688  -17.6334   22.8178 C.3     1  UNL1        0.0000
     38 C          -3.6349  -18.0637   23.2634 C.3     1  UNL1        0.0000
     39 C          -4.3678  -17.2721   24.3056 C.1     1  UNL1        0.0000
     40 C          -5.1007  -16.4804   25.3479 C.1     1  UNL1        0.0000
     41 SI         -5.8336  -15.6887   26.3900 Si      1  UNL1        0.0000
     42 C          -5.5957  -14.4335   25.6038 C.3     1  UNL1        0.0000
     43 C          -6.0716  -16.9439   27.1761 C.3     1  UNL1        0.0000
     44 C          -6.5665  -14.8970   27.4321 C.3     1  UNL1        0.0000
@<TRIPOS>BOND
     1     9     8    1
     2     9    10    1
     3    10    11    1
     4    11    12   ar
     5    12    13   ar
     6    13    14   ar
     7    14    15   ar
     8    15    16    1
     9    15    17   ar
    10    17    18   ar
    11    18    19   ar
    12    19    20   ar
    13     9     7    1
    14     7     6    1
    15     6     2    1
    16     2     3    2
    17     2     4    1
    18     2     1    1
    19     1    23    1
    20    23    24    1
    21    24    25    1
    22    25    26    1
    23    26    27    1
    24    27    28    1
    25    28    29    1
    26    29    30    1
    27    30    31    1
    28    31    32    1
    29    32    33    1
    30    33    34    1
    31    34    35    1
    32    35    36    1
    33    36    37    1
    34    37    38    1
    35    38    39    1
    36    39    40    3
    37    40    41    1
    38    41    42    1
    39    41    43    1
    40    41    44    1
    41    20    11   ar
    42    20    14   ar
    43    16    21    1
    44    16    22    1
    45     4     5    1
@<TRIPOS>MOLECULE
*****
 44 45 0 0 0
SMALL
GASTEIGER

@<TRIPOS>ATOM
      1 O           8.4532   -6.1256   25.5060 O.3     1  UNL1        0.0000
      2 P           7.6334   -7.2400   26.0857 P.3     1  UNL1        0.0000
      3 O           7.9076   -8.0742   24.8695 O.2     1  UNL1        0.0000
      4 O           6.8137   -8.3545   26.6653 O.3     1  UNL1        0.0000
      5 H           6.8041   -9.1033   26.0487 H       1  UNL1        0.0000
      6 C           7.3593   -6.4059   27.3018 C.3     1  UNL1        0.0000
      7 O           6.3780   -5.2737   27.2292 O.3     1  UNL1        0.0000
      8 C           6.4611   -2.7860   26.4847 C.3     1  UNL1        0.0000
      9 C           6.8403   -3.8648   27.4555 C.3     1  UNL1        0.0000
     10 C           7.6819   -3.5347   28.6525 C.3     1  UNL1        0.0000
     11 N           7.0466   -3.4153   30.0061 N.ar    1  UNL1        0.0000
     12 C           7.3112   -4.3033   31.1857 C.ar    1  UNL1        0.0000
     13 N           6.4632   -3.8237   32.3263 N.ar    1  UNL1        0.0000
     14 C           5.6746   -2.6393   31.8516 C.ar    1  UNL1        0.0000
     15 C           4.6748   -1.7581   32.5399 C.ar    1  UNL1        0.0000
     16 N           4.3142   -2.0105   33.9739 N.pl3   1  UNL1        0.0000
     17 N           4.0355   -0.6244   31.7942 N.ar    1  UNL1        0.0000
     18 C           4.3960   -0.3720   30.3602 C.ar    1  UNL1        0.0000
     19 N           5.3958   -1.2532   29.6719 N.ar    1  UNL1        0.0000
     20 C           6.0351   -2.3869   30.4176 C.ar    1  UNL1        0.0000
     21 H           4.7338   -2.7546   34.4633 H       1  UNL1        0.0000
     22 H           3.6580   -1.4321   34.4256 H       1  UNL1        0.0000
     23 C           8.4004   -5.8429   24.0339 C.3     1  UNL1        0.0000
     24 C           7.4903   -4.7730   23.5077 C.3     1  UNL1        0.0000
     25 C           8.0024   -3.7763   22.5106 C.3     1  UNL1        0.0000
     26 C           7.9855   -4.1033   21.0468 C.3     1  UNL1        0.0000
     27 C           7.9164   -3.0003   20.0326 C.3     1  UNL1        0.0000
     28 C           6.6241   -2.7078   19.3294 C.3     1  UNL1        0.0000
     29 C           5.5096   -3.7113   19.3603 C.3     1  UNL1        0.0000
     30 C           4.3193   -3.4831   20.2441 C.3     1  UNL1        0.0000
     31 C           4.3846   -3.8443   21.6984 C.3     1  UNL1        0.0000
     32 C           4.3904   -2.7649   22.7399 C.3     1  UNL1        0.0000
     33 C           4.9975   -1.4284   22.4315 C.3     1  UNL1        0.0000
     34 C           4.2933   -0.1709   22.8472 C.3     1  UNL1        0.0000
     35 C           2.7975   -0.1502   22.9575 C.3     1  UNL1        0.0000
     36 C           1.9660    0.3074   21.7959 C.3     1  UNL1        0.0000
     37 C           1.6208   -0.6526   20.6963 C.3     1  UNL1        0.0000
     38 C           2.0842   -0.3858   19.2949 C.3     1  UNL1        0.0000
     39 C           3.5251   -0.0643   19.0298 C.1     1  UNL1        0.0000
     40 C           4.9661    0.2574   18.7648 C.1     1  UNL1        0.0000
     41 SI          6.4071    0.5790   18.4997 Si      1  UNL1        0.0000
     42 C           6.5819    0.9783   19.9351 C.3     1  UNL1        0.0000
     43 C           6.2322    0.1797   17.0645 C.3     1  UNL1        0.0000
     44 C           7.8480    0.9007   18.2348 C.3     1  UNL1        0.0000
@<TRIPOS>BOND
     1     9     8    1
     2     9    10    1
     3    10    11    1
     4    11    12   ar
     5    12    13   ar
     6    13    14   ar
     7    14    15   ar
     8    15    16    1
     9    15    17   ar
    10    17    18   ar
    11    18    19   ar
    12    19    20   ar
    13     9     7    1
    14     7     6    1
    15     6     2    1
    16     2     3    2
    17     2     4    1
    18     2     1    1
    19     1    23    1
    20    23    24    1
    21    24    25    1
    22    25    26    1
    23    26    27    1
    24    27    28    1
    25    28    29    1
    26    29    30    1
    27    30    31    1
    28    31    32    1
    29    32    33    1
    30    33    34    1
    31    34    35    1
    32    35    36    1
    33    36    37    1
    34    37    38    1
    35    38    39    1
    36    39    40    3
    37    40    41    1
    38    41    42    1
    39    41    43    1
    40    41    44    1
    41    20    11   ar
    42    20    14   ar
    43    16    21    1
    44    16    22    1
    45     4     5    1
@<TRIPOS>MOLECULE
*****
 44 45 0 0 0
SMALL
GASTEIGER

@<TRIPOS>ATOM
      1 O           1.8291    1.5979   25.4510 O.3     1  UNL1        0.0000
      2 P           0.4431    1.7085   26.0137 P.3     1  UNL1        0.0000
      3 O           1.0135    1.8258   27.3960 O.2     1  UNL1        0.0000
      4 O          -0.9430    1.8190   26.5763 O.3     1  UNL1        0.0000
      5 H          -0.8940    1.9144   27.5404 H       1  UNL1        0.0000
      6 C          -0.1274    1.5911   24.6314 C.3     1  UNL1        0.0000
      7 O          -0.6355    2.8120   23.9235 O.3     1  UNL1        0.0000
      8 C           0.8922    4.5378   22.7243 C.3     1  UNL1        0.0000
      9 C           0.0493    3.2978   22.6805 C.3     1  UNL1        0.0000
     10 C          -0.1088    2.5435   21.3935 C.3     1  UNL1        0.0000
     11 N          -1.0104    3.0746   20.3188 N.ar    1  UNL1        0.0000
     12 C          -0.5879    3.4994   18.9437 C.ar    1  UNL1        0.0000
     13 N          -1.8093    3.9615   18.2056 N.ar    1  UNL1        0.0000
     14 C          -2.9866    3.8223   19.1245 C.ar    1  UNL1        0.0000
     15 C          -4.4444    4.1238   18.9408 C.ar    1  UNL1        0.0000
     16 N          -4.9381    4.6720   17.6347 N.pl3   1  UNL1        0.0000
     17 N          -5.4085    3.8772   20.0631 N.ar    1  UNL1        0.0000
     18 C          -4.9148    3.3291   21.3692 C.ar    1  UNL1        0.0000
     19 N          -3.4570    3.0276   21.5529 N.ar    1  UNL1        0.0000
     20 C          -2.4929    3.2742   20.4306 C.ar    1  UNL1        0.0000
     21 H          -4.3053    4.8338   16.8981 H       1  UNL1        0.0000
     22 H          -5.8950    4.8699   17.5141 H       1  UNL1        0.0000
     23 C           2.1005    0.6732   24.3016 C.3     1  UNL1        0.0000
     24 C           3.1434    1.0281   23.2836 C.3     1  UNL1        0.0000
     25 C           2.9683    0.6105   21.8536 C.3     1  UNL1        0.0000
     26 C           2.6177   -0.8104   21.5248 C.3     1  UNL1        0.0000
     27 C           2.0733   -1.1544   20.1701 C.3     1  UNL1        0.0000
     28 C           1.2774   -0.1411   19.4022 C.3     1  UNL1        0.0000
     29 C           1.9146    0.6147   18.2739 C.3     1  UNL1        0.0000
     30 C           3.3597    0.3884   17.9414 C.3     1  UNL1        0.0000
     31 C           4.3855    1.4168   18.3159 C.3     1  UNL1        0.0000
     32 C           5.6946    0.9886   18.9098 C.3     1  UNL1        0.0000
     33 C           5.7760   -0.2754   19.7134 C.3     1  UNL1        0.0000
     34 C           6.8195   -1.3034   19.3907 C.3     1  UNL1        0.0000
     35 C           6.4822   -2.4595   18.4966 C.3     1  UNL1        0.0000
     36 C           5.0493   -2.8453   18.2778 C.3     1  UNL1        0.0000
     37 C           4.5764   -4.2183   18.6536 C.3     1  UNL1        0.0000
     38 C           3.8509   -4.4333   19.9487 C.3     1  UNL1        0.0000
     39 C           4.4996   -4.0472   21.2449 C.1     1  UNL1        0.0000
     40 C           5.1483   -3.6611   22.5411 C.1     1  UNL1        0.0000
     41 SI          5.7971   -3.2750   23.8373 Si      1  UNL1        0.0000
     42 C           4.7087   -2.2725   24.0834 C.3     1  UNL1        0.0000
     43 C           6.8854   -4.2775   23.5911 C.3     1  UNL1        0.0000
     44 C           6.4458   -2.8889   25.1334 C.3     1  UNL1        0.0000
@<TRIPOS>BOND
     1     9     8    1
     2     9    10    1
     3    10    11    1
     4    11    12   ar
     5    12    13   ar
     6    13    14   ar
     7    14    15   ar
     8    15    16    1
     9    15    17   ar
    10    17    18   ar
    11    18    19   ar
    12    19    20   ar
    13     9     7    1
    14     7     6    1
    15     6     2    1
    16     2     3    2
    17     2     4    1
    18     2     1    1
    19     1    23    1
    20    23    24    1
    21    24    25    1
    22    25    26    1
    23    26    27    1
    24    27    28    1
    25    28    29    1
    26    29    30    1
    27    30    31    1
    28    31    32    1
    29    32    33    1
    30    33    34    1
    31    34    35    1
    32    35    36    1
    33    36    37    1
    34    37    38    1
    35    38    39    1
    36    39    40    3
    37    40    41    1
    38    41    42    1
    39    41    43    1
    40    41    44    1
    41    20    11   ar
    42    20    14   ar
    43    16    21    1
    44    16    22    1
    45     4     5    1
@<TRIPOS>MOLECULE
*****
 44 45 0 0 0
SMALL
GASTEIGER

@<TRIPOS>ATOM
      1 O           7.2273   -4.4197   29.6767 O.3     1  UNL1        0.0000
      2 P           6.8542   -4.7630   31.0884 P.3     1  UNL1        0.0000
      3 O           7.2030   -6.1991   30.8314 O.2     1  UNL1        0.0000
      4 O           6.4812   -5.1063   32.5002 O.3     1  UNL1        0.0000
      5 H           6.6134   -6.0558   32.6478 H       1  UNL1        0.0000
      6 C           6.5055   -3.3269   31.3455 C.3     1  UNL1        0.0000
      7 O           5.5304   -2.9743   32.4293 O.3     1  UNL1        0.0000
      8 C           4.4730   -1.0943   33.8776 C.3     1  UNL1        0.0000
      9 C           5.0471   -1.5616   32.5729 C.3     1  UNL1        0.0000
     10 C           5.1379   -0.6161   31.4119 C.3     1  UNL1        0.0000
     11 N           4.0693   -0.6163   30.3592 N.ar    1  UNL1        0.0000
     12 C           4.1377   -1.3148   29.0335 C.ar    1  UNL1        0.0000
     13 N           2.8554   -1.0481   28.3024 N.ar    1  UNL1        0.0000
     14 C           1.9945   -0.1849   29.1762 C.ar    1  UNL1        0.0000
     15 C           0.6243    0.3926   28.9787 C.ar    1  UNL1        0.0000
     16 N          -0.1260    0.1257   27.7075 N.pl3   1  UNL1        0.0000
     17 N           0.0044    1.2370   30.0522 N.ar    1  UNL1        0.0000
     18 C           0.7546    1.5039   31.3234 C.ar    1  UNL1        0.0000
     19 N           2.1248    0.9264   31.5210 N.ar    1  UNL1        0.0000
     20 C           2.7447    0.0820   30.4474 C.ar    1  UNL1        0.0000
     21 H           0.2809   -0.4285   27.0029 H       1  UNL1        0.0000
     22 H          -1.0253    0.5048   27.5778 H       1  UNL1        0.0000
     23 C           6.5362   -5.0992   28.5319 C.3     1  UNL1        0.0000
     24 C           7.3418   -5.6833   27.4095 C.3     1  UNL1        0.0000
     25 C           6.9223   -5.4552   25.9875 C.3     1  UNL1        0.0000
     26 C           7.9018   -5.6728   24.8725 C.3     1  UNL1        0.0000
     27 C           8.6867   -4.5166   24.3275 C.3     1  UNL1        0.0000
     28 C           8.3449   -3.9450   22.9835 C.3     1  UNL1        0.0000
     29 C           7.0002   -4.2124   22.3747 C.3     1  UNL1        0.0000
     30 C           5.7774   -3.5498   22.9367 C.3     1  UNL1        0.0000
     31 C           4.4574   -3.6964   22.2394 C.3     1  UNL1        0.0000
     32 C           4.4141   -3.9654   20.7644 C.3     1  UNL1        0.0000
     33 C           3.6678   -3.0356   19.8541 C.3     1  UNL1        0.0000
     34 C           4.3439   -2.4724   18.6393 C.3     1  UNL1        0.0000
     35 C           5.6867   -2.9924   18.2193 C.3     1  UNL1        0.0000
     36 C           6.9027   -2.1247   18.3541 C.3     1  UNL1        0.0000
     37 C           7.3697   -1.6937   19.7128 C.3     1  UNL1        0.0000
     38 C           6.9764   -0.3494   20.2496 C.3     1  UNL1        0.0000
     39 C           5.8553   -0.2359   21.2396 C.1     1  UNL1        0.0000
     40 C           4.7341   -0.1222   22.2297 C.1     1  UNL1        0.0000
     41 SI          3.6129   -0.0086   23.2197 Si      1  UNL1        0.0000
     42 C           2.6208   -0.2760   22.1268 C.3     1  UNL1        0.0000
     43 C           4.6050    0.2588   24.3125 C.3     1  UNL1        0.0000
     44 C           2.4917    0.1050   24.2096 C.3     1  UNL1        0.0000
@<TRIPOS>BOND
     1     9     8    1
     2     9    10    1
     3    10    11    1
     4    11    12   ar
     5    12    13   ar
     6    13    14   ar
     7    14    15   ar
     8    15    16    1
     9    15    17   ar
    10    17    18   ar
    11    18    19   ar
    12    19    20   ar
    13     9     7    1
    14     7     6    1
    15     6     2    1
    16     2     3    2
    17     2     4    1
    18     2     1    1
    19     1    23    1
    20    23    24    1
    21    24    25    1
    22    25    26    1
    23    26    27    1
    24    27    28    1
    25    28    29    1
    26    29    30    1
    27    30    31    1
    28    31    32    1
    29    32    33    1
    30    33    34    1
    31    34    35    1
    32    35    36    1
    33    36    37    1
    34    37    38    1
    35    38    39    1
    36    39    40    3
    37    40    41    1
    38    41    42    1
    39    41    43    1
    40    41    44    1
    41    20    11   ar
    42    20    14   ar
    43    16    21    1
    44    16    22    1
    45     4     5    1
