@<TRIPOS>MOLECULE
*****
 33 35 0 0 0
SMALL
GASTEIGER

@<TRIPOS>ATOM
      1 C          -9.9295  -19.1851   21.0705 C.ar    1  UNL1        0.0293
      2 C          -8.5089  -18.7101   21.1498 C.ar    1  UNL1        0.0145
      3 C          -7.5655  -18.9737   20.0139 C.ar    1  UNL1        0.0505
      4 C          -8.0426  -19.7124   18.7987 C.ar    1  UNL1        0.0170
      5 C          -9.4631  -20.1875   18.7194 C.ar    1  UNL1        0.0306
      6 C         -10.4066  -19.9238   19.8553 C.ar    1  UNL1        0.1380
      7 F         -11.8272  -20.3989   19.7761 F       1  UNL1       -0.2044
      8 C         -10.0400  -20.0144   22.8080 C.3     1  UNL1        0.0321
      9 C         -10.8730  -18.9216   22.2065 C.3     1  UNL1        0.1432
     10 N         -11.3783  -17.9203   21.2105 N.2     1  UNL1       -0.2214
     11 C         -12.5378  -17.0349   21.5593 C.2     1  UNL1        0.2769
     12 N         -13.0432  -16.0336   20.5633 N.pl3   1  UNL1       -0.3133
     13 O         -13.1920  -17.1509   22.9042 O.2     1  UNL1       -0.4480
     14 C         -12.6867  -18.1522   23.9002 C.3     1  UNL1        0.2383
     15 C         -11.5272  -19.0375   23.5514 C.3     1  UNL1        0.2277
     16 F         -11.0218  -20.0388   24.5473 F       1  UNL1       -0.2309
     17 H         -12.6138  -15.9575   19.6806 H       1  UNL1        0.1466
     18 H         -13.8042  -15.4525   20.7922 H       1  UNL1        0.1466
     19 C         -13.3409  -18.2682   25.2451 C.3     1  UNL1        0.2394
     20 F         -14.7821  -18.6717   25.3457 F       1  UNL1       -0.2302
     21 N          -6.1449  -18.4986   20.0931 N.am    1  UNL1       -0.2791
     22 C          -5.0234  -19.4932   20.1481 C.2     1  UNL1        0.2681
     23 O          -5.3226  -20.9629   20.1240 O.2     1  UNL1       -0.2681
     24 H          -5.9486  -17.5340   20.1089 H       1  UNL1        0.1552
     25 C          -3.6029  -19.0182   20.2274 C.ar    1  UNL1        0.1453
     26 N          -2.8424  -18.7145   18.9706 N.ar    1  UNL1       -0.2377
     27 C          -1.4217  -18.2395   19.0499 C.ar    1  UNL1        0.1093
     28 C          -0.7617  -18.0681   20.3858 C.ar    1  UNL1        0.0884
     29 C          -1.5222  -18.3717   21.6426 C.ar    1  UNL1        0.0249
     30 C          -2.9427  -18.8467   21.5634 C.ar    1  UNL1        0.0804
     31 CL         -3.7032  -19.1504   22.8202 Cl      1  UNL1       -0.0805
     32 C           0.6589  -17.5931   20.4651 C.1     1  UNL1        0.1020
     33 N           2.0795  -17.1180   20.5443 N.1     1  UNL1       -0.1908
@<TRIPOS>BOND
     1     9     8    1
     2     9     1    1
     3     1     2   ar
     4     2     3   ar
     5     3    21    1
     6    21    22   am
     7    22    23    2
     8    22    25    1
     9    25    26   ar
    10    26    27   ar
    11    27    28   ar
    12    28    32    1
    13    32    33    3
    14    28    29   ar
    15    29    30   ar
    16    30    31    1
    17     3     4   ar
    18     4     5   ar
    19     5     6   ar
    20     6     7    1
    21     9    10    1
    22    10    11    2
    23    11    12    1
    24    11    13    1
    25    13    14    1
    26    14    19    1
    27    19    20    1
    28    14    15    1
    29    15    16    1
    30    15     9    1
    31     6     1   ar
    32    30    25   ar
    33    21    24    1
    34    12    17    1
    35    12    18    1
@<TRIPOS>MOLECULE
*****
 33 35 0 0 0
SMALL
GASTEIGER

@<TRIPOS>ATOM
      1 C           2.7862   -0.4817   20.3448 C.ar    1  UNL1        0.0293
      2 C           1.4174   -0.0561   20.7867 C.ar    1  UNL1        0.0145
      3 C           0.6160    0.8882   19.9405 C.ar    1  UNL1        0.0505
      4 C           1.1834    1.4069   18.6525 C.ar    1  UNL1        0.0170
      5 C           2.5522    0.9813   18.2106 C.ar    1  UNL1        0.0306
      6 C           3.3536    0.0370   19.0568 C.ar    1  UNL1        0.1380
      7 F           4.7224   -0.3887   18.6150 F       1  UNL1       -0.2044
      8 C           3.5672   -0.2248   22.0892 C.3     1  UNL1        0.0321
      9 C           3.5876   -1.4261   21.1910 C.3     1  UNL1        0.1432
     10 N           3.3297   -2.2993   19.9991 N.2     1  UNL1       -0.2214
     11 C           3.8661   -3.6997   19.9651 C.2     1  UNL1        0.2769
     12 N           3.6082   -4.5730   18.7731 N.pl3   1  UNL1       -0.3133
     13 O           4.6605   -4.2268   21.1233 O.2     1  UNL1       -0.4480
     14 C           4.9184   -3.3536   22.3152 C.3     1  UNL1        0.2383
     15 C           4.3820   -1.9532   22.3492 C.3     1  UNL1        0.2277
     16 F           4.6398   -1.0799   23.5411 F       1  UNL1       -0.2309
     17 H           3.0868   -4.2270   18.0130 H       1  UNL1        0.1466
     18 H           3.9602   -5.4921   18.7508 H       1  UNL1        0.1466
     19 C           5.7127   -3.8807   23.4734 C.3     1  UNL1        0.2394
     20 F           6.8592   -4.8174   23.2321 F       1  UNL1       -0.2302
     21 N          -0.7528    1.3138   20.3823 N.am    1  UNL1       -0.2791
     22 C          -1.0214    2.7527   20.7103 C.2     1  UNL1        0.2681
     23 O           0.0789    3.7659   20.5964 O.2     1  UNL1       -0.2681
     24 H          -1.4749    0.6489   20.4571 H       1  UNL1        0.1552
     25 C          -2.3901    3.1784   21.1521 C.ar    1  UNL1        0.1453
     26 N          -3.5159    3.2289   20.1621 N.ar    1  UNL1       -0.2377
     27 C          -4.8847    3.6546   20.6040 C.ar    1  UNL1        0.1093
     28 C          -5.1277    4.0298   22.0358 C.ar    1  UNL1        0.0884
     29 C          -4.0019    3.9793   23.0258 C.ar    1  UNL1        0.0249
     30 C          -2.6332    3.5536   22.5840 C.ar    1  UNL1        0.0804
     31 CL         -1.5074    3.5031   23.5740 Cl      1  UNL1       -0.0805
     32 C          -6.4965    4.4555   22.4776 C.1     1  UNL1        0.1020
     33 N          -7.8653    4.8812   22.9195 N.1     1  UNL1       -0.1908
@<TRIPOS>BOND
     1     9     8    1
     2     9     1    1
     3     1     2   ar
     4     2     3   ar
     5     3    21    1
     6    21    22   am
     7    22    23    2
     8    22    25    1
     9    25    26   ar
    10    26    27   ar
    11    27    28   ar
    12    28    32    1
    13    32    33    3
    14    28    29   ar
    15    29    30   ar
    16    30    31    1
    17     3     4   ar
    18     4     5   ar
    19     5     6   ar
    20     6     7    1
    21     9    10    1
    22    10    11    2
    23    11    12    1
    24    11    13    1
    25    13    14    1
    26    14    19    1
    27    19    20    1
    28    14    15    1
    29    15    16    1
    30    15     9    1
    31     6     1   ar
    32    30    25   ar
    33    21    24    1
    34    12    17    1
    35    12    18    1
@<TRIPOS>MOLECULE
*****
 33 35 0 0 0
SMALL
GASTEIGER

@<TRIPOS>ATOM
      1 C           3.3563   -0.6586   19.8370 C.ar    1  UNL1        0.0293
      2 C           2.3719   -0.2283   20.8838 C.ar    1  UNL1        0.0145
      3 C           1.1578    0.5608   20.4923 C.ar    1  UNL1        0.0505
      4 C           0.9282    0.9197   19.0541 C.ar    1  UNL1        0.0170
      5 C           1.9127    0.4894   18.0073 C.ar    1  UNL1        0.0306
      6 C           3.1267   -0.2998   18.3988 C.ar    1  UNL1        0.1380
      7 F           4.1112   -0.7301   17.3520 F       1  UNL1       -0.2044
      8 C           5.0677   -0.0573   20.4915 C.3     1  UNL1        0.0321
      9 C           4.5704   -1.4479   20.2285 C.3     1  UNL1        0.1432
     10 N           3.6515   -2.5643   19.8296 N.2     1  UNL1       -0.2214
     11 C           4.1193   -3.9870   19.9134 C.2     1  UNL1        0.2769
     12 N           3.2004   -5.1034   19.5145 N.pl3   1  UNL1       -0.3133
     13 O           5.5061   -4.2932   20.3962 O.2     1  UNL1       -0.4480
     14 C           6.4250   -3.1768   20.7951 C.3     1  UNL1        0.2383
     15 C           5.9572   -1.7541   20.7113 C.3     1  UNL1        0.2277
     16 F           6.8760   -0.6376   21.1102 F       1  UNL1       -0.2309
     17 H           2.2902   -4.9024   19.1976 H       1  UNL1        0.1466
     18 H           3.5074   -6.0372   19.5695 H       1  UNL1        0.1466
     19 C           7.8119   -3.4830   21.2779 C.3     1  UNL1        0.2394
     20 F           8.7652   -4.2319   20.3945 F       1  UNL1       -0.2302
     21 N           0.1733    0.9912   21.5391 N.am    1  UNL1       -0.2791
     22 C           0.2926    2.3476   22.1683 C.2     1  UNL1        0.2681
     23 O           1.3964    3.2736   21.7508 O.2     1  UNL1       -0.2681
     24 H          -0.5511    0.3834   21.8131 H       1  UNL1        0.1552
     25 C          -0.6918    2.7779   23.2151 C.ar    1  UNL1        0.1453
     26 N          -1.8955    3.5842   22.8263 N.ar    1  UNL1       -0.2377
     27 C          -2.8799    4.0146   23.8731 C.ar    1  UNL1        0.1093
     28 C          -2.6607    3.6386   25.3086 C.ar    1  UNL1        0.0884
     29 C          -1.4570    2.8323   25.6973 C.ar    1  UNL1        0.0249
     30 C          -0.4726    2.4020   24.6506 C.ar    1  UNL1        0.0804
     31 CL          0.7310    1.5957   25.0393 Cl      1  UNL1       -0.0805
     32 C          -3.6451    4.0690   26.3553 C.1     1  UNL1        0.1020
     33 N          -4.6295    4.4994   27.4021 N.1     1  UNL1       -0.1908
@<TRIPOS>BOND
     1     9     8    1
     2     9     1    1
     3     1     2   ar
     4     2     3   ar
     5     3    21    1
     6    21    22   am
     7    22    23    2
     8    22    25    1
     9    25    26   ar
    10    26    27   ar
    11    27    28   ar
    12    28    32    1
    13    32    33    3
    14    28    29   ar
    15    29    30   ar
    16    30    31    1
    17     3     4   ar
    18     4     5   ar
    19     5     6   ar
    20     6     7    1
    21     9    10    1
    22    10    11    2
    23    11    12    1
    24    11    13    1
    25    13    14    1
    26    14    19    1
    27    19    20    1
    28    14    15    1
    29    15    16    1
    30    15     9    1
    31     6     1   ar
    32    30    25   ar
    33    21    24    1
    34    12    17    1
    35    12    18    1
@<TRIPOS>MOLECULE
*****
 33 35 0 0 0
SMALL
GASTEIGER

@<TRIPOS>ATOM
      1 C           4.1383   -0.3919   18.8281 C.ar    1  UNL1        0.0293
      2 C           4.8181   -0.7936   20.1034 C.ar    1  UNL1        0.0145
      3 C           5.5726   -2.0880   20.1757 C.ar    1  UNL1        0.0505
      4 C           5.6472   -2.9807   18.9726 C.ar    1  UNL1        0.0170
      5 C           4.9674   -2.5791   17.6973 C.ar    1  UNL1        0.0306
      6 C           4.2130   -1.2847   17.6250 C.ar    1  UNL1        0.1380
      7 F           3.5332   -0.8830   16.3496 F       1  UNL1       -0.2044
      8 C           4.6810    1.3218   18.1300 C.3     1  UNL1        0.0321
      9 C           3.3838    0.9025   18.7558 C.3     1  UNL1        0.1432
     10 N           2.3487    0.0337   19.4066 N.2     1  UNL1       -0.2214
     11 C           1.0096    0.6049   19.7679 C.2     1  UNL1        0.2769
     12 N          -0.0256   -0.2639   20.4187 N.pl3   1  UNL1       -0.3133
     13 O           0.7056    2.0450   19.4782 O.2     1  UNL1       -0.4480
     14 C           1.7407    2.9138   18.8274 C.3     1  UNL1        0.2383
     15 C           3.0799    2.3426   18.4662 C.3     1  UNL1        0.2277
     16 F           4.1150    3.2114   17.8153 F       1  UNL1       -0.2309
     17 H           0.1740   -1.2091   20.6088 H       1  UNL1        0.1466
     18 H          -0.9045    0.1110   20.6558 H       1  UNL1        0.1466
     19 C           1.4368    4.3539   18.5377 C.3     1  UNL1        0.2394
     20 F           1.7978    4.9436   17.2066 F       1  UNL1       -0.2302
     21 N           6.2524   -2.4897   21.4511 N.am    1  UNL1       -0.2791
     22 C           5.7152   -3.6335   22.2592 C.2     1  UNL1        0.2681
     23 O           4.4982   -4.3756   21.7920 O.2     1  UNL1       -0.2681
     24 H           7.0511   -2.0026   21.7577 H       1  UNL1        0.1552
     25 C           6.3950   -4.0352   23.5346 C.ar    1  UNL1        0.1453
     26 N           7.3441   -5.1968   23.5449 N.ar    1  UNL1       -0.2377
     27 C           8.0239   -5.5985   24.8204 C.ar    1  UNL1        0.1093
     28 C           7.7545   -4.8387   26.0853 C.ar    1  UNL1        0.0884
     29 C           6.8055   -3.6771   26.0749 C.ar    1  UNL1        0.0249
     30 C           6.1257   -3.2754   24.7996 C.ar    1  UNL1        0.0804
     31 CL          5.1766   -2.1139   24.7892 Cl      1  UNL1       -0.0805
     32 C           8.4343   -5.2404   27.3606 C.1     1  UNL1        0.1020
     33 N           9.1142   -5.6421   28.6360 N.1     1  UNL1       -0.1908
@<TRIPOS>BOND
     1     9     8    1
     2     9     1    1
     3     1     2   ar
     4     2     3   ar
     5     3    21    1
     6    21    22   am
     7    22    23    2
     8    22    25    1
     9    25    26   ar
    10    26    27   ar
    11    27    28   ar
    12    28    32    1
    13    32    33    3
    14    28    29   ar
    15    29    30   ar
    16    30    31    1
    17     3     4   ar
    18     4     5   ar
    19     5     6   ar
    20     6     7    1
    21     9    10    1
    22    10    11    2
    23    11    12    1
    24    11    13    1
    25    13    14    1
    26    14    19    1
    27    19    20    1
    28    14    15    1
    29    15    16    1
    30    15     9    1
    31     6     1   ar
    32    30    25   ar
    33    21    24    1
    34    12    17    1
    35    12    18    1
@<TRIPOS>MOLECULE
*****
 33 35 0 0 0
SMALL
GASTEIGER

@<TRIPOS>ATOM
      1 C           3.2999   -0.9371   19.8785 C.ar    1  UNL1        0.0293
      2 C           3.7511   -1.8221   21.0024 C.ar    1  UNL1        0.0145
      3 C           4.6760   -2.9706   20.7277 C.ar    1  UNL1        0.0505
      4 C           5.1496   -3.2341   19.3290 C.ar    1  UNL1        0.0170
      5 C           4.6984   -2.3491   18.2051 C.ar    1  UNL1        0.0306
      6 C           3.7735   -1.2006   18.4799 C.ar    1  UNL1        0.1380
      7 F           3.3222   -0.3156   17.3560 F       1  UNL1       -0.2044
      8 C           1.3764   -0.8989   20.0115 C.3     1  UNL1        0.0321
      9 C           2.3750    0.2115   20.1533 C.3     1  UNL1        0.1432
     10 N           3.6946    0.9229   20.1997 N.2     1  UNL1       -0.2214
     11 C           3.7427    2.3973   20.4716 C.2     1  UNL1        0.2769
     12 N           5.0624    3.1088   20.5179 N.pl3   1  UNL1       -0.3133
     13 O           2.4710    3.1602   20.6970 O.2     1  UNL1       -0.4480
     14 C           1.1513    2.4487   20.6506 C.3     1  UNL1        0.2383
     15 C           1.1032    0.9744   20.3788 C.3     1  UNL1        0.2277
     16 F          -0.2164    0.2628   20.3323 F       1  UNL1       -0.2309
     17 H           5.8971    2.6080   20.3700 H       1  UNL1        0.1466
     18 H           5.0940    4.0765   20.6964 H       1  UNL1        0.1466
     19 C          -0.1204    3.2116   20.8761 C.3     1  UNL1        0.2394
     20 F          -1.2417    3.1100   19.8850 F       1  UNL1       -0.2302
     21 N           5.1273   -3.8556   21.8516 N.am    1  UNL1       -0.2791
     22 C           6.4807   -3.6557   22.4665 C.2     1  UNL1        0.2681
     23 O           7.3829   -2.5707   21.9575 O.2     1  UNL1       -0.2681
     24 H           4.5351   -4.5677   22.1856 H       1  UNL1        0.1552
     25 C           6.9320   -4.5407   23.5904 C.ar    1  UNL1        0.1453
     26 N           7.6505   -5.8234   23.2928 N.ar    1  UNL1       -0.2377
     27 C           8.1018   -6.7083   24.4168 C.ar    1  UNL1        0.1093
     28 C           7.8347   -6.3106   25.8382 C.ar    1  UNL1        0.0884
     29 C           7.1162   -5.0280   26.1357 C.ar    1  UNL1        0.0249
     30 C           6.6649   -4.1430   25.0118 C.ar    1  UNL1        0.0804
     31 CL          5.9464   -2.8603   25.3094 Cl      1  UNL1       -0.0805
     32 C           8.2860   -7.1956   26.9620 C.1     1  UNL1        0.1020
     33 N           8.7373   -8.0806   28.0860 N.1     1  UNL1       -0.1908
@<TRIPOS>BOND
     1     9     8    1
     2     9     1    1
     3     1     2   ar
     4     2     3   ar
     5     3    21    1
     6    21    22   am
     7    22    23    2
     8    22    25    1
     9    25    26   ar
    10    26    27   ar
    11    27    28   ar
    12    28    32    1
    13    32    33    3
    14    28    29   ar
    15    29    30   ar
    16    30    31    1
    17     3     4   ar
    18     4     5   ar
    19     5     6   ar
    20     6     7    1
    21     9    10    1
    22    10    11    2
    23    11    12    1
    24    11    13    1
    25    13    14    1
    26    14    19    1
    27    19    20    1
    28    14    15    1
    29    15    16    1
    30    15     9    1
    31     6     1   ar
    32    30    25   ar
    33    21    24    1
    34    12    17    1
    35    12    18    1
@<TRIPOS>MOLECULE
*****
 33 35 0 0 0
SMALL
GASTEIGER

@<TRIPOS>ATOM
      1 C           3.3121   -0.7648   19.6916 C.ar    1  UNL1        0.0293
      2 C           2.3140   -0.3313   20.7239 C.ar    1  UNL1        0.0145
      3 C           1.1576    0.5391   20.3301 C.ar    1  UNL1        0.0505
      4 C           0.9994    0.9760   18.9039 C.ar    1  UNL1        0.0170
      5 C           1.9975    0.5425   17.8715 C.ar    1  UNL1        0.0306
      6 C           3.1539   -0.3279   18.2654 C.ar    1  UNL1        0.1380
      7 F           4.1521   -0.7614   17.2330 F       1  UNL1       -0.2044
      8 C           3.4507   -2.6871   19.7574 C.3     1  UNL1        0.0321
      9 C           4.4686   -1.6352   20.0854 C.3     1  UNL1        0.1432
     10 N           5.0848   -0.2811   20.2766 N.2     1  UNL1       -0.2214
     11 C           6.5040   -0.1627   20.7477 C.2     1  UNL1        0.2769
     12 N           7.1202    1.1915   20.9389 N.pl3   1  UNL1       -0.3133
     13 O           7.3069   -1.3984   21.0276 O.2     1  UNL1       -0.4480
     14 C           6.6907   -2.7525   20.8364 C.3     1  UNL1        0.2383
     15 C           5.2715   -2.8710   20.3653 C.3     1  UNL1        0.2277
     16 F           4.6552   -4.2250   20.1741 F       1  UNL1       -0.2309
     17 H           6.5933    2.0025   20.7552 H       1  UNL1        0.1466
     18 H           8.0517    1.2692   21.2481 H       1  UNL1        0.1466
     19 C           7.4936   -3.9883   21.1163 C.3     1  UNL1        0.2394
     20 F           8.7113   -4.2934   20.2953 F       1  UNL1       -0.2302
     21 N           0.1594    0.9726   21.3625 N.am    1  UNL1       -0.2791
     22 C           0.3338    2.2835   22.0703 C.2     1  UNL1        0.2681
     23 O           1.5065    3.1609   21.7458 O.2     1  UNL1       -0.2681
     24 H          -0.6101    0.3967   21.5754 H       1  UNL1        0.1552
     25 C          -0.6643    2.7171   23.1026 C.ar    1  UNL1        0.1453
     26 N          -0.4224    2.4170   24.5523 N.ar    1  UNL1       -0.2377
     27 C          -1.4206    2.8506   25.5846 C.ar    1  UNL1        0.1093
     28 C          -2.6606    3.5842   25.1673 C.ar    1  UNL1        0.0884
     29 C          -2.9024    3.8843   23.7177 C.ar    1  UNL1        0.0249
     30 C          -1.9043    3.4508   22.6853 C.ar    1  UNL1        0.0804
     31 CL         -2.1462    3.7509   21.2357 Cl      1  UNL1       -0.0805
     32 C          -3.6587    4.0177   26.1996 C.1     1  UNL1        0.1020
     33 N          -4.6569    4.4513   27.2320 N.1     1  UNL1       -0.1908
@<TRIPOS>BOND
     1     9     8    1
     2     9     1    1
     3     1     2   ar
     4     2     3   ar
     5     3    21    1
     6    21    22   am
     7    22    23    2
     8    22    25    1
     9    25    26   ar
    10    26    27   ar
    11    27    28   ar
    12    28    32    1
    13    32    33    3
    14    28    29   ar
    15    29    30   ar
    16    30    31    1
    17     3     4   ar
    18     4     5   ar
    19     5     6   ar
    20     6     7    1
    21     9    10    1
    22    10    11    2
    23    11    12    1
    24    11    13    1
    25    13    14    1
    26    14    19    1
    27    19    20    1
    28    14    15    1
    29    15    16    1
    30    15     9    1
    31     6     1   ar
    32    30    25   ar
    33    21    24    1
    34    12    17    1
    35    12    18    1
@<TRIPOS>MOLECULE
*****
 33 35 0 0 0
SMALL
GASTEIGER

@<TRIPOS>ATOM
      1 C           1.9903    0.8304   20.2338 C.ar    1  UNL1        0.0293
      2 C           0.5856    1.0373   20.7173 C.ar    1  UNL1        0.0145
      3 C          -0.2600    2.1240   20.1223 C.ar    1  UNL1        0.0505
      4 C           0.2992    3.0037   19.0437 C.ar    1  UNL1        0.0170
      5 C           1.7040    2.7968   18.5602 C.ar    1  UNL1        0.0306
      6 C           2.5495    1.7102   19.1552 C.ar    1  UNL1        0.1380
      7 F           3.9543    1.5032   18.6717 F       1  UNL1       -0.2044
      8 C           2.2110   -1.0066   19.6902 C.3     1  UNL1        0.0321
      9 C           2.8360   -0.2563   20.8289 C.3     1  UNL1        0.1432
     10 N           3.1673    0.8714   21.7609 N.2     1  UNL1       -0.2214
     11 C           4.1271    0.6518   22.8924 C.2     1  UNL1        0.2769
     12 N           4.4584    1.7795   23.8244 N.pl3   1  UNL1       -0.3133
     13 O           4.7557   -0.6955   23.0920 O.2     1  UNL1       -0.4480
     14 C           4.4244   -1.8231   22.1601 C.3     1  UNL1        0.2383
     15 C           3.4646   -1.6036   21.0285 C.3     1  UNL1        0.2277
     16 F           3.1332   -2.7312   20.0965 F       1  UNL1       -0.2309
     17 H           4.0458    2.6638   23.6934 H       1  UNL1        0.1466
     18 H           5.0884    1.6354   24.5671 H       1  UNL1        0.1466
     19 C           5.0530   -3.1704   22.3596 C.3     1  UNL1        0.2394
     20 F           4.2103   -4.4092   22.2875 F       1  UNL1       -0.2302
     21 N          -1.6648    2.3309   20.6058 N.am    1  UNL1       -0.2791
     22 C          -1.9889    3.4972   21.4916 C.2     1  UNL1        0.2681
     23 O          -0.9082    4.4566   21.8939 O.2     1  UNL1       -0.2681
     24 H          -2.3741    1.7013   20.3418 H       1  UNL1        0.1552
     25 C          -3.3936    3.7042   21.9751 C.ar    1  UNL1        0.1453
     26 N          -3.7196    3.5310   23.4290 N.ar    1  UNL1       -0.2377
     27 C          -5.1244    3.7380   23.9125 C.ar    1  UNL1        0.1093
     28 C          -6.2032    4.1182   22.9421 C.ar    1  UNL1        0.0884
     29 C          -5.8772    4.2914   21.4883 C.ar    1  UNL1        0.0249
     30 C          -4.4725    4.0844   21.0047 C.ar    1  UNL1        0.0804
     31 CL         -4.1466    4.2577   19.5509 Cl      1  UNL1       -0.0805
     32 C          -7.6079    4.3252   23.4256 C.1     1  UNL1        0.1020
     33 N          -9.0128    4.5322   23.9091 N.1     1  UNL1       -0.1908
@<TRIPOS>BOND
     1     9     8    1
     2     9     1    1
     3     1     2   ar
     4     2     3   ar
     5     3    21    1
     6    21    22   am
     7    22    23    2
     8    22    25    1
     9    25    26   ar
    10    26    27   ar
    11    27    28   ar
    12    28    32    1
    13    32    33    3
    14    28    29   ar
    15    29    30   ar
    16    30    31    1
    17     3     4   ar
    18     4     5   ar
    19     5     6   ar
    20     6     7    1
    21     9    10    1
    22    10    11    2
    23    11    12    1
    24    11    13    1
    25    13    14    1
    26    14    19    1
    27    19    20    1
    28    14    15    1
    29    15    16    1
    30    15     9    1
    31     6     1   ar
    32    30    25   ar
    33    21    24    1
    34    12    17    1
    35    12    18    1
@<TRIPOS>MOLECULE
*****
 33 35 0 0 0
SMALL
GASTEIGER

@<TRIPOS>ATOM
      1 C           3.9962   -1.3423   20.4044 C.ar    1  UNL1        0.0293
      2 C           4.1949   -1.4774   21.8850 C.ar    1  UNL1        0.0145
      3 C           4.4998   -2.8195   22.4814 C.ar    1  UNL1        0.0505
      4 C           4.6060   -4.0265   21.5972 C.ar    1  UNL1        0.0170
      5 C           4.4073   -3.8915   20.1166 C.ar    1  UNL1        0.0306
      6 C           4.1024   -2.5494   19.5202 C.ar    1  UNL1        0.1380
      7 F           3.9037   -2.4142   18.0395 F       1  UNL1       -0.2044
      8 C           5.1710   -0.0610   19.5696 C.3     1  UNL1        0.0321
      9 C           3.6912   -0.0002   19.8079 C.3     1  UNL1        0.1432
     10 N           2.3175   -0.4055   20.2533 N.2     1  UNL1       -0.2214
     11 C           1.1526    0.5102   20.0195 C.2     1  UNL1        0.2769
     12 N          -0.2212    0.1049   20.4650 N.pl3   1  UNL1       -0.3133
     13 O           1.3616    1.8313   19.3403 O.2     1  UNL1       -0.4480
     14 C           2.7354    2.2365   18.8949 C.3     1  UNL1        0.2383
     15 C           3.9002    1.3208   19.1287 C.3     1  UNL1        0.2277
     16 F           5.2741    1.7260   18.6833 F       1  UNL1       -0.2309
     17 H          -0.3583   -0.7621   20.9107 H       1  UNL1        0.1466
     18 H          -0.9857    0.7059   20.3115 H       1  UNL1        0.1466
     19 C           2.9444    3.5575   18.2157 C.3     1  UNL1        0.2394
     20 F           3.1509    4.7974   19.0343 F       1  UNL1       -0.2302
     21 N           4.6985   -2.9547   23.9620 N.am    1  UNL1       -0.2791
     22 C           6.0834   -2.9340   24.5379 C.2     1  UNL1        0.2681
     23 O           7.2696   -2.7782   23.6330 O.2     1  UNL1       -0.2681
     24 H           3.9199   -3.0569   24.5559 H       1  UNL1        0.1552
     25 C           6.2822   -3.0691   26.0184 C.ar    1  UNL1        0.1453
     26 N           5.9289   -1.9311   26.9296 N.ar    1  UNL1       -0.2377
     27 C           6.1276   -2.0663   28.4102 C.ar    1  UNL1        0.1093
     28 C           6.6797   -3.3395   28.9797 C.ar    1  UNL1        0.0884
     29 C           7.0330   -4.4775   28.0686 C.ar    1  UNL1        0.0249
     30 C           6.8342   -4.3423   26.5880 C.ar    1  UNL1        0.0804
     31 CL          7.1875   -5.4803   25.6769 Cl      1  UNL1       -0.0805
     32 C           6.8784   -3.4746   30.4603 C.1     1  UNL1        0.1020
     33 N           7.0772   -3.6097   31.9410 N.1     1  UNL1       -0.1908
@<TRIPOS>BOND
     1     9     8    1
     2     9     1    1
     3     1     2   ar
     4     2     3   ar
     5     3    21    1
     6    21    22   am
     7    22    23    2
     8    22    25    1
     9    25    26   ar
    10    26    27   ar
    11    27    28   ar
    12    28    32    1
    13    32    33    3
    14    28    29   ar
    15    29    30   ar
    16    30    31    1
    17     3     4   ar
    18     4     5   ar
    19     5     6   ar
    20     6     7    1
    21     9    10    1
    22    10    11    2
    23    11    12    1
    24    11    13    1
    25    13    14    1
    26    14    19    1
    27    19    20    1
    28    14    15    1
    29    15    16    1
    30    15     9    1
    31     6     1   ar
    32    30    25   ar
    33    21    24    1
    34    12    17    1
    35    12    18    1
@<TRIPOS>MOLECULE
*****
 33 35 0 0 0
SMALL
GASTEIGER

@<TRIPOS>ATOM
      1 C           3.0451   -0.3107   20.3651 C.ar    1  UNL1        0.0293
      2 C           2.8471   -0.2579   21.8511 C.ar    1  UNL1        0.0145
      3 C           1.5784    0.3056   22.4190 C.ar    1  UNL1        0.0505
      4 C           0.5076    0.8163   21.5011 C.ar    1  UNL1        0.0170
      5 C           0.7056    0.7635   20.0152 C.ar    1  UNL1        0.0306
      6 C           1.9743    0.2000   19.4472 C.ar    1  UNL1        0.1380
      7 F           2.1723    0.1471   17.9612 F       1  UNL1       -0.2044
      8 C           4.7751    0.5111   20.1406 C.3     1  UNL1        0.0321
      9 C           4.3139   -0.8743   19.7971 C.3     1  UNL1        0.1432
     10 N           3.4121   -2.0639   19.6508 N.2     1  UNL1       -0.2214
     11 C           3.9392   -3.3360   19.0559 C.2     1  UNL1        0.2769
     12 N           3.0374   -4.5257   18.9096 N.pl3   1  UNL1       -0.3133
     13 O           5.3682   -3.4184   18.6071 O.2     1  UNL1       -0.4480
     14 C           6.2700   -2.2287   18.7534 C.3     1  UNL1        0.2383
     15 C           5.7429   -0.9567   19.3484 C.3     1  UNL1        0.2277
     16 F           6.6446    0.2331   19.4947 F       1  UNL1       -0.2309
     17 H           2.0995   -4.4716   19.2041 H       1  UNL1        0.1466
     18 H           3.3833   -5.3606   18.5191 H       1  UNL1        0.1466
     19 C           7.6990   -2.3111   18.3047 C.3     1  UNL1        0.2394
     20 F           8.8085   -2.1140   19.2947 F       1  UNL1       -0.2302
     21 N           1.3804    0.3585   23.9050 N.am    1  UNL1       -0.2791
     22 C           1.7377    1.6010   24.6655 C.2     1  UNL1        0.2681
     23 O           2.2931    2.7907   23.9400 O.2     1  UNL1       -0.2681
     24 H           1.0159   -0.4223   24.3811 H       1  UNL1        0.1552
     25 C           1.5397    1.6540   26.1514 C.ar    1  UNL1        0.1453
     26 N           2.7027    1.4285   27.0715 N.ar    1  UNL1       -0.2377
     27 C           2.5047    1.4814   28.5575 C.ar    1  UNL1        0.1093
     28 C           1.1437    1.7598   29.1233 C.ar    1  UNL1        0.0884
     29 C          -0.0193    1.9852   28.2032 C.ar    1  UNL1        0.0249
     30 C           0.1787    1.9323   26.7173 C.ar    1  UNL1        0.0804
     31 CL         -0.9843    2.1578   25.7972 Cl      1  UNL1       -0.0805
     32 C           0.9457    1.8127   30.6092 C.1     1  UNL1        0.1020
     33 N           0.7476    1.8655   32.0952 N.1     1  UNL1       -0.1908
@<TRIPOS>BOND
     1     9     8    1
     2     9     1    1
     3     1     2   ar
     4     2     3   ar
     5     3    21    1
     6    21    22   am
     7    22    23    2
     8    22    25    1
     9    25    26   ar
    10    26    27   ar
    11    27    28   ar
    12    28    32    1
    13    32    33    3
    14    28    29   ar
    15    29    30   ar
    16    30    31    1
    17     3     4   ar
    18     4     5   ar
    19     5     6   ar
    20     6     7    1
    21     9    10    1
    22    10    11    2
    23    11    12    1
    24    11    13    1
    25    13    14    1
    26    14    19    1
    27    19    20    1
    28    14    15    1
    29    15    16    1
    30    15     9    1
    31     6     1   ar
    32    30    25   ar
    33    21    24    1
    34    12    17    1
    35    12    18    1
