@<TRIPOS>MOLECULE
*****
 24 27 0 0 0
SMALL
GASTEIGER

@<TRIPOS>ATOM
      1 C          -5.5945  -15.8589   24.0234 C.3     1  UNL1        0.0947
      2 C          -5.5058  -15.3394   25.4277 C.3     1  UNL1        0.0222
      3 C          -6.7256  -15.3257   26.3006 C.3     1  UNL1        0.0065
      4 C          -8.0339  -15.8314   25.7692 C.3     1  UNL1        0.0277
      5 C          -8.1226  -16.3509   24.3649 C.2     1  UNL1       -0.0062
      6 C          -6.9029  -16.3646   23.4919 C.2     1  UNL1        0.0689
      7 N          -7.2930  -16.9318   22.1592 N.2     1  UNL1       -0.2526
      8 C          -8.7539  -17.2686   22.2085 C.2     1  UNL1        0.0627
      9 C          -9.6835  -17.8558   21.1883 C.3     1  UNL1        0.0722
     10 C         -11.1259  -18.0840   21.5312 C.2     1  UNL1       -0.0131
     11 C         -11.6386  -17.7249   22.8943 C.2     1  UNL1        0.0307
     12 BR        -13.0810  -17.9531   23.2373 Br      1  UNL1       -0.0493
     13 C         -10.7089  -17.1377   23.9146 C.2     1  UNL1        0.0073
     14 C          -9.2666  -16.9095   23.5717 C.2     1  UNL1        0.0116
     15 N          -4.3748  -15.8727   23.1503 N.3     1  UNL1       -0.2915
     16 H          -4.6822  -15.6213   22.2108 H       1  UNL1        0.1238
     17 C          -3.5143  -18.1119   24.1480 C.3     1  UNL1        0.0220
     18 C          -3.5607  -17.1257   23.0188 C.3     1  UNL1        0.0771
     19 C          -2.7931  -17.3925   21.7579 C.ar    1  UNL1       -0.0080
     20 C          -1.5897  -16.5622   21.4226 C.ar    1  UNL1       -0.0030
     21 C          -0.8222  -16.8290   20.1618 C.ar    1  UNL1       -0.0003
     22 C          -1.2580  -17.9260   19.2364 C.ar    1  UNL1       -0.0000
     23 C          -2.4614  -18.7563   19.5717 C.ar    1  UNL1       -0.0003
     24 C          -3.2290  -18.4896   20.8325 C.ar    1  UNL1       -0.0030
@<TRIPOS>BOND
     1    18    17    1
     2    18    15    1
     3     1    15    1
     4     1     2    1
     5     2     3    1
     6     3     4    1
     7     4     5    1
     8     5     6    2
     9     6     7    1
    10     7     8    2
    11     8     9    1
    12     9    10    1
    13    10    11    2
    14    11    12    1
    15    11    13    1
    16    13    14    2
    17    18    19    1
    18    19    20   ar
    19    20    21   ar
    20    21    22   ar
    21    22    23   ar
    22    23    24   ar
    23     6     1    1
    24    14     8    1
    25    24    19   ar
    26    14     5    1
    27    15    16    1
@<TRIPOS>MOLECULE
*****
 24 27 0 0 0
SMALL
GASTEIGER

@<TRIPOS>ATOM
      1 C          -5.1308  -18.3234   22.8401 C.3     1  UNL1        0.0947
      2 C          -4.4593  -17.1459   23.4823 C.3     1  UNL1        0.0222
      3 C          -5.2676  -15.9464   23.8797 C.3     1  UNL1        0.0065
      4 C          -6.7473  -15.9245   23.6348 C.3     1  UNL1        0.0277
      5 C          -7.4187  -17.1020   22.9926 C.2     1  UNL1       -0.0062
      6 C          -6.6105  -18.3015   22.5953 C.2     1  UNL1        0.0689
      7 N          -7.5419  -19.3068   21.9854 N.2     1  UNL1       -0.2526
      8 C          -8.9258  -18.7286   22.0059 C.2     1  UNL1        0.0627
      9 C         -10.2455  -19.2668   21.5381 C.3     1  UNL1        0.0722
     10 C         -11.4891  -18.4423   21.6928 C.2     1  UNL1       -0.0131
     11 C         -11.4130  -17.0797   22.3153 C.2     1  UNL1        0.0307
     12 BR        -12.6565  -16.2552   22.4700 Br      1  UNL1       -0.0493
     13 C         -10.0932  -16.5415   22.7831 C.2     1  UNL1        0.0073
     14 C          -8.8497  -17.3660   22.6284 C.2     1  UNL1        0.0116
     15 N          -4.3225  -19.5230   22.4428 N.3     1  UNL1       -0.2915
     16 H          -3.4457  -19.4722   22.9614 H       1  UNL1        0.1238
     17 C          -4.7269  -20.7354   20.1808 C.3     1  UNL1        0.0220
     18 C          -3.9621  -19.7411   21.0031 C.3     1  UNL1        0.0771
     19 C          -2.8367  -18.9648   20.3859 C.ar    1  UNL1       -0.0080
     20 C          -2.9150  -18.5455   18.9478 C.ar    1  UNL1       -0.0030
     21 C          -1.7897  -17.7693   18.3305 C.ar    1  UNL1       -0.0003
     22 C          -0.5860  -17.4123   19.1513 C.ar    1  UNL1       -0.0000
     23 C          -0.5077  -17.8316   20.5894 C.ar    1  UNL1       -0.0003
     24 C          -1.6330  -18.6078   21.2067 C.ar    1  UNL1       -0.0030
@<TRIPOS>BOND
     1    18    17    1
     2    18    15    1
     3     1    15    1
     4     1     2    1
     5     2     3    1
     6     3     4    1
     7     4     5    1
     8     5     6    2
     9     6     7    1
    10     7     8    2
    11     8     9    1
    12     9    10    1
    13    10    11    2
    14    11    12    1
    15    11    13    1
    16    13    14    2
    17    18    19    1
    18    19    20   ar
    19    20    21   ar
    20    21    22   ar
    21    22    23   ar
    22    23    24   ar
    23     6     1    1
    24    14     8    1
    25    24    19   ar
    26    14     5    1
    27    15    16    1
@<TRIPOS>MOLECULE
*****
 24 27 0 0 0
SMALL
GASTEIGER

@<TRIPOS>ATOM
      1 C          -8.0966  -16.0793   24.2277 C.3     1  UNL1        0.0947
      2 C          -7.5544  -15.1570   25.2790 C.3     1  UNL1        0.0222
      3 C          -6.0767  -15.0896   25.5279 C.3     1  UNL1        0.0065
      4 C          -5.1413  -15.9446   24.7254 C.3     1  UNL1        0.0277
      5 C          -5.6835  -16.8670   23.6742 C.2     1  UNL1       -0.0062
      6 C          -7.1611  -16.9344   23.4253 C.2     1  UNL1        0.0689
      7 N          -7.4019  -17.9312   22.3305 N.2     1  UNL1       -0.2526
      8 C          -6.0730  -18.4798   21.9028 C.2     1  UNL1        0.0627
      9 C          -5.6928  -19.4933   20.8645 C.3     1  UNL1        0.0722
     10 C          -4.2504  -19.8492   20.6565 C.2     1  UNL1       -0.0131
     11 C          -3.1884  -19.1915   21.4869 C.2     1  UNL1        0.0307
     12 BR         -1.7461  -19.5474   21.2790 Br      1  UNL1       -0.0493
     13 C          -3.5687  -18.1780   22.5253 C.2     1  UNL1        0.0073
     14 C          -5.0110  -17.8222   22.7332 C.2     1  UNL1        0.0116
     15 N          -9.5743  -16.1467   23.9788 N.3     1  UNL1       -0.2915
     16 H         -10.0290  -15.7292   24.7908 H       1  UNL1        0.1238
     17 C         -10.5726  -18.3573   24.9098 C.3     1  UNL1        0.0220
     18 C         -10.2360  -17.4727   23.7462 C.3     1  UNL1        0.0771
     19 C         -10.5610  -17.9139   22.3498 C.ar    1  UNL1       -0.0080
     20 C         -10.8469  -16.8935   21.2882 C.ar    1  UNL1       -0.0030
     21 C         -11.1719  -17.3347   19.8920 C.ar    1  UNL1       -0.0003
     22 C         -11.2110  -18.7963   19.5573 C.ar    1  UNL1       -0.0000
     23 C         -10.9251  -19.8168   20.6189 C.ar    1  UNL1       -0.0003
     24 C         -10.6001  -19.3756   22.0152 C.ar    1  UNL1       -0.0030
@<TRIPOS>BOND
     1    18    17    1
     2    18    15    1
     3     1    15    1
     4     1     2    1
     5     2     3    1
     6     3     4    1
     7     4     5    1
     8     5     6    2
     9     6     7    1
    10     7     8    2
    11     8     9    1
    12     9    10    1
    13    10    11    2
    14    11    12    1
    15    11    13    1
    16    13    14    2
    17    18    19    1
    18    19    20   ar
    19    20    21   ar
    20    21    22   ar
    21    22    23   ar
    22    23    24   ar
    23     6     1    1
    24    14     8    1
    25    24    19   ar
    26    14     5    1
    27    15    16    1
@<TRIPOS>MOLECULE
*****
 24 27 0 0 0
SMALL
GASTEIGER

@<TRIPOS>ATOM
      1 C         -11.9076   -6.4332   18.9506 C.3     1  UNL1        0.0947
      2 C         -10.4096   -6.4544   18.8772 C.3     1  UNL1        0.0222
      3 C          -9.6482   -5.1717   18.7193 C.3     1  UNL1        0.0065
      4 C         -10.3849   -3.8678   18.6347 C.3     1  UNL1        0.0277
      5 C         -11.8829   -3.8466   18.7080 C.2     1  UNL1       -0.0062
      6 C         -12.6443   -5.1293   18.8660 C.2     1  UNL1        0.0689
      7 N         -14.1067   -4.7981   18.9086 N.2     1  UNL1       -0.2526
      8 C         -14.2491   -3.3107   18.7770 C.2     1  UNL1        0.0627
      9 C         -15.4526   -2.4158   18.7541 C.3     1  UNL1        0.0722
     10 C         -15.2819   -0.9328   18.6071 C.2     1  UNL1       -0.0131
     11 C         -13.9075   -0.3447   18.4831 C.2     1  UNL1        0.0307
     12 BR        -13.7367    1.1383   18.3362 Br      1  UNL1       -0.0493
     13 C         -12.7039   -1.2397   18.5061 C.2     1  UNL1        0.0073
     14 C         -12.8747   -2.7227   18.6530 C.2     1  UNL1        0.0116
     15 N         -12.6690   -7.7160   19.1086 N.3     1  UNL1       -0.2915
     16 H         -11.9792   -8.4669   19.1317 H       1  UNL1        0.1238
     17 C         -13.4174   -7.9252   16.6295 C.3     1  UNL1        0.0220
     18 C         -13.7000   -8.1062   18.0914 C.3     1  UNL1        0.0771
     19 C         -15.0137   -8.6776   18.5362 C.ar    1  UNL1       -0.0080
     20 C         -15.8816   -7.9097   19.4887 C.ar    1  UNL1       -0.0030
     21 C         -17.1952   -8.4811   19.9335 C.ar    1  UNL1       -0.0003
     22 C         -17.6410   -9.8202   19.4258 C.ar    1  UNL1       -0.0000
     23 C         -16.7732  -10.5881   18.4734 C.ar    1  UNL1       -0.0003
     24 C         -15.4596  -10.0168   18.0285 C.ar    1  UNL1       -0.0030
@<TRIPOS>BOND
     1    18    17    1
     2    18    15    1
     3     1    15    1
     4     1     2    1
     5     2     3    1
     6     3     4    1
     7     4     5    1
     8     5     6    2
     9     6     7    1
    10     7     8    2
    11     8     9    1
    12     9    10    1
    13    10    11    2
    14    11    12    1
    15    11    13    1
    16    13    14    2
    17    18    19    1
    18    19    20   ar
    19    20    21   ar
    20    21    22   ar
    21    22    23   ar
    22    23    24   ar
    23     6     1    1
    24    14     8    1
    25    24    19   ar
    26    14     5    1
    27    15    16    1
@<TRIPOS>MOLECULE
*****
 24 27 0 0 0
SMALL
GASTEIGER

@<TRIPOS>ATOM
      1 C          -6.6624  -19.0565   20.1140 C.3     1  UNL1        0.0947
      2 C          -5.4551  -19.9465   20.1180 C.3     1  UNL1        0.0222
      3 C          -4.4978  -19.9066   21.2722 C.3     1  UNL1        0.0065
      4 C          -4.7479  -18.9766   22.4222 C.3     1  UNL1        0.0277
      5 C          -5.9552  -18.0866   22.4181 C.2     1  UNL1       -0.0062
      6 C          -6.9125  -18.1265   21.2640 C.2     1  UNL1        0.0689
      7 N          -8.0086  -17.1394   21.5366 N.2     1  UNL1       -0.2526
      8 C          -7.7288  -16.4895   22.8591 C.2     1  UNL1        0.0627
      9 C          -8.4656  -15.4403   23.6377 C.3     1  UNL1        0.0722
     10 C          -7.9333  -14.9763   24.9613 C.2     1  UNL1       -0.0131
     11 C          -6.6642  -15.5617   25.5061 C.2     1  UNL1        0.0307
     12 BR         -6.1319  -15.0979   26.8295 Br      1  UNL1       -0.0493
     13 C          -5.9274  -16.6110   24.7274 C.2     1  UNL1        0.0073
     14 C          -6.4597  -17.0748   23.4040 C.2     1  UNL1        0.0116
     15 N          -7.6197  -19.0964   18.9598 N.3     1  UNL1       -0.2915
     16 H          -7.8479  -18.1285   18.7329 H       1  UNL1        0.1238
     17 C          -9.1840  -21.0480   18.2568 C.3     1  UNL1        0.0220
     18 C          -8.9221  -19.8290   19.0907 C.3     1  UNL1        0.0771
     19 C          -9.9626  -19.3425   20.0554 C.ar    1  UNL1       -0.0080
     20 C         -10.1251  -20.0160   21.3859 C.ar    1  UNL1       -0.0030
     21 C         -11.1656  -19.5295   22.3506 C.ar    1  UNL1       -0.0003
     22 C         -12.0436  -18.3697   21.9849 C.ar    1  UNL1       -0.0000
     23 C         -11.8811  -17.6962   20.6545 C.ar    1  UNL1       -0.0003
     24 C         -10.8406  -18.1826   19.6898 C.ar    1  UNL1       -0.0030
@<TRIPOS>BOND
     1    18    17    1
     2    18    15    1
     3     1    15    1
     4     1     2    1
     5     2     3    1
     6     3     4    1
     7     4     5    1
     8     5     6    2
     9     6     7    1
    10     7     8    2
    11     8     9    1
    12     9    10    1
    13    10    11    2
    14    11    12    1
    15    11    13    1
    16    13    14    2
    17    18    19    1
    18    19    20   ar
    19    20    21   ar
    20    21    22   ar
    21    22    23   ar
    22    23    24   ar
    23     6     1    1
    24    14     8    1
    25    24    19   ar
    26    14     5    1
    27    15    16    1
@<TRIPOS>MOLECULE
*****
 24 27 0 0 0
SMALL
GASTEIGER

@<TRIPOS>ATOM
      1 C          -6.7200  -18.0137   21.4027 C.3     1  UNL1        0.0947
      2 C          -5.8752  -17.4900   22.5261 C.3     1  UNL1        0.0222
      3 C          -6.5175  -17.0709   23.8151 C.3     1  UNL1        0.0065
      4 C          -8.0046  -17.1756   23.9809 C.3     1  UNL1        0.0277
      5 C          -8.8494  -17.6993   22.8576 C.2     1  UNL1       -0.0062
      6 C          -8.2071  -18.1184   21.5685 C.2     1  UNL1        0.0689
      7 N          -9.2891  -18.5930   20.6443 N.2     1  UNL1       -0.2526
      8 C         -10.6001  -18.4672   21.3622 C.2     1  UNL1        0.0627
      9 C         -12.0062  -18.7843   20.9471 C.3     1  UNL1        0.0722
     10 C         -13.1407  -18.5490   21.8999 C.2     1  UNL1       -0.0131
     11 C         -12.8689  -17.9967   23.2678 C.2     1  UNL1        0.0307
     12 BR        -14.0033  -17.7614   24.2206 Br      1  UNL1       -0.0493
     13 C         -11.4627  -17.6796   23.6829 C.2     1  UNL1        0.0073
     14 C         -10.3284  -17.9149   22.7301 C.2     1  UNL1        0.0116
     15 N          -6.0777  -18.4328   20.1136 N.3     1  UNL1       -0.2915
     16 H          -6.8140  -18.8386   19.5360 H       1  UNL1        0.1238
     17 C          -5.2301  -20.8885   20.1509 C.3     1  UNL1        0.0220
     18 C          -4.9449  -19.4161   20.1249 C.3     1  UNL1        0.0771
     19 C          -3.5270  -18.9268   20.1103 C.ar    1  UNL1       -0.0080
     20 C          -2.6584  -19.1085   21.3197 C.ar    1  UNL1       -0.0030
     21 C          -1.2406  -18.6193   21.3052 C.ar    1  UNL1       -0.0003
     22 C          -0.6912  -17.9484   20.0812 C.ar    1  UNL1       -0.0000
     23 C          -1.5598  -17.7667   18.8719 C.ar    1  UNL1       -0.0003
     24 C          -2.9777  -18.2559   18.8864 C.ar    1  UNL1       -0.0030
@<TRIPOS>BOND
     1    18    17    1
     2    18    15    1
     3     1    15    1
     4     1     2    1
     5     2     3    1
     6     3     4    1
     7     4     5    1
     8     5     6    2
     9     6     7    1
    10     7     8    2
    11     8     9    1
    12     9    10    1
    13    10    11    2
    14    11    12    1
    15    11    13    1
    16    13    14    2
    17    18    19    1
    18    19    20   ar
    19    20    21   ar
    20    21    22   ar
    21    22    23   ar
    22    23    24   ar
    23     6     1    1
    24    14     8    1
    25    24    19   ar
    26    14     5    1
    27    15    16    1
@<TRIPOS>MOLECULE
*****
 24 27 0 0 0
SMALL
GASTEIGER

@<TRIPOS>ATOM
      1 C         -12.7156   -4.8917   19.4444 C.3     1  UNL1        0.0947
      2 C         -11.2762   -4.9428   19.0257 C.3     1  UNL1        0.0222
      3 C         -10.6012   -3.7071   18.5086 C.3     1  UNL1        0.0065
      4 C         -11.3657   -2.4203   18.4101 C.3     1  UNL1        0.0277
      5 C         -12.8051   -2.3692   18.8288 C.2     1  UNL1       -0.0062
      6 C         -13.4801   -3.6049   19.3459 C.2     1  UNL1        0.0689
      7 N         -14.8990   -3.2521   19.6815 N.2     1  UNL1       -0.2526
      8 C         -15.1008   -1.7984   19.3718 C.2     1  UNL1        0.0627
      9 C         -16.2957   -0.9011   19.5016 C.3     1  UNL1        0.0722
     10 C         -16.1967    0.5421   19.1043 C.2     1  UNL1       -0.0131
     11 C         -14.9026    1.0877   18.5773 C.2     1  UNL1        0.0307
     12 BR        -14.8035    2.5308   18.1801 Br      1  UNL1       -0.0493
     13 C         -13.7076    0.1903   18.4475 C.2     1  UNL1        0.0073
     14 C         -13.8068   -1.2527   18.8448 C.2     1  UNL1        0.0116
     15 N         -13.3907   -6.1274   19.9615 N.3     1  UNL1       -0.2915
     16 H         -12.6632   -6.7073   20.3797 H       1  UNL1        0.1238
     17 C         -13.4902   -7.5835   17.8121 C.3     1  UNL1        0.0220
     18 C         -14.1616   -7.0090   19.0242 C.3     1  UNL1        0.0771
     19 C         -15.6039   -7.3160   19.2989 C.ar    1  UNL1       -0.0080
     20 C         -16.0296   -8.7258   19.5838 C.ar    1  UNL1       -0.0030
     21 C         -17.4718   -9.0329   19.8585 C.ar    1  UNL1       -0.0003
     22 C         -18.4885   -7.9300   19.8485 C.ar    1  UNL1       -0.0000
     23 C         -18.0628   -6.5202   19.5637 C.ar    1  UNL1       -0.0003
     24 C         -16.6206   -6.2131   19.2889 C.ar    1  UNL1       -0.0030
@<TRIPOS>BOND
     1    18    17    1
     2    18    15    1
     3     1    15    1
     4     1     2    1
     5     2     3    1
     6     3     4    1
     7     4     5    1
     8     5     6    2
     9     6     7    1
    10     7     8    2
    11     8     9    1
    12     9    10    1
    13    10    11    2
    14    11    12    1
    15    11    13    1
    16    13    14    2
    17    18    19    1
    18    19    20   ar
    19    20    21   ar
    20    21    22   ar
    21    22    23   ar
    22    23    24   ar
    23     6     1    1
    24    14     8    1
    25    24    19   ar
    26    14     5    1
    27    15    16    1
@<TRIPOS>MOLECULE
*****
 24 27 0 0 0
SMALL
GASTEIGER

@<TRIPOS>ATOM
      1 C         -12.1037   -2.7306   19.1730 C.3     1  UNL1        0.0947
      2 C         -12.7809   -3.8972   19.8289 C.3     1  UNL1        0.0222
      3 C         -14.2464   -3.8345   20.1424 C.3     1  UNL1        0.0065
      4 C         -15.0347   -2.6052   19.7999 C.3     1  UNL1        0.0277
      5 C         -14.3575   -1.4385   19.1440 C.2     1  UNL1       -0.0062
      6 C         -12.8920   -1.5013   18.8305 C.2     1  UNL1        0.0689
      7 N         -12.5000   -0.2050   18.1854 N.2     1  UNL1       -0.2526
      8 C         -13.7233    0.6589   18.1002 C.2     1  UNL1        0.0627
      9 C         -13.9403    2.0412   17.5597 C.3     1  UNL1        0.0722
     10 C         -15.3052    2.6611   17.6116 C.2     1  UNL1       -0.0131
     11 C         -16.4532    1.8988   18.2041 C.2     1  UNL1        0.0307
     12 BR        -17.8181    2.5187   18.2560 Br      1  UNL1       -0.0493
     13 C         -16.2362    0.5164   18.7446 C.2     1  UNL1        0.0073
     14 C         -14.8713   -0.1035   18.6926 C.2     1  UNL1        0.0116
     15 N         -10.6381   -2.7933   18.8594 N.3     1  UNL1       -0.2915
     16 H         -10.3350   -1.8368   18.6760 H       1  UNL1        0.1238
     17 C          -9.6100   -2.9684   16.4799 C.3     1  UNL1        0.0220
     18 C         -10.1515   -3.6291   17.7128 C.3     1  UNL1        0.0771
     19 C         -10.2065   -5.1256   17.7992 C.ar    1  UNL1       -0.0080
     20 C          -9.4554   -5.8424   18.8818 C.ar    1  UNL1       -0.0030
     21 C          -9.5103   -7.3389   18.9682 C.ar    1  UNL1       -0.0003
     22 C         -10.3163   -8.1186   17.9720 C.ar    1  UNL1       -0.0000
     23 C         -11.0674   -7.4018   16.8894 C.ar    1  UNL1       -0.0003
     24 C         -11.0125   -5.9053   16.8030 C.ar    1  UNL1       -0.0030
@<TRIPOS>BOND
     1    18    17    1
     2    18    15    1
     3     1    15    1
     4     1     2    1
     5     2     3    1
     6     3     4    1
     7     4     5    1
     8     5     6    2
     9     6     7    1
    10     7     8    2
    11     8     9    1
    12     9    10    1
    13    10    11    2
    14    11    12    1
    15    11    13    1
    16    13    14    2
    17    18    19    1
    18    19    20   ar
    19    20    21   ar
    20    21    22   ar
    21    22    23   ar
    22    23    24   ar
    23     6     1    1
    24    14     8    1
    25    24    19   ar
    26    14     5    1
    27    15    16    1
@<TRIPOS>MOLECULE
*****
 24 27 0 0 0
SMALL
GASTEIGER

@<TRIPOS>ATOM
      1 C          -7.6998  -18.6565   22.6331 C.3     1  UNL1        0.0947
      2 C          -7.9930  -17.5487   23.6010 C.3     1  UNL1        0.0222
      3 C          -6.9254  -16.5537   23.9478 C.3     1  UNL1        0.0065
      4 C          -5.5647  -16.6666   23.3268 C.3     1  UNL1        0.0277
      5 C          -5.2715  -17.7743   22.3589 C.2     1  UNL1       -0.0062
      6 C          -6.3391  -18.7693   22.0121 C.2     1  UNL1        0.0689
      7 N          -5.7609  -19.7470   21.0324 N.2     1  UNL1       -0.2526
      8 C          -4.3359  -19.3563   20.7738 C.2     1  UNL1        0.0627
      9 C          -3.2747  -19.9532   19.8977 C.3     1  UNL1        0.0722
     10 C          -1.9110  -19.3308   19.8414 C.2     1  UNL1       -0.0131
     11 C          -1.6086  -18.1116   20.6613 C.2     1  UNL1        0.0307
     12 BR         -0.2449  -17.4893   20.6051 Br      1  UNL1       -0.0493
     13 C          -2.6699  -17.5148   21.5374 C.2     1  UNL1        0.0073
     14 C          -4.0335  -18.1371   21.5936 C.2     1  UNL1        0.0116
     15 N          -8.7674  -19.6515   22.2862 N.3     1  UNL1       -0.2915
     16 H          -8.2967  -20.4558   21.8715 H       1  UNL1        0.1238
     17 C          -9.8908  -19.8015   19.9484 C.3     1  UNL1        0.0220
     18 C          -9.8748  -19.2676   21.3500 C.3     1  UNL1        0.0771
     19 C         -10.9661  -18.3498   21.8155 C.ar    1  UNL1       -0.0080
     20 C         -11.8343  -18.7438   22.9736 C.ar    1  UNL1       -0.0030
     21 C         -12.9256  -17.8260   23.4391 C.ar    1  UNL1       -0.0003
     22 C         -13.1487  -16.5143   22.7466 C.ar    1  UNL1       -0.0000
     23 C         -12.2805  -16.1204   21.5886 C.ar    1  UNL1       -0.0003
     24 C         -11.1892  -17.0381   21.1230 C.ar    1  UNL1       -0.0030
@<TRIPOS>BOND
     1    18    17    1
     2    18    15    1
     3     1    15    1
     4     1     2    1
     5     2     3    1
     6     3     4    1
     7     4     5    1
     8     5     6    2
     9     6     7    1
    10     7     8    2
    11     8     9    1
    12     9    10    1
    13    10    11    2
    14    11    12    1
    15    11    13    1
    16    13    14    2
    17    18    19    1
    18    19    20   ar
    19    20    21   ar
    20    21    22   ar
    21    22    23   ar
    22    23    24   ar
    23     6     1    1
    24    14     8    1
    25    24    19   ar
    26    14     5    1
    27    15    16    1
