@<TRIPOS>MOLECULE
*****
 45 49 0 0 0
SMALL
GASTEIGER

@<TRIPOS>ATOM
      1 C           4.1355   -2.0308   19.9525 C.ar    1  UNL1        0.0846
      2 C           3.4601   -1.9116   21.2865 C.ar    1  UNL1        0.0174
      3 C           4.0872   -2.5270   22.5023 C.ar    1  UNL1       -0.0031
      4 C           5.3897   -3.2615   22.3840 C.ar    1  UNL1       -0.0218
      5 C           6.0650   -3.3806   21.0501 C.ar    1  UNL1        0.0091
      6 C           5.4380   -2.7653   19.8343 C.ar    1  UNL1        0.1477
      7 C           7.3572   -4.0642   20.7137 C.3     1  UNL1        0.0292
      8 C           8.2931   -4.7976   21.6284 C.3     1  UNL1        0.0062
      9 C           8.1679   -5.0283   23.1051 C.3     1  UNL1        0.0166
     10 C           7.0760   -4.5828   24.0321 C.3     1  UNL1        0.0619
     11 C           5.8396   -3.7965   23.7112 C.3     1  UNL1        0.0421
     12 N           7.2425   -4.9756   25.4701 N.3     1  UNL1       -0.2713
     13 C           7.8916   -6.2817   25.8206 C.3     1  UNL1        0.0896
     14 C           8.0581   -6.6744   27.2587 C.3     1  UNL1        0.0897
     15 N           7.5756   -5.7611   28.3464 N.3     1  UNL1       -0.2682
     16 C           6.9265   -4.4549   27.9959 C.3     1  UNL1        0.0897
     17 C           6.7600   -4.0622   26.5578 C.3     1  UNL1        0.0896
     18 C           7.7421   -6.1538   29.7844 C.3     1  UNL1        0.1043
     19 C           6.9764   -5.4311   30.8528 C.3     1  UNL1        0.1544
     20 O           6.5944   -6.1454   32.1152 O.3     1  UNL1       -0.3805
     21 H           5.9599   -6.8496   31.9089 H       1  UNL1        0.2105
     22 N           3.5084   -1.4154   18.7368 N.pl3   1  UNL1       -0.2801
     23 H           3.3565   -1.9611   17.9315 H       1  UNL1        0.1552
     24 C           1.3123    1.8689   19.1123 C.ar    1  UNL1        0.1472
     25 N           1.7081    0.4221   19.1011 N.ar    1  UNL1       -0.1976
     26 C           3.1126    0.0314   18.7479 C.ar    1  UNL1        0.2220
     27 N           4.1214    1.0876   18.4060 N.ar    1  UNL1       -0.2110
     28 C           3.7257    2.5344   18.4172 C.ar    1  UNL1        0.1160
     29 C           2.3211    2.9251   18.7703 C.ar    1  UNL1        0.1085
     30 CL          1.9254    4.3719   18.7815 Cl      1  UNL1       -0.0777
     31 N          -0.0922    2.2595   19.4654 N.pl3   1  UNL1       -0.2970
     32 H          -0.7853    2.2892   18.7669 H       1  UNL1        0.1536
     33 C          -1.7639    3.2376   21.1971 C.ar    1  UNL1        0.0668
     34 C          -2.1124    3.5830   22.6146 C.ar    1  UNL1        0.0058
     35 C          -1.1376    3.2956   23.7179 C.ar    1  UNL1        0.0002
     36 C           0.1856    2.6629   23.4038 C.ar    1  UNL1        0.0013
     37 C           0.5341    2.3175   21.9863 C.ar    1  UNL1        0.0148
     38 C          -0.4407    2.6049   20.8829 C.ar    1  UNL1        0.0537
     39 C          -5.1583    3.4427   19.1510 C.3     1  UNL1        0.1109
     40 N          -4.1835    3.1554   20.2543 N.am    1  UNL1       -0.2991
     41 C          -2.7387    3.5250   20.0939 C.2     1  UNL1        0.2471
     42 O          -2.2686    4.1820   18.8300 O.2     1  UNL1       -0.2701
     43 H          -4.4920    2.7241   21.0839 H       1  UNL1        0.1498
     44 O           6.1135   -2.8845   18.5002 O.3     1  UNL1       -0.4705
     45 C           6.8915   -1.7273   17.9475 C.3     1  UNL1        0.2525
@<TRIPOS>BOND
     1    39    40    1
     2    40    41   am
     3    41    42    2
     4    41    33    1
     5    33    34   ar
     6    34    35   ar
     7    35    36   ar
     8    36    37   ar
     9    37    38   ar
    10    38    31    1
    11    31    24    1
    12    24    25   ar
    13    25    26   ar
    14    26    22    1
    15    22     1    1
    16     1     2   ar
    17     2     3   ar
    18     3     4   ar
    19     4     5   ar
    20     5     6   ar
    21     6    44    1
    22    44    45    1
    23     5     7    1
    24     7     8    1
    25     8     9    1
    26     9    10    1
    27    10    12    1
    28    12    13    1
    29    13    14    1
    30    14    15    1
    31    15    18    1
    32    18    19    1
    33    19    20    1
    34    15    16    1
    35    16    17    1
    36    10    11    1
    37    26    27   ar
    38    27    28   ar
    39    28    29   ar
    40    29    30    1
    41    38    33   ar
    42    29    24   ar
    43     6     1   ar
    44    17    12    1
    45    11     4    1
    46    40    43    1
    47    31    32    1
    48    22    23    1
    49    20    21    1
@<TRIPOS>MOLECULE
*****
 45 49 0 0 0
SMALL
GASTEIGER

@<TRIPOS>ATOM
      1 C           7.8302   -4.9196   26.0402 C.ar    1  UNL1        0.0846
      2 C           7.2735   -3.5307   26.1461 C.ar    1  UNL1        0.0174
      3 C           6.8935   -2.9752   27.4867 C.ar    1  UNL1       -0.0031
      4 C           7.0702   -3.8087   28.7214 C.ar    1  UNL1       -0.0218
      5 C           7.6269   -5.1974   28.6154 C.ar    1  UNL1        0.0091
      6 C           8.0069   -5.7529   27.2749 C.ar    1  UNL1        0.1477
      7 C           7.8823   -6.1888   29.7118 C.3     1  UNL1        0.0292
      8 C           7.6440   -6.0361   31.1849 C.3     1  UNL1        0.0062
      9 C           7.0915   -4.8545   31.9253 C.3     1  UNL1        0.0166
     10 C           6.6408   -3.5336   31.3757 C.3     1  UNL1        0.0619
     11 C           6.6314   -3.0681   29.9498 C.3     1  UNL1        0.0421
     12 N           6.1324   -2.5478   32.3855 N.3     1  UNL1       -0.2713
     13 C           4.7577   -2.7081   32.9639 C.3     1  UNL1        0.0896
     14 C           4.2493   -1.7223   33.9738 C.3     1  UNL1        0.0897
     15 N           5.1155   -0.5762   34.4052 N.3     1  UNL1       -0.2682
     16 C           6.4903   -0.4159   33.8267 C.3     1  UNL1        0.0897
     17 C           6.9987   -1.4018   32.8169 C.3     1  UNL1        0.0896
     18 C           4.6071    0.4096   35.4150 C.3     1  UNL1        0.1043
     19 C           4.8756    0.1937   36.8749 C.3     1  UNL1        0.1544
     20 O           3.8081    0.4915   37.8857 O.3     1  UNL1       -0.3805
     21 H           3.6267    1.4444   37.8932 H       1  UNL1        0.2105
     22 N           8.2102   -5.4750   24.6997 N.pl3   1  UNL1       -0.2801
     23 H           8.6315   -6.3625   24.6360 H       1  UNL1        0.1552
     24 C           6.2791   -3.6808   21.7328 C.ar    1  UNL1        0.1472
     25 N           6.5411   -4.4776   22.9763 N.ar    1  UNL1       -0.1976
     26 C           7.9481   -4.6781   23.4561 C.ar    1  UNL1        0.2220
     27 N           9.0931   -4.0816   22.6923 N.ar    1  UNL1       -0.2110
     28 C           8.8311   -3.2848   21.4488 C.ar    1  UNL1        0.1160
     29 C           7.4241   -3.0844   20.9691 C.ar    1  UNL1        0.1085
     30 CL          7.1621   -2.2875   19.7255 Cl      1  UNL1       -0.0777
     31 N           4.8721   -3.4804   21.2531 N.pl3   1  UNL1       -0.2970
     32 H           4.4657   -4.1295   20.6345 H       1  UNL1        0.1536
     33 C           3.4053   -1.4048   20.7138 C.ar    1  UNL1        0.0668
     34 C           2.6174   -0.2152   21.1767 C.ar    1  UNL1        0.0058
     35 C           2.5085    0.0883   22.6416 C.ar    1  UNL1        0.0002
     36 C           3.1873   -0.7976   23.6437 C.ar    1  UNL1        0.0013
     37 C           3.9752   -1.9872   23.1809 C.ar    1  UNL1        0.0148
     38 C           4.0842   -2.2908   21.7159 C.ar    1  UNL1        0.0537
     39 C           3.7723   -0.8938   16.7954 C.3     1  UNL1        0.1109
     40 N           3.6633   -0.5902   18.2603 N.am    1  UNL1       -0.2991
     41 C           3.5143   -1.7084   19.2490 C.2     1  UNL1        0.2471
     42 O           3.4742   -3.1302   18.7727 O.2     1  UNL1       -0.2701
     43 H           3.6896    0.3430   18.5729 H       1  UNL1        0.1498
     44 O           8.5636   -7.1417   27.1690 O.3     1  UNL1       -0.4705
     45 C           7.6713   -8.2789   26.7685 C.3     1  UNL1        0.2525
@<TRIPOS>BOND
     1    39    40    1
     2    40    41   am
     3    41    42    2
     4    41    33    1
     5    33    34   ar
     6    34    35   ar
     7    35    36   ar
     8    36    37   ar
     9    37    38   ar
    10    38    31    1
    11    31    24    1
    12    24    25   ar
    13    25    26   ar
    14    26    22    1
    15    22     1    1
    16     1     2   ar
    17     2     3   ar
    18     3     4   ar
    19     4     5   ar
    20     5     6   ar
    21     6    44    1
    22    44    45    1
    23     5     7    1
    24     7     8    1
    25     8     9    1
    26     9    10    1
    27    10    12    1
    28    12    13    1
    29    13    14    1
    30    14    15    1
    31    15    18    1
    32    18    19    1
    33    19    20    1
    34    15    16    1
    35    16    17    1
    36    10    11    1
    37    26    27   ar
    38    27    28   ar
    39    28    29   ar
    40    29    30    1
    41    38    33   ar
    42    29    24   ar
    43     6     1   ar
    44    17    12    1
    45    11     4    1
    46    40    43    1
    47    31    32    1
    48    22    23    1
    49    20    21    1
@<TRIPOS>MOLECULE
*****
 45 49 0 0 0
SMALL
GASTEIGER

@<TRIPOS>ATOM
      1 C           3.2954   -0.0227   24.7100 C.ar    1  UNL1        0.0846
      2 C           2.5679    0.3409   23.4496 C.ar    1  UNL1        0.0174
      3 C           1.2692    1.0881   23.5220 C.ar    1  UNL1       -0.0031
      4 C           0.6981    1.4718   24.8550 C.ar    1  UNL1       -0.0218
      5 C           1.4256    1.1082   26.1153 C.ar    1  UNL1        0.0091
      6 C           2.7242    0.3610   26.0429 C.ar    1  UNL1        0.1477
      7 C           1.0352    1.3921   27.5356 C.3     1  UNL1        0.0292
      8 C          -0.1792    2.1095   28.0462 C.3     1  UNL1        0.0062
      9 C          -1.3029    2.7203   27.2627 C.3     1  UNL1        0.0166
     10 C          -1.4900    2.7646   25.7750 C.3     1  UNL1        0.0619
     11 C          -0.5994    2.2089   24.7035 C.3     1  UNL1        0.0421
     12 N          -2.7318    3.4559   25.2955 N.3     1  UNL1       -0.2713
     13 C          -3.8097    3.8239   26.2716 C.3     1  UNL1        0.0896
     14 C          -5.0516    4.5153   25.7920 C.3     1  UNL1        0.0897
     15 N          -5.2155    4.8386   24.3364 N.3     1  UNL1       -0.2682
     16 C          -4.1376    4.4705   23.3604 C.3     1  UNL1        0.0897
     17 C          -2.8957    3.7791   23.8400 C.3     1  UNL1        0.0896
     18 C          -6.4573    5.5299   23.8569 C.3     1  UNL1        0.1043
     19 C          -7.8026    4.9165   24.1103 C.3     1  UNL1        0.1544
     20 O          -8.3016    3.8120   23.2267 O.3     1  UNL1       -0.3805
     21 H          -8.4457    4.1547   22.3307 H       1  UNL1        0.2105
     22 N           4.5940   -0.7699   24.6374 N.pl3   1  UNL1       -0.2801
     23 H           5.2497   -0.6893   25.3673 H       1  UNL1        0.1552
     24 C           4.3135   -2.4527   21.0542 C.ar    1  UNL1        0.1472
     25 N           4.0140   -1.5828   22.2388 N.ar    1  UNL1       -0.1976
     26 C           4.8934   -1.6399   23.4527 C.ar    1  UNL1        0.2220
     27 N           6.0723   -2.5670   23.4818 N.ar    1  UNL1       -0.2110
     28 C           6.3718   -3.4369   22.2972 C.ar    1  UNL1        0.1160
     29 C           5.4924   -3.3798   21.0833 C.ar    1  UNL1        0.1085
     30 CL          5.7918   -4.2498   19.8987 Cl      1  UNL1       -0.0777
     31 N           3.4341   -2.3956   19.8404 N.pl3   1  UNL1       -0.2970
     32 H           3.3759   -3.1718   19.2376 H       1  UNL1        0.1536
     33 C           3.1569   -0.1579   18.5496 C.ar    1  UNL1        0.0668
     34 C           2.3661    1.0820   18.2542 C.ar    1  UNL1        0.0058
     35 C           1.0617    1.3242   18.9541 C.ar    1  UNL1        0.0002
     36 C           0.5480    0.3265   19.9494 C.ar    1  UNL1        0.0013
     37 C           1.3388   -0.9134   20.2448 C.ar    1  UNL1        0.0148
     38 C           2.6433   -1.1557   19.5449 C.ar    1  UNL1        0.0537
     39 C           6.7055    0.4997   16.8986 C.3     1  UNL1        0.1109
     40 N           5.4010    0.7418   17.5985 N.am    1  UNL1       -0.2991
     41 C           4.4613   -0.4000   17.8497 C.2     1  UNL1        0.2471
     42 O           4.8261   -1.7841   17.4010 O.2     1  UNL1       -0.2701
     43 H           5.1616    1.6502   17.8930 H       1  UNL1        0.1498
     44 O           3.4517   -0.0025   27.3033 O.3     1  UNL1       -0.4705
     45 C           4.6047    0.8347   27.7718 C.3     1  UNL1        0.2525
@<TRIPOS>BOND
     1    39    40    1
     2    40    41   am
     3    41    42    2
     4    41    33    1
     5    33    34   ar
     6    34    35   ar
     7    35    36   ar
     8    36    37   ar
     9    37    38   ar
    10    38    31    1
    11    31    24    1
    12    24    25   ar
    13    25    26   ar
    14    26    22    1
    15    22     1    1
    16     1     2   ar
    17     2     3   ar
    18     3     4   ar
    19     4     5   ar
    20     5     6   ar
    21     6    44    1
    22    44    45    1
    23     5     7    1
    24     7     8    1
    25     8     9    1
    26     9    10    1
    27    10    12    1
    28    12    13    1
    29    13    14    1
    30    14    15    1
    31    15    18    1
    32    18    19    1
    33    19    20    1
    34    15    16    1
    35    16    17    1
    36    10    11    1
    37    26    27   ar
    38    27    28   ar
    39    28    29   ar
    40    29    30    1
    41    38    33   ar
    42    29    24   ar
    43     6     1   ar
    44    17    12    1
    45    11     4    1
    46    40    43    1
    47    31    32    1
    48    22    23    1
    49    20    21    1
@<TRIPOS>MOLECULE
*****
 45 49 0 0 0
SMALL
GASTEIGER

@<TRIPOS>ATOM
      1 C           1.4343    1.6273   31.5820 C.ar    1  UNL1        0.0846
      2 C           0.6427    2.1875   30.4376 C.ar    1  UNL1        0.0174
      3 C           0.9841    1.8009   29.0290 C.ar    1  UNL1       -0.0031
      4 C           2.1171    0.8540   28.7649 C.ar    1  UNL1       -0.0218
      5 C           2.9086    0.2938   29.9092 C.ar    1  UNL1        0.0091
      6 C           2.5673    0.6804   31.3178 C.ar    1  UNL1        0.1477
      7 C           4.0678   -0.6574   29.8677 C.3     1  UNL1        0.0292
      8 C           4.7215   -1.2834   28.6715 C.3     1  UNL1        0.0062
      9 C           4.3777   -1.1126   27.2215 C.3     1  UNL1        0.0166
     10 C           3.2951   -0.2739   26.6095 C.3     1  UNL1        0.0619
     11 C           2.2891    0.6014   27.2963 C.3     1  UNL1        0.0421
     12 N           3.2070   -0.3159   25.1127 N.3     1  UNL1       -0.2713
     13 C           4.0444   -1.2909   24.3392 C.3     1  UNL1        0.0896
     14 C           3.9562   -1.3328   22.8423 C.3     1  UNL1        0.0897
     15 N           3.0307   -0.3999   22.1190 N.3     1  UNL1       -0.2682
     16 C           2.1933    0.5750   22.8925 C.3     1  UNL1        0.0897
     17 C           2.2815    0.6170   24.3894 C.3     1  UNL1        0.0896
     18 C           2.9426   -0.4420   20.6222 C.3     1  UNL1        0.1043
     19 C           1.7636   -1.0895   19.9582 C.3     1  UNL1        0.1544
     20 O           0.4298   -0.4036   19.9632 O.3     1  UNL1       -0.3805
     21 H           0.0960   -0.3523   20.8725 H       1  UNL1        0.2105
     22 N           1.0928    2.0140   32.9905 N.pl3   1  UNL1       -0.2801
     23 H           0.3145    1.6090   33.4372 H       1  UNL1        0.1552
     24 C           2.9411    3.9285   35.9348 C.ar    1  UNL1        0.1472
     25 N           2.0967    2.9248   35.2069 N.ar    1  UNL1       -0.1976
     26 C           1.9372    3.0176   33.7183 C.ar    1  UNL1        0.2220
     27 N           2.6221    4.1141   32.9575 N.ar    1  UNL1       -0.2110
     28 C           3.4665    5.1177   33.6853 C.ar    1  UNL1        0.1160
     29 C           3.6260    5.0249   35.1739 C.ar    1  UNL1        0.1085
     30 CL          4.4704    6.0285   35.9018 Cl      1  UNL1       -0.0777
     31 N           3.1005    3.8356   37.4234 N.pl3   1  UNL1       -0.2970
     32 H           3.6921    4.4654   37.8953 H       1  UNL1        0.1536
     33 C           2.9801    1.4355   38.4108 C.ar    1  UNL1        0.0668
     34 C           2.2382    0.3831   39.1803 C.ar    1  UNL1        0.0058
     35 C           0.8749    0.6785   39.7319 C.ar    1  UNL1        0.0002
     36 C           0.2534    2.0262   39.5140 C.ar    1  UNL1        0.0013
     37 C           0.9953    3.0785   38.7445 C.ar    1  UNL1        0.0148
     38 C           2.3586    2.7832   38.1929 C.ar    1  UNL1        0.0537
     39 C           5.9070   -0.3238   36.3889 C.3     1  UNL1        0.1109
     40 N           4.5437   -0.0284   36.9405 N.am    1  UNL1       -0.2991
     41 C           4.3433    1.1402   37.8593 C.2     1  UNL1        0.2471
     42 O           5.5063    2.0134   38.2265 O.2     1  UNL1       -0.2701
     43 H           3.7804   -0.6016   36.6994 H       1  UNL1        0.1498
     44 O           3.3589    0.1202   32.4621 O.3     1  UNL1       -0.4705
     45 C           4.5521    0.8643   32.9840 C.3     1  UNL1        0.2525
@<TRIPOS>BOND
     1    39    40    1
     2    40    41   am
     3    41    42    2
     4    41    33    1
     5    33    34   ar
     6    34    35   ar
     7    35    36   ar
     8    36    37   ar
     9    37    38   ar
    10    38    31    1
    11    31    24    1
    12    24    25   ar
    13    25    26   ar
    14    26    22    1
    15    22     1    1
    16     1     2   ar
    17     2     3   ar
    18     3     4   ar
    19     4     5   ar
    20     5     6   ar
    21     6    44    1
    22    44    45    1
    23     5     7    1
    24     7     8    1
    25     8     9    1
    26     9    10    1
    27    10    12    1
    28    12    13    1
    29    13    14    1
    30    14    15    1
    31    15    18    1
    32    18    19    1
    33    19    20    1
    34    15    16    1
    35    16    17    1
    36    10    11    1
    37    26    27   ar
    38    27    28   ar
    39    28    29   ar
    40    29    30    1
    41    38    33   ar
    42    29    24   ar
    43     6     1   ar
    44    17    12    1
    45    11     4    1
    46    40    43    1
    47    31    32    1
    48    22    23    1
    49    20    21    1
@<TRIPOS>MOLECULE
*****
 45 49 0 0 0
SMALL
GASTEIGER

@<TRIPOS>ATOM
      1 C           3.8641   -1.2197   18.9803 C.ar    1  UNL1        0.0846
      2 C           3.1442   -1.6195   20.2341 C.ar    1  UNL1        0.0174
      3 C           3.8581   -2.4125   21.2885 C.ar    1  UNL1       -0.0031
      4 C           5.2919   -2.8056   21.0890 C.ar    1  UNL1       -0.0218
      5 C           6.0117   -2.4058   19.8353 C.ar    1  UNL1        0.0091
      6 C           5.2979   -1.6128   18.7810 C.ar    1  UNL1        0.1477
      7 C           7.4300   -2.6919   19.4395 C.3     1  UNL1        0.0292
      8 C           8.4787   -3.4485   20.1998 C.3     1  UNL1        0.0062
      9 C           8.3680   -4.1058   21.5434 C.3     1  UNL1        0.0166
     10 C           7.1814   -4.1689   22.4589 C.3     1  UNL1        0.0619
     11 C           5.8124   -3.5903   22.2567 C.3     1  UNL1        0.0421
     12 N           7.3917   -4.9085   23.7468 N.3     1  UNL1       -0.2713
     13 C           6.7682   -4.4012   25.0134 C.3     1  UNL1        0.0896
     14 C           6.9785   -5.1408   26.3014 C.3     1  UNL1        0.0897
     15 N           7.8121   -6.3876   26.3228 N.3     1  UNL1       -0.2682
     16 C           8.4356   -6.8949   25.0563 C.3     1  UNL1        0.0897
     17 C           8.2253   -6.1553   23.7683 C.3     1  UNL1        0.0896
     18 C           8.0224   -7.1271   27.6108 C.3     1  UNL1        0.1043
     19 C           8.2320   -8.6124   27.5972 C.3     1  UNL1        0.1544
     20 O           7.0807   -9.5297   27.3089 O.3     1  UNL1       -0.3805
     21 H           6.4284   -9.4643   28.0238 H       1  UNL1        0.2105
     22 N           3.1502   -0.4267   17.9261 N.pl3   1  UNL1       -0.2801
     23 H           3.0154   -0.8095   17.0291 H       1  UNL1        0.1552
     24 C           0.7010    2.5233   18.9504 C.ar    1  UNL1        0.1472
     25 N           1.2095    1.1471   18.6380 N.ar    1  UNL1       -0.1976
     26 C           2.6418    0.9495   18.2384 C.ar    1  UNL1        0.2220
     27 N           3.5655    2.1281   18.1513 N.ar    1  UNL1       -0.2110
     28 C           3.0571    3.5043   18.4637 C.ar    1  UNL1        0.1160
     29 C           1.6248    3.7019   18.8632 C.ar    1  UNL1        0.1085
     30 CL          1.1163    5.0780   19.1756 Cl      1  UNL1       -0.0777
     31 N          -0.7312    2.7208   19.3499 N.pl3   1  UNL1       -0.2970
     32 H          -1.4413    2.6883   18.6688 H       1  UNL1        0.1536
     33 C          -2.4525    3.4553   21.1521 C.ar    1  UNL1        0.0668
     34 C          -2.8028    3.7024   22.5896 C.ar    1  UNL1        0.0058
     35 C          -1.7823    3.4619   23.6623 C.ar    1  UNL1        0.0002
     36 C          -0.4114    2.9745   23.2976 C.ar    1  UNL1        0.0013
     37 C          -0.0610    2.7274   21.8602 C.ar    1  UNL1        0.0148
     38 C          -1.0816    2.9678   20.7874 C.ar    1  UNL1        0.0537
     39 C          -5.8510    3.3059   19.1081 C.3     1  UNL1        0.1109
     40 N          -4.8304    3.0655   20.1808 N.am    1  UNL1       -0.2991
     41 C          -3.4730    3.6957   20.0795 C.2     1  UNL1        0.2471
     42 O          -3.1362    4.5664   18.9054 O.2     1  UNL1       -0.2701
     43 H          -5.0515    2.4940   20.9514 H       1  UNL1        0.1498
     44 O           6.0179   -1.2130   17.5272 O.3     1  UNL1       -0.4705
     45 C           6.5702    0.1747   17.3897 C.3     1  UNL1        0.2525
@<TRIPOS>BOND
     1    39    40    1
     2    40    41   am
     3    41    42    2
     4    41    33    1
     5    33    34   ar
     6    34    35   ar
     7    35    36   ar
     8    36    37   ar
     9    37    38   ar
    10    38    31    1
    11    31    24    1
    12    24    25   ar
    13    25    26   ar
    14    26    22    1
    15    22     1    1
    16     1     2   ar
    17     2     3   ar
    18     3     4   ar
    19     4     5   ar
    20     5     6   ar
    21     6    44    1
    22    44    45    1
    23     5     7    1
    24     7     8    1
    25     8     9    1
    26     9    10    1
    27    10    12    1
    28    12    13    1
    29    13    14    1
    30    14    15    1
    31    15    18    1
    32    18    19    1
    33    19    20    1
    34    15    16    1
    35    16    17    1
    36    10    11    1
    37    26    27   ar
    38    27    28   ar
    39    28    29   ar
    40    29    30    1
    41    38    33   ar
    42    29    24   ar
    43     6     1   ar
    44    17    12    1
    45    11     4    1
    46    40    43    1
    47    31    32    1
    48    22    23    1
    49    20    21    1
@<TRIPOS>MOLECULE
*****
 45 49 0 0 0
SMALL
GASTEIGER

@<TRIPOS>ATOM
      1 C           1.0889    0.0799   28.8462 C.ar    1  UNL1        0.0846
      2 C          -0.3872   -0.0861   29.0550 C.ar    1  UNL1        0.0174
      3 C          -1.3526    0.7931   28.3166 C.ar    1  UNL1       -0.0031
      4 C          -0.8418    1.8381   27.3695 C.ar    1  UNL1       -0.0218
      5 C           0.6342    2.0040   27.1607 C.ar    1  UNL1        0.0091
      6 C           1.5996    1.1249   27.8990 C.ar    1  UNL1        0.1477
      7 C           1.3494    2.9760   26.2697 C.3     1  UNL1        0.0292
      8 C           0.7649    4.0222   25.3674 C.3     1  UNL1        0.0062
      9 C          -0.6788    4.3547   25.1334 C.3     1  UNL1        0.0166
     10 C          -1.8949    3.7232   25.7437 C.3     1  UNL1        0.0619
     11 C          -1.9675    2.6032   26.7388 C.3     1  UNL1        0.0421
     12 N          -3.2126    4.2861   25.3002 N.3     1  UNL1       -0.2713
     13 C          -3.3710    4.8150   23.9055 C.3     1  UNL1        0.0896
     14 C          -4.6888    5.3780   23.4620 C.3     1  UNL1        0.0897
     15 N          -5.8482    5.4120   24.4132 N.3     1  UNL1       -0.2682
     16 C          -5.6898    4.8830   25.8079 C.3     1  UNL1        0.0897
     17 C          -4.3720    4.3200   26.2514 C.3     1  UNL1        0.0896
     18 C          -7.1659    5.9748   23.9697 C.3     1  UNL1        0.1043
     19 C          -8.4076    5.1383   24.0607 C.3     1  UNL1        0.1544
     20 O          -8.4674    3.8073   23.3718 O.3     1  UNL1       -0.3805
     21 H          -8.4301    3.9383   22.4114 H       1  UNL1        0.2105
     22 N           2.0543   -0.7993   29.5846 N.pl3   1  UNL1       -0.2801
     23 H           2.3463   -1.6517   29.1879 H       1  UNL1        0.1552
     24 C           4.0418   -0.8502   33.0193 C.ar    1  UNL1        0.1472
     25 N           3.5215   -1.2698   31.6765 N.ar    1  UNL1       -0.1976
     26 C           2.5746   -0.3796   30.9274 C.ar    1  UNL1        0.2220
     27 N           2.1482    0.9302   31.5212 N.ar    1  UNL1       -0.2110
     28 C           2.6685    1.3498   32.8640 C.ar    1  UNL1        0.1160
     29 C           3.6153    0.4597   33.6131 C.ar    1  UNL1        0.1085
     30 CL          4.1357    0.8793   34.9559 Cl      1  UNL1       -0.0777
     31 N           4.9886   -1.7404   33.7683 N.pl3   1  UNL1       -0.2970
     32 H           4.7879   -2.0032   34.6956 H       1  UNL1        0.1536
     33 C           7.5034   -1.4247   33.1969 C.ar    1  UNL1        0.0668
     34 C           8.7561   -1.9146   32.5330 C.ar    1  UNL1        0.0058
     35 C           8.7468   -3.2099   31.7767 C.ar    1  UNL1        0.0002
     36 C           7.4849   -4.0154   31.6842 C.ar    1  UNL1        0.0013
     37 C           6.2322   -3.5256   32.3480 C.ar    1  UNL1        0.0148
     38 C           6.2414   -2.2302   33.1044 C.ar    1  UNL1        0.0537
     39 C           7.3014    2.4599   33.9837 C.3     1  UNL1        0.1109
     40 N           7.2921    1.1645   33.2274 N.am    1  UNL1       -0.2991
     41 C           7.5127   -0.1295   33.9532 C.2     1  UNL1        0.2471
     42 O           7.7425   -0.1281   35.4355 O.2     1  UNL1       -0.2701
     43 H           7.1412    1.1637   32.2545 H       1  UNL1        0.1498
     44 O           3.0757    1.2909   27.6902 O.3     1  UNL1       -0.4705
     45 C           3.8385    0.2776   26.8895 C.3     1  UNL1        0.2525
@<TRIPOS>BOND
     1    39    40    1
     2    40    41   am
     3    41    42    2
     4    41    33    1
     5    33    34   ar
     6    34    35   ar
     7    35    36   ar
     8    36    37   ar
     9    37    38   ar
    10    38    31    1
    11    31    24    1
    12    24    25   ar
    13    25    26   ar
    14    26    22    1
    15    22     1    1
    16     1     2   ar
    17     2     3   ar
    18     3     4   ar
    19     4     5   ar
    20     5     6   ar
    21     6    44    1
    22    44    45    1
    23     5     7    1
    24     7     8    1
    25     8     9    1
    26     9    10    1
    27    10    12    1
    28    12    13    1
    29    13    14    1
    30    14    15    1
    31    15    18    1
    32    18    19    1
    33    19    20    1
    34    15    16    1
    35    16    17    1
    36    10    11    1
    37    26    27   ar
    38    27    28   ar
    39    28    29   ar
    40    29    30    1
    41    38    33   ar
    42    29    24   ar
    43     6     1   ar
    44    17    12    1
    45    11     4    1
    46    40    43    1
    47    31    32    1
    48    22    23    1
    49    20    21    1
@<TRIPOS>MOLECULE
*****
 45 49 0 0 0
SMALL
GASTEIGER

@<TRIPOS>ATOM
      1 C          -0.4453    2.5227   22.0312 C.ar    1  UNL1        0.0846
      2 C          -0.9227    3.1389   23.3127 C.ar    1  UNL1        0.0174
      3 C          -0.2761    2.7619   24.6127 C.ar    1  UNL1       -0.0031
      4 C           0.8478    1.7686   24.6310 C.ar    1  UNL1       -0.0218
      5 C           1.3251    1.1525   23.3495 C.ar    1  UNL1        0.0091
      6 C           0.6786    1.5294   22.0496 C.ar    1  UNL1        0.1477
      7 C           2.4220    0.1497   23.1455 C.3     1  UNL1        0.0292
      8 C           3.3123   -0.4844   24.1728 C.3     1  UNL1        0.0062
      9 C           3.3257   -0.2725   25.6576 C.3     1  UNL1        0.0166
     10 C           2.4521    0.6259   26.4820 C.3     1  UNL1        0.0619
     11 C           1.3493    1.5343   26.0252 C.3     1  UNL1        0.0421
     12 N           2.7162    0.6145   27.9585 N.3     1  UNL1       -0.2713
     13 C           3.6830    1.5940   28.5551 C.3     1  UNL1        0.0896
     14 C           3.9471    1.5825   30.0317 C.3     1  UNL1        0.0897
     15 N           3.2445    0.5915   30.9116 N.3     1  UNL1       -0.2682
     16 C           2.2777   -0.3881   30.3150 C.3     1  UNL1        0.0897
     17 C           2.0136   -0.3765   28.8384 C.3     1  UNL1        0.0896
     18 C           3.5086    0.5800   32.3881 C.3     1  UNL1        0.1043
     19 C           2.7727    1.5271   33.2891 C.3     1  UNL1        0.1544
     20 O           1.2759    1.6059   33.2323 O.3     1  UNL1       -0.3805
     21 H           1.0030    1.9569   32.3702 H       1  UNL1        0.2105
     22 N          -1.0919    2.8997   20.7313 N.pl3   1  UNL1       -0.2801
     23 H          -0.5804    2.8419   19.8921 H       1  UNL1        0.1552
     24 C          -4.8397    3.5553   21.8603 C.ar    1  UNL1        0.1472
     25 N          -3.4138    3.0903   21.8815 N.ar    1  UNL1       -0.1976
     26 C          -2.5178    3.3648   20.7101 C.ar    1  UNL1        0.2220
     27 N          -3.0479    4.1044   19.5176 N.ar    1  UNL1       -0.2110
     28 C          -4.4738    4.5695   19.4963 C.ar    1  UNL1        0.1160
     29 C          -5.3697    4.2949   20.6677 C.ar    1  UNL1        0.1085
     30 CL         -6.7956    4.7600   20.6465 Cl      1  UNL1       -0.0777
     31 N          -5.7355    3.2808   23.0316 N.pl3   1  UNL1       -0.2970
     32 H          -6.5300    2.7100   22.9206 H       1  UNL1        0.1536
     33 C          -6.2860    4.9671   24.9300 C.ar    1  UNL1        0.0668
     34 C          -5.9713    5.5622   26.2704 C.ar    1  UNL1        0.0058
     35 C          -4.7916    5.0662   27.0530 C.ar    1  UNL1        0.0002
     36 C          -3.9266    3.9752   26.4952 C.ar    1  UNL1        0.0013
     37 C          -4.2412    3.3800   25.1547 C.ar    1  UNL1        0.0148
     38 C          -5.4209    3.8759   24.3721 C.ar    1  UNL1        0.0537
     39 C          -8.8344    7.4306   23.1449 C.3     1  UNL1        0.1109
     40 N          -7.6547    6.9346   23.9275 N.am    1  UNL1       -0.2991
     41 C          -7.4656    5.4630   24.1474 C.2     1  UNL1        0.2471
     42 O          -8.4562    4.4872   23.5848 O.2     1  UNL1       -0.2701
     43 H          -7.0045    7.5751   24.2967 H       1  UNL1        0.1498
     44 O           1.1560    0.9132   20.7680 O.3     1  UNL1       -0.4705
     45 C           0.5153   -0.3424   20.2553 C.3     1  UNL1        0.2525
@<TRIPOS>BOND
     1    39    40    1
     2    40    41   am
     3    41    42    2
     4    41    33    1
     5    33    34   ar
     6    34    35   ar
     7    35    36   ar
     8    36    37   ar
     9    37    38   ar
    10    38    31    1
    11    31    24    1
    12    24    25   ar
    13    25    26   ar
    14    26    22    1
    15    22     1    1
    16     1     2   ar
    17     2     3   ar
    18     3     4   ar
    19     4     5   ar
    20     5     6   ar
    21     6    44    1
    22    44    45    1
    23     5     7    1
    24     7     8    1
    25     8     9    1
    26     9    10    1
    27    10    12    1
    28    12    13    1
    29    13    14    1
    30    14    15    1
    31    15    18    1
    32    18    19    1
    33    19    20    1
    34    15    16    1
    35    16    17    1
    36    10    11    1
    37    26    27   ar
    38    27    28   ar
    39    28    29   ar
    40    29    30    1
    41    38    33   ar
    42    29    24   ar
    43     6     1   ar
    44    17    12    1
    45    11     4    1
    46    40    43    1
    47    31    32    1
    48    22    23    1
    49    20    21    1
@<TRIPOS>MOLECULE
*****
 45 49 0 0 0
SMALL
GASTEIGER

@<TRIPOS>ATOM
      1 C           2.6101   -0.2833   29.1153 C.ar    1  UNL1        0.0846
      2 C           3.4817   -0.7822   30.2295 C.ar    1  UNL1        0.0174
      3 C           3.4471   -0.1072   31.5686 C.ar    1  UNL1       -0.0031
      4 C           2.5408    1.0668   31.7935 C.ar    1  UNL1       -0.0218
      5 C           1.6693    1.5657   30.6794 C.ar    1  UNL1        0.0091
      6 C           1.7039    0.8907   29.3403 C.ar    1  UNL1        0.1477
      7 C           0.7012    2.7114   30.6906 C.3     1  UNL1        0.0292
      8 C           0.3656    3.6412   31.8190 C.3     1  UNL1        0.0062
      9 C           0.9151    3.6547   33.2145 C.3     1  UNL1        0.0166
     10 C           1.9361    2.7420   33.8266 C.3     1  UNL1        0.0619
     11 C           2.6596    1.5902   33.1942 C.3     1  UNL1        0.0421
     12 N           2.2788    3.0174   35.2606 N.3     1  UNL1       -0.2713
     13 C           3.1829    2.0829   36.0086 C.3     1  UNL1        0.0896
     14 C           3.5257    2.3584   37.4427 C.3     1  UNL1        0.0897
     15 N           2.9644    3.5684   38.1289 N.3     1  UNL1       -0.2682
     16 C           2.0603    4.5030   37.3810 C.3     1  UNL1        0.0897
     17 C           1.7176    4.2274   35.9468 C.3     1  UNL1        0.0896
     18 C           3.3071    3.8438   39.5630 C.3     1  UNL1        0.1043
     19 C           4.7431    3.9110   39.9914 C.3     1  UNL1        0.1544
     20 O           5.4302    2.6814   40.5069 O.3     1  UNL1       -0.3805
     21 H           5.0234    2.4110   41.3449 H       1  UNL1        0.2105
     22 N           2.6448   -0.9583   27.7762 N.pl3   1  UNL1       -0.2801
     23 H           2.1041   -1.7656   27.6178 H       1  UNL1        0.1552
     24 C           4.2389   -0.3880   24.1868 C.ar    1  UNL1        0.1472
     25 N           3.3804   -0.9431   25.2845 N.ar    1  UNL1       -0.1976
     26 C           3.5033   -0.4032   26.6786 C.ar    1  UNL1        0.2220
     27 N           4.4848    0.6918   26.9749 N.ar    1  UNL1       -0.2110
     28 C           5.3433    1.2469   25.8774 C.ar    1  UNL1        0.1160
     29 C           5.2203    0.7070   24.4833 C.ar    1  UNL1        0.1085
     30 CL          6.0789    1.2620   23.3856 Cl      1  UNL1       -0.0777
     31 N           4.1160   -0.9279   22.7928 N.pl3   1  UNL1       -0.2970
     32 H           4.8197   -1.5112   22.4269 H       1  UNL1        0.1536
     33 C           2.7321   -1.2207   20.6134 C.ar    1  UNL1        0.0668
     34 C           1.5369   -0.8720   19.7768 C.ar    1  UNL1        0.0058
     35 C           0.5304    0.1184   20.2830 C.ar    1  UNL1        0.0002
     36 C           0.7189    0.7599   21.6256 C.ar    1  UNL1        0.0013
     37 C           1.9141    0.4112   22.4622 C.ar    1  UNL1        0.0148
     38 C           2.9208   -0.5792   21.9562 C.ar    1  UNL1        0.0537
     39 C           5.2997   -3.0650   18.2142 C.3     1  UNL1        0.1109
     40 N           4.2931   -2.0746   18.7203 N.am    1  UNL1       -0.2991
     41 C           3.7386   -2.2110   20.1074 C.2     1  UNL1        0.2471
     42 O           4.1907   -3.3377   20.9883 O.2     1  UNL1       -0.2701
     43 H           3.9964   -1.3351   18.1421 H       1  UNL1        0.1498
     44 O           0.8323    1.3897   28.2261 O.3     1  UNL1       -0.4705
     45 C          -0.4592    0.6933   27.9148 C.3     1  UNL1        0.2525
@<TRIPOS>BOND
     1    39    40    1
     2    40    41   am
     3    41    42    2
     4    41    33    1
     5    33    34   ar
     6    34    35   ar
     7    35    36   ar
     8    36    37   ar
     9    37    38   ar
    10    38    31    1
    11    31    24    1
    12    24    25   ar
    13    25    26   ar
    14    26    22    1
    15    22     1    1
    16     1     2   ar
    17     2     3   ar
    18     3     4   ar
    19     4     5   ar
    20     5     6   ar
    21     6    44    1
    22    44    45    1
    23     5     7    1
    24     7     8    1
    25     8     9    1
    26     9    10    1
    27    10    12    1
    28    12    13    1
    29    13    14    1
    30    14    15    1
    31    15    18    1
    32    18    19    1
    33    19    20    1
    34    15    16    1
    35    16    17    1
    36    10    11    1
    37    26    27   ar
    38    27    28   ar
    39    28    29   ar
    40    29    30    1
    41    38    33   ar
    42    29    24   ar
    43     6     1   ar
    44    17    12    1
    45    11     4    1
    46    40    43    1
    47    31    32    1
    48    22    23    1
    49    20    21    1
@<TRIPOS>MOLECULE
*****
 45 49 0 0 0
SMALL
GASTEIGER

@<TRIPOS>ATOM
      1 C           3.7070   -1.2356   27.6020 C.ar    1  UNL1        0.0846
      2 C           2.4985   -0.6644   28.2826 C.ar    1  UNL1        0.0174
      3 C           2.5653   -0.2794   29.7309 C.ar    1  UNL1       -0.0031
      4 C           3.8406   -0.4656   30.4984 C.ar    1  UNL1       -0.0218
      5 C           5.0490   -1.0367   29.8177 C.ar    1  UNL1        0.0091
      6 C           4.9823   -1.4217   28.3695 C.ar    1  UNL1        0.1477
      7 C           6.4083   -1.3031   30.3934 C.3     1  UNL1        0.0292
      8 C           6.8948   -1.0641   31.7922 C.3     1  UNL1        0.0062
      9 C           6.1421   -0.4997   32.9604 C.3     1  UNL1        0.0166
     10 C           4.7171   -0.0349   33.0187 C.3     1  UNL1        0.0619
     11 C           3.6928   -0.0197   31.9230 C.3     1  UNL1        0.0421
     12 N           4.2554    0.4832   34.3484 N.3     1  UNL1       -0.2713
     13 C           3.3197    1.6538   34.4135 C.3     1  UNL1        0.0896
     14 C           2.8580    2.1719   35.7433 C.3     1  UNL1        0.0897
     15 N           3.3319    1.5194   37.0081 N.3     1  UNL1       -0.2682
     16 C           4.2676    0.3488   36.9431 C.3     1  UNL1        0.0897
     17 C           4.7293   -0.1693   35.6132 C.3     1  UNL1        0.0896
     18 C           2.8702    2.0375   38.3379 C.3     1  UNL1        0.1043
     19 C           1.8756    1.2552   39.1434 C.3     1  UNL1        0.1544
     20 O           2.3076    0.0162   39.8701 O.3     1  UNL1       -0.3805
     21 H           2.5655   -0.6626   39.2270 H       1  UNL1        0.2105
     22 N           3.6402   -1.6206   26.1538 N.pl3   1  UNL1       -0.2801
     23 H           3.6034   -2.5706   25.8981 H       1  UNL1        0.1552
     24 C           2.8407    0.2949   22.7711 C.ar    1  UNL1        0.1472
     25 N           2.8514   -0.7677   23.8298 N.ar    1  UNL1       -0.1976
     26 C           3.6295   -0.5580   25.0950 C.ar    1  UNL1        0.2220
     27 N           4.3969    0.7143   25.3014 N.ar    1  UNL1       -0.2110
     28 C           4.3862    1.7768   24.2428 C.ar    1  UNL1        0.1160
     29 C           3.6081    1.5671   22.9776 C.ar    1  UNL1        0.1085
     30 CL          3.5974    2.6297   21.9189 Cl      1  UNL1       -0.0777
     31 N           2.0626    0.0852   21.5060 N.pl3   1  UNL1       -0.2970
     32 H           1.1104    0.3322   21.4670 H       1  UNL1        0.1536
     33 C           2.6914    0.2265   18.9891 C.ar    1  UNL1        0.0668
     34 C           3.3642   -0.3596   17.7833 C.ar    1  UNL1        0.0058
     35 C           4.0809   -1.6731   17.8887 C.ar    1  UNL1        0.0002
     36 C           4.1249   -2.4005   19.1997 C.ar    1  UNL1        0.0013
     37 C           3.4521   -1.8144   20.4055 C.ar    1  UNL1        0.0148
     38 C           2.7354   -0.5009   20.3002 C.ar    1  UNL1        0.0537
     39 C           1.9937    4.0739   18.3106 C.3     1  UNL1        0.1109
     40 N           2.7104    2.7604   18.4159 N.am    1  UNL1       -0.2991
     41 C           1.9747    1.5399   18.8838 C.2     1  UNL1        0.2471
     42 O           0.5221    1.6329   19.2463 O.2     1  UNL1       -0.2701
     43 H           3.6638    2.6994   18.1779 H       1  UNL1        0.1498
     44 O           6.1908   -1.9929   27.6888 O.3     1  UNL1       -0.4705
     45 C           6.3462   -3.4791   27.5590 C.3     1  UNL1        0.2525
@<TRIPOS>BOND
     1    39    40    1
     2    40    41   am
     3    41    42    2
     4    41    33    1
     5    33    34   ar
     6    34    35   ar
     7    35    36   ar
     8    36    37   ar
     9    37    38   ar
    10    38    31    1
    11    31    24    1
    12    24    25   ar
    13    25    26   ar
    14    26    22    1
    15    22     1    1
    16     1     2   ar
    17     2     3   ar
    18     3     4   ar
    19     4     5   ar
    20     5     6   ar
    21     6    44    1
    22    44    45    1
    23     5     7    1
    24     7     8    1
    25     8     9    1
    26     9    10    1
    27    10    12    1
    28    12    13    1
    29    13    14    1
    30    14    15    1
    31    15    18    1
    32    18    19    1
    33    19    20    1
    34    15    16    1
    35    16    17    1
    36    10    11    1
    37    26    27   ar
    38    27    28   ar
    39    28    29   ar
    40    29    30    1
    41    38    33   ar
    42    29    24   ar
    43     6     1   ar
    44    17    12    1
    45    11     4    1
    46    40    43    1
    47    31    32    1
    48    22    23    1
    49    20    21    1
