@<TRIPOS>MOLECULE
*****
 33 37 0 0 0
SMALL
GASTEIGER

@<TRIPOS>ATOM
      1 C           6.2974   -3.0486   31.3156 C.ar    1  UNL1        0.1642
      2 N           5.8433   -2.5609   29.9718 N.ar    1  UNL1       -0.2123
      3 C           6.1581   -3.3563   28.7396 C.ar    1  UNL1        0.1286
      4 N           5.7040   -2.8686   27.3957 N.pl3   1  UNL1       -0.3425
      5 C           6.9271   -4.6393   28.8513 C.ar    1  UNL1        0.0513
      6 C           7.3820   -5.6299   27.8208 C.ar    1  UNL1       -0.0155
      7 C           8.1172   -6.7296   28.5278 C.ar    1  UNL1        0.0048
      8 S           8.1168   -6.4189   29.9952 S.2     1  UNL1       -0.0725
      9 C           7.3813   -5.1270   30.1952 C.ar    1  UNL1        0.1144
     10 N           7.0664   -4.3316   31.4273 N.ar    1  UNL1       -0.2200
     11 C           8.7627   -7.9503   27.9418 C.3     1  UNL1        0.0327
     12 C           8.8324   -8.3726   26.5041 C.3     1  UNL1        0.0052
     13 C           8.2739   -7.6785   25.2975 C.3     1  UNL1        0.0007
     14 C           7.5076   -6.3908   25.2302 C.3     1  UNL1        0.0047
     15 C           7.1107   -5.4790   26.3533 C.3     1  UNL1        0.0267
     16 H           5.1993   -2.0265   27.3225 H       1  UNL1        0.1437
     17 H           5.9107   -3.3906   26.5870 H       1  UNL1        0.1437
     18 C           4.8780   -1.2386   32.5236 C.2     1  UNL1        0.0032
     19 C           5.9825   -2.2532   32.5478 C.2     1  UNL1        0.0388
     20 C           3.2392    1.4603   34.9278 C.ar    1  UNL1        0.1547
     21 C           3.5540    0.6650   33.6956 C.ar    1  UNL1        0.0384
     22 C           4.5631   -0.4432   33.7558 C.ar    1  UNL1        0.0032
     23 C           5.2573   -0.7560   35.0481 C.ar    1  UNL1        0.0017
     24 C           4.9424    0.0394   36.2803 C.ar    1  UNL1        0.0206
     25 C           3.9334    1.1475   36.2202 C.ar    1  UNL1        0.0994
     26 N           3.6185    1.9429   37.4523 N.ar    1  UNL1       -0.2839
     27 C           2.5745    1.6071   38.4756 C.ar    1  UNL1        0.1826
     28 N           2.6031    2.6703   39.5332 N.ar    1  UNL1       -0.2280
     29 C           3.6649    3.6634   39.1636 C.ar    1  UNL1        0.0786
     30 C           4.0341    4.8905   39.9432 C.3     1  UNL1        0.0538
     31 C           4.2924    3.2137   37.8775 C.ar    1  UNL1        0.0963
     32 C           1.6907    3.0206   33.5429 C.3     1  UNL1        0.2525
     33 O           2.2301    2.5685   34.8676 O.3     1  UNL1       -0.4700
@<TRIPOS>BOND
     1    32    33    1
     2    33    20    1
     3    20    21   ar
     4    21    22   ar
     5    22    18    1
     6    18    19    2
     7    19     1    1
     8     1     2   ar
     9     2     3   ar
    10     3     4    1
    11     3     5   ar
    12     5     6   ar
    13     6     7   ar
    14     7     8   ar
    15     8     9   ar
    16     9    10   ar
    17     7    11    1
    18    11    12    1
    19    12    13    1
    20    13    14    1
    21    14    15    1
    22    22    23   ar
    23    23    24   ar
    24    24    25   ar
    25    25    26    1
    26    26    27   ar
    27    27    28   ar
    28    28    29   ar
    29    29    30    1
    30    29    31   ar
    31    25    20   ar
    32    31    26   ar
    33    10     1   ar
    34     9     5   ar
    35    15     6    1
    36     4    16    1
    37     4    17    1
@<TRIPOS>MOLECULE
*****
 33 37 0 0 0
SMALL
GASTEIGER

@<TRIPOS>ATOM
      1 C           6.2797   -3.1983   30.5627 C.ar    1  UNL1        0.1642
      2 N           5.8685   -2.5722   29.2631 N.ar    1  UNL1       -0.2123
      3 C           6.2129   -3.2419   27.9659 C.ar    1  UNL1        0.1286
      4 N           5.8017   -2.6158   26.6663 N.pl3   1  UNL1       -0.3425
      5 C           6.9684   -4.5377   27.9682 C.ar    1  UNL1        0.0513
      6 C           7.4454   -5.4235   26.8556 C.ar    1  UNL1       -0.0155
      7 C           8.1512   -6.5969   27.4675 C.ar    1  UNL1        0.0048
      8 S           8.1107   -6.4365   28.9583 S.2     1  UNL1       -0.0725
      9 C           7.3796   -5.1638   29.2678 C.ar    1  UNL1        0.1144
     10 N           7.0353   -4.4941   30.5651 N.ar    1  UNL1       -0.2200
     11 C           8.8041   -7.7588   26.7790 C.3     1  UNL1        0.0327
     12 C           8.9123   -8.0339   25.3083 C.3     1  UNL1        0.0052
     13 C           8.3943   -7.2153   24.1632 C.3     1  UNL1        0.0007
     14 C           7.6403   -5.9193   24.2057 C.3     1  UNL1        0.0047
     15 C           7.2179   -5.1218   25.4039 C.3     1  UNL1        0.0267
     16 H           5.3058   -1.7653   26.6648 H       1  UNL1        0.1437
     17 H           6.0277   -3.0553   25.8148 H       1  UNL1        0.1437
     18 C           5.3520   -1.1466   31.8589 C.2     1  UNL1        0.0032
     19 C           5.9353   -2.5285   31.8600 C.2     1  UNL1        0.0388
     20 C           5.4298   -0.1439   35.6979 C.ar    1  UNL1        0.1547
     21 C           5.7743   -0.8136   34.4007 C.ar    1  UNL1        0.0384
     22 C           5.0077   -0.4769   33.1562 C.ar    1  UNL1        0.0032
     23 C           3.8967    0.5295   33.2089 C.ar    1  UNL1        0.0017
     24 C           3.5523    1.1993   34.5061 C.ar    1  UNL1        0.0206
     25 C           4.3188    0.8626   35.7507 C.ar    1  UNL1        0.0994
     26 N           3.9745    1.5323   37.0479 N.ar    1  UNL1       -0.2839
     27 C           3.0930    0.9703   38.1235 C.ar    1  UNL1        0.1826
     28 N           3.0248    1.9722   39.2377 N.ar    1  UNL1       -0.2280
     29 C           3.8643    3.1536   38.8507 C.ar    1  UNL1        0.0786
     30 C           4.0791    4.3897   39.6728 C.3     1  UNL1        0.0538
     31 C           4.4512    2.8817   37.4973 C.ar    1  UNL1        0.0963
     32 C           7.5818    0.0600   37.1393 C.3     1  UNL1        0.2525
     33 O           6.1964   -0.4806   36.9426 O.3     1  UNL1       -0.4700
@<TRIPOS>BOND
     1    32    33    1
     2    33    20    1
     3    20    21   ar
     4    21    22   ar
     5    22    18    1
     6    18    19    2
     7    19     1    1
     8     1     2   ar
     9     2     3   ar
    10     3     4    1
    11     3     5   ar
    12     5     6   ar
    13     6     7   ar
    14     7     8   ar
    15     8     9   ar
    16     9    10   ar
    17     7    11    1
    18    11    12    1
    19    12    13    1
    20    13    14    1
    21    14    15    1
    22    22    23   ar
    23    23    24   ar
    24    24    25   ar
    25    25    26    1
    26    26    27   ar
    27    27    28   ar
    28    28    29   ar
    29    29    30    1
    30    29    31   ar
    31    25    20   ar
    32    31    26   ar
    33    10     1   ar
    34     9     5   ar
    35    15     6    1
    36     4    16    1
    37     4    17    1
@<TRIPOS>MOLECULE
*****
 33 37 0 0 0
SMALL
GASTEIGER

@<TRIPOS>ATOM
      1 C          -1.2895    2.8206   21.7060 C.ar    1  UNL1        0.1642
      2 N          -2.4701    2.6935   20.7895 N.ar    1  UNL1       -0.2123
      3 C          -3.8105    3.2142   21.2165 C.ar    1  UNL1        0.1286
      4 N          -4.9912    3.0872   20.3000 N.pl3   1  UNL1       -0.3425
      5 C          -3.9702    3.8620   22.5599 C.ar    1  UNL1        0.0513
      6 C          -5.1587    4.4643   23.2490 C.ar    1  UNL1       -0.0155
      7 C          -4.7126    4.9636   24.5911 C.ar    1  UNL1        0.0048
      8 S          -3.2484    4.6699   24.7318 S.2     1  UNL1       -0.0725
      9 C          -2.7895    3.9890   23.4764 C.ar    1  UNL1        0.1144
     10 N          -1.4492    3.4683   23.0494 N.ar    1  UNL1       -0.2200
     11 C          -5.5248    5.6432   25.6535 C.3     1  UNL1        0.0327
     12 C          -6.9838    5.9914   25.6358 C.3     1  UNL1        0.0052
     13 C          -7.9907    5.7459   24.5516 C.3     1  UNL1        0.0007
     14 C          -7.7876    5.0917   23.2172 C.3     1  UNL1        0.0047
     15 C          -6.5272    4.5213   22.6374 C.3     1  UNL1        0.0267
     16 H          -4.8863    2.6620   19.4182 H       1  UNL1        0.1437
     17 H          -5.8709    3.4289   20.5802 H       1  UNL1        0.1437
     18 C           0.1653    0.9345   20.6687 C.2     1  UNL1        0.0032
     19 C           0.0509    2.2999   21.2789 C.2     1  UNL1        0.0388
     20 C           3.2312   -1.5245   20.1178 C.ar    1  UNL1        0.1547
     21 C           1.8909   -1.0039   20.5449 C.ar    1  UNL1        0.0384
     22 C           1.5057    0.4138   20.2417 C.ar    1  UNL1        0.0032
     23 C           2.4608    1.3107   19.5115 C.ar    1  UNL1        0.0017
     24 C           3.8012    0.7900   19.0845 C.ar    1  UNL1        0.0206
     25 C           4.1865   -0.6275   19.3876 C.ar    1  UNL1        0.0994
     26 N           5.5268   -1.1482   18.9606 N.ar    1  UNL1       -0.2839
     27 C           5.8732   -1.6829   17.6027 C.ar    1  UNL1        0.1826
     28 N           7.3165   -2.0908   17.6194 N.ar    1  UNL1       -0.2280
     29 C           7.8622   -1.8082   18.9877 C.ar    1  UNL1        0.0786
     30 C           9.2674   -2.0633   19.4465 C.3     1  UNL1        0.0538
     31 C           6.7561   -1.2256   19.8166 C.ar    1  UNL1        0.0963
     32 C           3.5156   -3.9913   19.3536 C.3     1  UNL1        0.2525
     33 O           3.6165   -2.9422   20.4209 O.3     1  UNL1       -0.4700
@<TRIPOS>BOND
     1    32    33    1
     2    33    20    1
     3    20    21   ar
     4    21    22   ar
     5    22    18    1
     6    18    19    2
     7    19     1    1
     8     1     2   ar
     9     2     3   ar
    10     3     4    1
    11     3     5   ar
    12     5     6   ar
    13     6     7   ar
    14     7     8   ar
    15     8     9   ar
    16     9    10   ar
    17     7    11    1
    18    11    12    1
    19    12    13    1
    20    13    14    1
    21    14    15    1
    22    22    23   ar
    23    23    24   ar
    24    24    25   ar
    25    25    26    1
    26    26    27   ar
    27    27    28   ar
    28    28    29   ar
    29    29    30    1
    30    29    31   ar
    31    25    20   ar
    32    31    26   ar
    33    10     1   ar
    34     9     5   ar
    35    15     6    1
    36     4    16    1
    37     4    17    1
@<TRIPOS>MOLECULE
*****
 33 37 0 0 0
SMALL
GASTEIGER

@<TRIPOS>ATOM
      1 C           6.1366   -2.6962   31.4822 C.ar    1  UNL1        0.1642
      2 N           6.6809   -4.0920   31.5555 N.ar    1  UNL1       -0.2123
      3 C           7.0184   -4.8325   30.2954 C.ar    1  UNL1        0.1286
      4 N           7.5627   -6.2283   30.3687 N.pl3   1  UNL1       -0.3425
      5 C           6.8115   -4.1772   28.9621 C.ar    1  UNL1        0.0513
      6 C           7.0513   -4.6552   27.5607 C.ar    1  UNL1       -0.0155
      7 C           6.6553   -3.5549   26.6215 C.ar    1  UNL1        0.0048
      8 S           6.1706   -2.3968   27.4422 S.2     1  UNL1       -0.0725
      9 C           6.2671   -2.7813   28.8889 C.ar    1  UNL1        0.1144
     10 N           5.9296   -2.0408   30.1490 N.ar    1  UNL1       -0.2200
     11 C           6.7061   -3.5414   25.1223 C.3     1  UNL1        0.0327
     12 C           7.1657   -4.6249   24.1923 C.3     1  UNL1        0.0052
     13 C           7.6878   -5.9894   24.5317 C.3     1  UNL1        0.0007
     14 C           7.8794   -6.6076   25.8850 C.3     1  UNL1        0.0047
     15 C           7.5962   -6.0138   27.2330 C.3     1  UNL1        0.0267
     16 H           7.6985   -6.6584   31.2438 H       1  UNL1        0.1437
     17 H           7.7842   -6.7143   29.5416 H       1  UNL1        0.1437
     18 C           4.7983   -0.8388   32.7108 C.2     1  UNL1        0.0032
     19 C           5.7991   -1.9557   32.7424 C.2     1  UNL1        0.0388
     20 C           3.1551    1.7869   35.1917 C.ar    1  UNL1        0.1547
     21 C           3.4925    1.0465   33.9315 C.ar    1  UNL1        0.0384
     22 C           4.4609   -0.0983   33.9709 C.ar    1  UNL1        0.0032
     23 C           5.0918   -0.5027   35.2702 C.ar    1  UNL1        0.0017
     24 C           4.7544    0.2378   36.5303 C.ar    1  UNL1        0.0206
     25 C           3.7860    1.3826   36.4911 C.ar    1  UNL1        0.0994
     26 N           3.4486    2.1231   37.7512 N.ar    1  UNL1       -0.2839
     27 C           2.2723    1.8558   38.6428 C.ar    1  UNL1        0.1826
     28 N           2.3249    2.8284   39.7835 N.ar    1  UNL1       -0.2280
     29 C           3.5337    3.6968   39.5969 C.ar    1  UNL1        0.0786
     30 C           3.9711    4.8062   40.5067 C.3     1  UNL1        0.0538
     31 C           4.2281    3.2608   38.3409 C.ar    1  UNL1        0.0963
     32 C           1.6552    3.4197   33.8373 C.3     1  UNL1        0.2525
     33 O           2.1867    2.9318   35.1524 O.3     1  UNL1       -0.4700
@<TRIPOS>BOND
     1    32    33    1
     2    33    20    1
     3    20    21   ar
     4    21    22   ar
     5    22    18    1
     6    18    19    2
     7    19     1    1
     8     1     2   ar
     9     2     3   ar
    10     3     4    1
    11     3     5   ar
    12     5     6   ar
    13     6     7   ar
    14     7     8   ar
    15     8     9   ar
    16     9    10   ar
    17     7    11    1
    18    11    12    1
    19    12    13    1
    20    13    14    1
    21    14    15    1
    22    22    23   ar
    23    23    24   ar
    24    24    25   ar
    25    25    26    1
    26    26    27   ar
    27    27    28   ar
    28    28    29   ar
    29    29    30    1
    30    29    31   ar
    31    25    20   ar
    32    31    26   ar
    33    10     1   ar
    34     9     5   ar
    35    15     6    1
    36     4    16    1
    37     4    17    1
@<TRIPOS>MOLECULE
*****
 33 37 0 0 0
SMALL
GASTEIGER

@<TRIPOS>ATOM
      1 C          -0.5103    2.4647   19.9275 C.ar    1  UNL1        0.1642
      2 N          -0.5168    3.3170   18.6932 N.ar    1  UNL1       -0.2123
      3 C          -1.7342    4.1203   18.3429 C.ar    1  UNL1        0.1286
      4 N          -1.7407    4.9726   17.1086 N.pl3   1  UNL1       -0.3425
      5 C          -2.9451    4.0711   19.2268 C.ar    1  UNL1        0.0513
      6 C          -4.2805    4.7486   19.1384 C.ar    1  UNL1       -0.0155
      7 C          -5.0992    4.3149   20.3179 C.ar    1  UNL1        0.0048
      8 S          -4.2699    3.3695   21.1355 S.2     1  UNL1       -0.0725
      9 C          -2.9386    3.2188   20.4611 C.ar    1  UNL1        0.1144
     10 N          -1.7212    2.4156   20.8114 N.ar    1  UNL1       -0.2200
     11 C          -6.4995    4.7116   20.6811 C.3     1  UNL1        0.0327
     12 C          -7.4269    5.6400   19.9542 C.3     1  UNL1        0.0052
     13 C          -7.1829    6.4009   18.6848 C.3     1  UNL1        0.0007
     14 C          -5.9514    6.4214   17.8286 C.3     1  UNL1        0.0047
     15 C          -4.6597    5.6861   18.0305 C.3     1  UNL1        0.0267
     16 H          -0.9459    5.0048   16.5284 H       1  UNL1        0.1437
     17 H          -2.5397    5.4998   16.8786 H       1  UNL1        0.1437
     18 C           0.6241    0.1654   20.3474 C.2     1  UNL1        0.0032
     19 C           0.7071    1.6615   20.2779 C.2     1  UNL1        0.0388
     20 C           3.6376   -2.3998   20.0503 C.ar    1  UNL1        0.1547
     21 C           2.4202   -1.5966   19.6998 C.ar    1  UNL1        0.0384
     22 C           1.8415   -0.6379   20.6978 C.ar    1  UNL1        0.0032
     23 C           2.4802   -0.4823   22.0461 C.ar    1  UNL1        0.0017
     24 C           3.6976   -1.2855   22.3964 C.ar    1  UNL1        0.0206
     25 C           4.2764   -2.2443   21.3986 C.ar    1  UNL1        0.0994
     26 N           5.4937   -3.0475   21.7490 N.ar    1  UNL1       -0.2839
     27 C           5.6468   -3.9406   22.9443 C.ar    1  UNL1        0.1826
     28 N           7.0194   -4.5437   22.8996 N.ar    1  UNL1       -0.2280
     29 C           7.7148   -4.0234   21.6766 C.ar    1  UNL1        0.0786
     30 C           9.1084   -4.3674   21.2412 C.3     1  UNL1        0.0538
     31 C           6.7718   -3.0987   20.9655 C.ar    1  UNL1        0.0963
     32 C           3.8828   -4.8188   19.1346 C.3     1  UNL1        0.2525
     33 O           4.2164   -3.3586   19.0524 O.3     1  UNL1       -0.4700
@<TRIPOS>BOND
     1    32    33    1
     2    33    20    1
     3    20    21   ar
     4    21    22   ar
     5    22    18    1
     6    18    19    2
     7    19     1    1
     8     1     2   ar
     9     2     3   ar
    10     3     4    1
    11     3     5   ar
    12     5     6   ar
    13     6     7   ar
    14     7     8   ar
    15     8     9   ar
    16     9    10   ar
    17     7    11    1
    18    11    12    1
    19    12    13    1
    20    13    14    1
    21    14    15    1
    22    22    23   ar
    23    23    24   ar
    24    24    25   ar
    25    25    26    1
    26    26    27   ar
    27    27    28   ar
    28    28    29   ar
    29    29    30    1
    30    29    31   ar
    31    25    20   ar
    32    31    26   ar
    33    10     1   ar
    34     9     5   ar
    35    15     6    1
    36     4    16    1
    37     4    17    1
@<TRIPOS>MOLECULE
*****
 33 37 0 0 0
SMALL
GASTEIGER

@<TRIPOS>ATOM
      1 C          -2.1319    3.2023   24.5957 C.ar    1  UNL1        0.1642
      2 N          -3.6108    3.3565   24.7933 N.ar    1  UNL1       -0.2123
      3 C          -4.5046    3.5936   23.6122 C.ar    1  UNL1        0.1286
      4 N          -5.9835    3.7478   23.8099 N.pl3   1  UNL1       -0.3425
      5 C          -3.9195    3.6764   22.2336 C.ar    1  UNL1        0.0513
      6 C          -4.5460    3.8998   20.8890 C.ar    1  UNL1       -0.0155
      7 C          -3.4543    3.8836   19.8606 C.ar    1  UNL1        0.0048
      8 S          -2.1531    3.6503   20.5693 S.2     1  UNL1       -0.0725
      9 C          -2.4406    3.5222   22.0359 C.ar    1  UNL1        0.1144
     10 N          -1.5468    3.2851   23.2170 N.ar    1  UNL1       -0.2200
     11 C          -3.5660    4.0613   18.3753 C.3     1  UNL1        0.0327
     12 C          -4.7970    4.2989   17.5518 C.3     1  UNL1        0.0052
     13 C          -6.2202    4.4177   18.0101 C.3     1  UNL1        0.0007
     14 C          -6.7642    4.3281   19.4052 C.3     1  UNL1        0.0047
     15 C          -6.0190    4.0976   20.6864 C.3     1  UNL1        0.0267
     16 H          -6.3675    3.6933   24.7148 H       1  UNL1        0.1437
     17 H          -6.5702    3.9034   23.0347 H       1  UNL1        0.1437
     18 C          -0.5607    1.6381   25.9502 C.2     1  UNL1        0.0032
     19 C          -1.2381    2.9652   25.7767 C.2     1  UNL1        0.0388
     20 C           0.7132    1.4016   29.7014 C.ar    1  UNL1        0.1547
     21 C          -0.1807    1.6387   28.5203 C.ar    1  UNL1        0.0384
     22 C           0.3331    1.4010   27.1313 C.ar    1  UNL1        0.0032
     23 C           1.7407    0.9262   26.9233 C.ar    1  UNL1        0.0017
     24 C           2.6345    0.6891   28.1043 C.ar    1  UNL1        0.0206
     25 C           2.1208    0.9268   29.4934 C.ar    1  UNL1        0.0994
     26 N           3.0146    0.6897   30.6744 N.ar    1  UNL1       -0.2839
     27 C           3.9214    1.7009   31.3109 C.ar    1  UNL1        0.1826
     28 N           4.6257    1.0359   32.4562 N.ar    1  UNL1       -0.2280
     29 C           4.1542   -0.3863   32.5276 C.ar    1  UNL1        0.0786
     30 C           4.6001   -1.4139   33.5250 C.3     1  UNL1        0.0538
     31 C           3.1585   -0.6002   31.4264 C.ar    1  UNL1        0.0963
     32 C           0.4127    2.9687   31.7517 C.3     1  UNL1        0.2525
     33 O           0.1994    1.6393   31.0905 O.3     1  UNL1       -0.4700
@<TRIPOS>BOND
     1    32    33    1
     2    33    20    1
     3    20    21   ar
     4    21    22   ar
     5    22    18    1
     6    18    19    2
     7    19     1    1
     8     1     2   ar
     9     2     3   ar
    10     3     4    1
    11     3     5   ar
    12     5     6   ar
    13     6     7   ar
    14     7     8   ar
    15     8     9   ar
    16     9    10   ar
    17     7    11    1
    18    11    12    1
    19    12    13    1
    20    13    14    1
    21    14    15    1
    22    22    23   ar
    23    23    24   ar
    24    24    25   ar
    25    25    26    1
    26    26    27   ar
    27    27    28   ar
    28    28    29   ar
    29    29    30    1
    30    29    31   ar
    31    25    20   ar
    32    31    26   ar
    33    10     1   ar
    34     9     5   ar
    35    15     6    1
    36     4    16    1
    37     4    17    1
@<TRIPOS>MOLECULE
*****
 33 37 0 0 0
SMALL
GASTEIGER

@<TRIPOS>ATOM
      1 C          -3.1343    3.4536   24.6756 C.ar    1  UNL1        0.1642
      2 N          -4.6298    3.5645   24.6412 N.ar    1  UNL1       -0.2123
      3 C          -5.3370    3.7666   23.3339 C.ar    1  UNL1        0.1286
      4 N          -6.8325    3.8775   23.2995 N.pl3   1  UNL1       -0.3425
      5 C          -4.5487    3.8576   22.0610 C.ar    1  UNL1        0.0513
      6 C          -4.9662    4.0528   20.6336 C.ar    1  UNL1       -0.0155
      7 C          -3.7288    4.0625   19.7859 C.ar    1  UNL1        0.0048
      8 S          -2.5465    3.8733   20.6893 S.2     1  UNL1       -0.0725
      9 C          -3.0532    3.7466   22.0954 C.ar    1  UNL1        0.1144
     10 N          -2.3460    3.5446   23.4028 N.ar    1  UNL1       -0.2200
     11 C          -3.6149    4.2265   18.2992 C.3     1  UNL1        0.0327
     12 C          -4.7104    4.4214   17.2931 C.3     1  UNL1        0.0052
     13 C          -6.1901    4.5004   17.5253 C.3     1  UNL1        0.0007
     14 C          -6.9401    4.4040   18.8208 C.3     1  UNL1        0.0047
     15 C          -6.3954    4.2048   20.2041 C.3     1  UNL1        0.0267
     16 H          -7.3499    3.8178   24.1350 H       1  UNL1        0.1437
     17 H          -7.2966    4.0101   22.4415 H       1  UNL1        0.1437
     18 C          -1.1783    2.4225   26.0399 C.2     1  UNL1        0.0032
     19 C          -2.4271    3.2515   25.9830 C.2     1  UNL1        0.0388
     20 C           1.3047    2.9787   29.0853 C.ar    1  UNL1        0.1547
     21 C           0.5976    3.1808   27.7780 C.ar    1  UNL1        0.0384
     22 C          -0.4712    2.2205   27.3472 C.ar    1  UNL1        0.0032
     23 C          -0.8328    1.0582   28.2237 C.ar    1  UNL1        0.0017
     24 C          -0.1256    0.8562   29.5311 C.ar    1  UNL1        0.0206
     25 C           0.9432    1.8164   29.9619 C.ar    1  UNL1        0.0994
     26 N           1.6503    1.6144   31.2692 N.ar    1  UNL1       -0.2839
     27 C           1.4117    2.3912   32.5300 C.ar    1  UNL1        0.1826
     28 N           2.3342    1.8570   33.5852 N.ar    1  UNL1       -0.2280
     29 C           3.1430    0.7500   32.9766 C.ar    1  UNL1        0.0786
     30 C           4.1905   -0.0641   33.6766 C.3     1  UNL1        0.0538
     31 C           2.7203    0.6000   31.5453 C.ar    1  UNL1        0.0963
     32 C           1.9964    5.2605   30.1173 C.3     1  UNL1        0.2525
     33 O           2.3735    3.9390   29.5162 O.3     1  UNL1       -0.4700
@<TRIPOS>BOND
     1    32    33    1
     2    33    20    1
     3    20    21   ar
     4    21    22   ar
     5    22    18    1
     6    18    19    2
     7    19     1    1
     8     1     2   ar
     9     2     3   ar
    10     3     4    1
    11     3     5   ar
    12     5     6   ar
    13     6     7   ar
    14     7     8   ar
    15     8     9   ar
    16     9    10   ar
    17     7    11    1
    18    11    12    1
    19    12    13    1
    20    13    14    1
    21    14    15    1
    22    22    23   ar
    23    23    24   ar
    24    24    25   ar
    25    25    26    1
    26    26    27   ar
    27    27    28   ar
    28    28    29   ar
    29    29    30    1
    30    29    31   ar
    31    25    20   ar
    32    31    26   ar
    33    10     1   ar
    34     9     5   ar
    35    15     6    1
    36     4    16    1
    37     4    17    1
@<TRIPOS>MOLECULE
*****
 33 37 0 0 0
SMALL
GASTEIGER

@<TRIPOS>ATOM
      1 C           6.5036   -1.3920   32.6795 C.ar    1  UNL1        0.1642
      2 N           6.5274   -2.8747   32.9052 N.ar    1  UNL1       -0.2123
      3 C           6.5939   -3.8105   31.7347 C.ar    1  UNL1        0.1286
      4 N           6.6176   -5.2932   31.9604 N.pl3   1  UNL1       -0.3425
      5 C           6.6366   -3.2635   30.3387 C.ar    1  UNL1        0.0513
      6 C           6.7039   -3.9351   28.9991 C.ar    1  UNL1       -0.0155
      7 C           6.7218   -2.8675   27.9457 C.ar    1  UNL1        0.0048
      8 S           6.6655   -1.5360   28.6341 S.2     1  UNL1       -0.0725
      9 C           6.6128   -1.7808   30.1130 C.ar    1  UNL1        0.1144
     10 N           6.5463   -0.8450   31.2835 N.ar    1  UNL1       -0.2200
     11 C           6.7837   -3.0252   26.4553 C.3     1  UNL1        0.0327
     12 C           6.8431   -4.2896   25.6503 C.3     1  UNL1        0.0052
     13 C           6.8552   -5.7083   26.1369 C.3     1  UNL1        0.0007
     14 C           6.8109   -6.2133   27.5486 C.3     1  UNL1        0.0047
     15 C           6.7436   -5.4242   28.8225 C.3     1  UNL1        0.0267
     16 H           6.5896   -5.6522   32.8767 H       1  UNL1        0.1437
     17 H           6.6613   -5.9074   31.1922 H       1  UNL1        0.1437
     18 C           5.2577   -0.4960   34.7759 C.2     1  UNL1        0.0032
     19 C           6.4371   -0.4562   33.8500 C.2     1  UNL1        0.0388
     20 C           4.1081    1.1542   38.1972 C.ar    1  UNL1        0.1547
     21 C           4.1745    0.2184   37.0268 C.ar    1  UNL1        0.0384
     22 C           5.1912    0.4398   35.9464 C.ar    1  UNL1        0.0032
     23 C           6.1414    1.5969   36.0364 C.ar    1  UNL1        0.0017
     24 C           6.0749    2.5327   37.2069 C.ar    1  UNL1        0.0206
     25 C           5.0583    2.3114   38.2873 C.ar    1  UNL1        0.0994
     26 N           4.9918    3.2471   39.4577 N.ar    1  UNL1       -0.2839
     27 C           3.9717    4.3268   39.6665 C.ar    1  UNL1        0.1826
     28 N           4.2831    5.0144   40.9626 N.ar    1  UNL1       -0.2280
     29 C           5.4958    4.3597   41.5550 C.ar    1  UNL1        0.0786
     30 C           6.1548    4.7320   42.8500 C.3     1  UNL1        0.0538
     31 C           5.9338    3.2675   40.6248 C.ar    1  UNL1        0.0963
     32 C           1.6710    1.3689   39.0716 C.3     1  UNL1        0.2525
     33 O           3.0914    0.9329   39.2777 O.3     1  UNL1       -0.4700
@<TRIPOS>BOND
     1    32    33    1
     2    33    20    1
     3    20    21   ar
     4    21    22   ar
     5    22    18    1
     6    18    19    2
     7    19     1    1
     8     1     2   ar
     9     2     3   ar
    10     3     4    1
    11     3     5   ar
    12     5     6   ar
    13     6     7   ar
    14     7     8   ar
    15     8     9   ar
    16     9    10   ar
    17     7    11    1
    18    11    12    1
    19    12    13    1
    20    13    14    1
    21    14    15    1
    22    22    23   ar
    23    23    24   ar
    24    24    25   ar
    25    25    26    1
    26    26    27   ar
    27    27    28   ar
    28    28    29   ar
    29    29    30    1
    30    29    31   ar
    31    25    20   ar
    32    31    26   ar
    33    10     1   ar
    34     9     5   ar
    35    15     6    1
    36     4    16    1
    37     4    17    1
@<TRIPOS>MOLECULE
*****
 33 37 0 0 0
SMALL
GASTEIGER

@<TRIPOS>ATOM
      1 C           2.8991    0.7162   26.3908 C.ar    1  UNL1        0.1642
      2 N           3.7976   -0.4764   26.5331 N.ar    1  UNL1       -0.2123
      3 C           4.0964   -1.3368   25.3412 C.ar    1  UNL1        0.1286
      4 N           4.9949   -2.5294   25.4835 N.pl3   1  UNL1       -0.3425
      5 C           3.4967   -1.0044   24.0071 C.ar    1  UNL1        0.0513
      6 C           3.6092   -1.6629   22.6640 C.ar    1  UNL1       -0.0155
      7 C           2.7802   -0.8772   21.6918 C.ar    1  UNL1        0.0048
      8 S           2.1554    0.2669   22.4338 S.2     1  UNL1       -0.0725
      9 C           2.5982    0.1882   23.8648 C.ar    1  UNL1        0.1144
     10 N           2.2994    1.0486   25.0566 N.ar    1  UNL1       -0.2200
     11 C           2.5664   -1.1282   20.2284 C.3     1  UNL1        0.0327
     12 C           3.1288   -2.2270   19.3760 C.3     1  UNL1        0.0052
     13 C           4.0438   -3.3460   19.7764 C.3     1  UNL1        0.0007
     14 C           4.6226   -3.6427   21.1281 C.3     1  UNL1        0.0047
     15 C           4.4291   -2.8937   22.4132 C.3     1  UNL1        0.0267
     16 H           5.3885   -2.7475   26.3592 H       1  UNL1        0.1437
     17 H           5.1911   -3.0941   24.7013 H       1  UNL1        0.1437
     18 C           1.1897    1.7127   28.0746 C.2     1  UNL1        0.0032
     19 C           2.6002    1.5766   27.5826 C.2     1  UNL1        0.0388
     20 C           0.4892    4.9216   30.3021 C.ar    1  UNL1        0.1547
     21 C           0.7880    4.0614   29.1102 C.ar    1  UNL1        0.0384
     22 C           0.8909    2.5731   29.2664 C.ar    1  UNL1        0.0032
     23 C           0.6949    1.9451   30.6145 C.ar    1  UNL1        0.0017
     24 C           0.3961    2.8055   31.8064 C.ar    1  UNL1        0.0206
     25 C           0.2932    4.2937   31.6503 C.ar    1  UNL1        0.0994
     26 N          -0.0056    5.1540   32.8421 N.ar    1  UNL1       -0.2839
     27 C           0.9719    5.5570   33.9060 C.ar    1  UNL1        0.1826
     28 N           0.2473    6.4144   34.9007 N.ar    1  UNL1       -0.2280
     29 C          -1.1783    6.5414   34.4516 C.ar    1  UNL1        0.0786
     30 C          -2.2579    7.3121   35.1519 C.3     1  UNL1        0.0538
     31 C          -1.3345    5.7625   33.1793 C.ar    1  UNL1        0.0963
     32 C           1.5980    7.2708   30.3484 C.3     1  UNL1        0.2525
     33 O           0.3863    6.4100   30.1460 O.3     1  UNL1       -0.4700
@<TRIPOS>BOND
     1    32    33    1
     2    33    20    1
     3    20    21   ar
     4    21    22   ar
     5    22    18    1
     6    18    19    2
     7    19     1    1
     8     1     2   ar
     9     2     3   ar
    10     3     4    1
    11     3     5   ar
    12     5     6   ar
    13     6     7   ar
    14     7     8   ar
    15     8     9   ar
    16     9    10   ar
    17     7    11    1
    18    11    12    1
    19    12    13    1
    20    13    14    1
    21    14    15    1
    22    22    23   ar
    23    23    24   ar
    24    24    25   ar
    25    25    26    1
    26    26    27   ar
    27    27    28   ar
    28    28    29   ar
    29    29    30    1
    30    29    31   ar
    31    25    20   ar
    32    31    26   ar
    33    10     1   ar
    34     9     5   ar
    35    15     6    1
    36     4    16    1
    37     4    17    1
