@<TRIPOS>MOLECULE
*****
 31 32 0 0 0
SMALL
GASTEIGER

@<TRIPOS>ATOM
      1 C          -9.7012  -17.8556   23.7333 C.3     1  UNL1        0.0949
      2 C         -10.5511  -18.6574   24.6740 C.3     1  UNL1        0.0233
      3 C         -10.4608  -20.0983   24.2668 C.3     1  UNL1        0.0233
      4 C          -9.5551  -20.1870   23.0744 C.3     1  UNL1        0.0935
      5 N          -9.0857  -18.8010   22.7446 N.am    1  UNL1       -0.2794
      6 C          -8.1628  -18.4261   21.6232 C.2     1  UNL1        0.2270
      7 O          -7.7796  -16.9909   21.4151 O.2     1  UNL1       -0.2748
      8 C          -9.5020  -16.3695   23.7741 C.3     1  UNL1        0.1092
      9 C          -7.6062  -15.8467   25.4721 C.2     1  UNL1        0.2521
     10 O          -8.4228  -16.4580   26.5719 O.2     1  UNL1       -0.2723
     11 N          -8.1458  -15.8025   24.0732 N.am    1  UNL1       -0.3006
     12 H          -7.6099  -15.4013   23.3513 H       1  UNL1        0.1496
     13 C          -6.5504  -15.3357   27.2396 C.3     1  UNL1        0.0448
     14 C          -6.2501  -15.2797   25.7711 C.3     1  UNL1        0.2015
     15 C          -5.9498  -15.2236   24.3025 C.3     1  UNL1        0.0448
     16 F          -4.8940  -14.7126   26.0700 F       1  UNL1       -0.2307
     17 C          -7.6232  -19.4865   20.7098 C.3     1  UNL1        0.1010
     18 C          -6.3259  -20.1664   21.0339 C.3     1  UNL1        0.0644
     19 N          -5.9428  -21.4296   20.3213 N.3     1  UNL1       -0.3215
     20 H          -6.6744  -21.6800   19.6562 H       1  UNL1        0.1188
     21 H          -5.8287  -22.1819   21.0006 H       1  UNL1        0.1188
     22 C          -5.4120  -19.5833   22.0704 C.3     1  UNL1        0.0447
     23 C          -4.2065  -18.7959   21.6498 C.ar    1  UNL1        0.0090
     24 C          -3.7104  -18.8813   20.2369 C.ar    1  UNL1        0.0300
     25 C          -2.5049  -18.0939   19.8163 C.ar    1  UNL1        0.1672
     26 F          -2.0088  -18.1794   18.4033 F       1  UNL1       -0.2018
     27 C          -1.7956  -17.2211   20.8088 C.ar    1  UNL1        0.1696
     28 F          -0.5901  -16.4337   20.3882 F       1  UNL1       -0.2017
     29 C          -2.2917  -17.1356   22.2218 C.ar    1  UNL1        0.0612
     30 C          -3.4971  -17.9230   22.6423 C.ar    1  UNL1        0.1386
     31 F          -3.9933  -17.8376   24.0553 F       1  UNL1       -0.2044
@<TRIPOS>BOND
     1    13    14    1
     2    14    15    1
     3    14    16    1
     4    14     9    1
     5     9    10    2
     6     9    11   am
     7    11     8    1
     8     1     8    1
     9     1     2    1
    10     2     3    1
    11     3     4    1
    12     4     5    1
    13     5     6   am
    14     6     7    2
    15     6    17    1
    16    17    18    1
    17    18    19    1
    18    18    22    1
    19    22    23    1
    20    23    24   ar
    21    24    25   ar
    22    25    26    1
    23    25    27   ar
    24    27    28    1
    25    27    29   ar
    26    29    30   ar
    27    30    31    1
    28     5     1    1
    29    30    23   ar
    30    11    12    1
    31    19    20    1
    32    19    21    1
@<TRIPOS>MOLECULE
*****
 31 32 0 0 0
SMALL
GASTEIGER

@<TRIPOS>ATOM
      1 C          -4.7970  -16.7191   23.4047 C.3     1  UNL1        0.0949
      2 C          -5.0846  -15.4786   24.1975 C.3     1  UNL1        0.0233
      3 C          -6.5718  -15.3638   24.3555 C.3     1  UNL1        0.0233
      4 C          -7.2034  -16.5334   23.6605 C.3     1  UNL1        0.0935
      5 N          -6.1066  -17.3710   23.0728 N.am    1  UNL1       -0.2794
      6 C          -6.2874  -18.6380   22.2906 C.2     1  UNL1        0.2270
      7 O          -5.0899  -19.3710   21.7626 O.2     1  UNL1       -0.2748
      8 C          -3.4385  -17.2198   23.0127 C.3     1  UNL1        0.1092
      9 C          -2.0428  -18.1113   21.0108 C.2     1  UNL1        0.2521
     10 O          -1.5822  -19.2682   21.8473 O.2     1  UNL1       -0.2723
     11 N          -2.9709  -17.0871   21.5936 N.am    1  UNL1       -0.3006
     12 H          -3.2733  -16.3279   21.0446 H       1  UNL1        0.1496
     13 C          -0.1866  -17.6848   20.0767 C.3     1  UNL1        0.0448
     14 C          -1.5753  -17.9786   19.5917 C.3     1  UNL1        0.2015
     15 C          -2.9640  -18.2725   19.1068 C.3     1  UNL1        0.0448
     16 F          -1.1078  -17.8459   18.1727 F       1  UNL1       -0.2307
     17 C          -7.6658  -19.1721   22.0364 C.3     1  UNL1        0.1010
     18 C          -8.1955  -19.2446   20.6349 C.3     1  UNL1        0.0644
     19 N          -7.2855  -18.9714   19.4742 N.3     1  UNL1       -0.3215
     20 H          -6.3503  -18.7547   19.8190 H       1  UNL1        0.1188
     21 H          -7.6432  -18.1790   18.9408 H       1  UNL1        0.1188
     22 C          -9.6351  -19.5903   20.3941 C.3     1  UNL1        0.0447
     23 C         -10.7031  -19.0094   21.2727 C.ar    1  UNL1        0.0090
     24 C         -10.8077  -19.4349   22.7073 C.ar    1  UNL1        0.0300
     25 C         -11.8756  -18.8540   23.5858 C.ar    1  UNL1        0.1672
     26 F         -11.9803  -19.2795   25.0205 F       1  UNL1       -0.2018
     27 C         -12.8389  -17.8475   23.0299 C.ar    1  UNL1        0.1696
     28 F         -13.9069  -17.2666   23.9086 F       1  UNL1       -0.2017
     29 C         -12.7343  -17.4220   21.5954 C.ar    1  UNL1        0.0612
     30 C         -11.6664  -18.0029   20.7168 C.ar    1  UNL1        0.1386
     31 F         -11.5617  -17.5774   19.2822 F       1  UNL1       -0.2044
@<TRIPOS>BOND
     1    13    14    1
     2    14    15    1
     3    14    16    1
     4    14     9    1
     5     9    10    2
     6     9    11   am
     7    11     8    1
     8     1     8    1
     9     1     2    1
    10     2     3    1
    11     3     4    1
    12     4     5    1
    13     5     6   am
    14     6     7    2
    15     6    17    1
    16    17    18    1
    17    18    19    1
    18    18    22    1
    19    22    23    1
    20    23    24   ar
    21    24    25   ar
    22    25    26    1
    23    25    27   ar
    24    27    28    1
    25    27    29   ar
    26    29    30   ar
    27    30    31    1
    28     5     1    1
    29    30    23   ar
    30    11    12    1
    31    19    20    1
    32    19    21    1
@<TRIPOS>MOLECULE
*****
 31 32 0 0 0
SMALL
GASTEIGER

@<TRIPOS>ATOM
      1 C          -5.8387  -15.5999   24.9502 C.3     1  UNL1        0.0949
      2 C          -5.3918  -15.1365   26.3050 C.3     1  UNL1        0.0233
      3 C          -6.5827  -15.1537   27.2169 C.3     1  UNL1        0.0233
      4 C          -7.7656  -15.6277   26.4256 C.3     1  UNL1        0.0935
      5 N          -7.3057  -15.9034   25.0247 N.am    1  UNL1       -0.2794
      6 C          -8.1625  -16.3962   23.8964 C.2     1  UNL1        0.2270
      7 O          -7.5596  -16.6276   22.5425 O.2     1  UNL1       -0.2748
      8 C          -4.9708  -15.7358   23.7343 C.3     1  UNL1        0.1092
      9 C          -3.3439  -17.2494   22.3881 C.2     1  UNL1        0.2521
     10 O          -2.5430  -16.0422   21.9989 O.2     1  UNL1       -0.2723
     11 N          -4.5578  -17.0961   23.2558 N.am    1  UNL1       -0.3006
     12 H          -5.0835  -17.8883   23.5112 H       1  UNL1        0.1496
     13 C          -4.1553  -19.2034   22.5408 C.3     1  UNL1        0.0448
     14 C          -2.9309  -18.6097   21.9096 C.3     1  UNL1        0.2015
     15 C          -1.7065  -18.0160   21.2784 C.3     1  UNL1        0.0448
     16 F          -2.5180  -19.9700   21.4311 F       1  UNL1       -0.2307
     17 C          -9.6222  -16.6574   24.1219 C.3     1  UNL1        0.1010
     18 C         -10.0908  -18.0367   24.4799 C.3     1  UNL1        0.0644
     19 N          -9.8151  -18.5915   25.8460 N.3     1  UNL1       -0.3215
     20 H          -9.3037  -17.9015   26.3963 H       1  UNL1        0.1188
     21 H          -9.2566  -19.4408   25.7617 H       1  UNL1        0.1188
     22 C         -10.8350  -18.8612   23.4717 C.3     1  UNL1        0.0447
     23 C         -10.2452  -19.0963   22.1127 C.ar    1  UNL1        0.0090
     24 C          -8.8230  -19.5547   21.9814 C.ar    1  UNL1        0.0300
     25 C          -8.2333  -19.7898   20.6224 C.ar    1  UNL1        0.1672
     26 F          -6.8110  -20.2482   20.4910 F       1  UNL1       -0.2018
     27 C          -9.0657  -19.5665   19.3947 C.ar    1  UNL1        0.1696
     28 F          -8.4759  -19.8016   18.0356 F       1  UNL1       -0.2017
     29 C         -10.4879  -19.1081   19.5260 C.ar    1  UNL1        0.0612
     30 C         -11.0776  -18.8730   20.8850 C.ar    1  UNL1        0.1386
     31 F         -12.4998  -18.4146   21.0164 F       1  UNL1       -0.2044
@<TRIPOS>BOND
     1    13    14    1
     2    14    15    1
     3    14    16    1
     4    14     9    1
     5     9    10    2
     6     9    11   am
     7    11     8    1
     8     1     8    1
     9     1     2    1
    10     2     3    1
    11     3     4    1
    12     4     5    1
    13     5     6   am
    14     6     7    2
    15     6    17    1
    16    17    18    1
    17    18    19    1
    18    18    22    1
    19    22    23    1
    20    23    24   ar
    21    24    25   ar
    22    25    26    1
    23    25    27   ar
    24    27    28    1
    25    27    29   ar
    26    29    30   ar
    27    30    31    1
    28     5     1    1
    29    30    23   ar
    30    11    12    1
    31    19    20    1
    32    19    21    1
@<TRIPOS>MOLECULE
*****
 31 32 0 0 0
SMALL
GASTEIGER

@<TRIPOS>ATOM
      1 C          -6.5230  -15.8638   25.0434 C.3     1  UNL1        0.0949
      2 C          -5.9509  -15.1165   26.2113 C.3     1  UNL1        0.0233
      3 C          -6.9179  -15.2292   27.3526 C.3     1  UNL1        0.0233
      4 C          -8.0876  -16.0463   26.8899 C.3     1  UNL1        0.0935
      5 N          -7.8436  -16.4385   25.4628 N.am    1  UNL1       -0.2794
      6 C          -8.7593  -17.2609   24.6055 C.2     1  UNL1        0.2270
      7 O          -8.3798  -17.5745   23.1886 O.2     1  UNL1       -0.2748
      8 C          -5.8864  -16.0107   23.6932 C.3     1  UNL1        0.1092
      9 C          -3.9825  -17.4489   22.6650 C.2     1  UNL1        0.2521
     10 O          -3.1354  -16.2201   22.5150 O.2     1  UNL1       -0.2723
     11 N          -5.3580  -17.3442   23.2541 N.am    1  UNL1       -0.3006
     12 H          -5.9140  -18.1506   23.3526 H       1  UNL1        0.1496
     13 C          -4.8474  -19.3381   22.2374 C.3     1  UNL1        0.0448
     14 C          -3.4542  -18.7824   22.2260 C.3     1  UNL1        0.2015
     15 C          -2.0610  -18.2265   22.2146 C.3     1  UNL1        0.0448
     16 F          -2.9258  -20.1157   21.7869 F       1  UNL1       -0.2307
     17 C         -10.0546  -17.7698   25.1652 C.3     1  UNL1        0.1010
     18 C         -10.5544  -19.1310   24.7810 C.3     1  UNL1        0.0644
     19 N          -9.9291  -20.3560   25.3797 N.3     1  UNL1       -0.3215
     20 H          -9.1860  -20.0795   26.0213 H       1  UNL1        0.1188
     21 H          -9.5387  -20.9360   24.6370 H       1  UNL1        0.1188
     22 C         -11.6794  -19.2671   23.7983 C.3     1  UNL1        0.0447
     23 C         -11.6559  -18.4853   22.5183 C.ar    1  UNL1        0.0090
     24 C         -10.7863  -18.9338   21.3814 C.ar    1  UNL1        0.0300
     25 C         -10.7629  -18.1520   20.1015 C.ar    1  UNL1        0.1672
     26 F          -9.8933  -18.6005   18.9645 F       1  UNL1       -0.2018
     27 C         -11.6090  -16.9217   19.9585 C.ar    1  UNL1        0.1696
     28 F         -11.5855  -16.1399   18.6786 F       1  UNL1       -0.2017
     29 C         -12.4786  -16.4732   21.0955 C.ar    1  UNL1        0.0612
     30 C         -12.5020  -17.2550   22.3754 C.ar    1  UNL1        0.1386
     31 F         -13.3717  -16.8065   23.5124 F       1  UNL1       -0.2044
@<TRIPOS>BOND
     1    13    14    1
     2    14    15    1
     3    14    16    1
     4    14     9    1
     5     9    10    2
     6     9    11   am
     7    11     8    1
     8     1     8    1
     9     1     2    1
    10     2     3    1
    11     3     4    1
    12     4     5    1
    13     5     6   am
    14     6     7    2
    15     6    17    1
    16    17    18    1
    17    18    19    1
    18    18    22    1
    19    22    23    1
    20    23    24   ar
    21    24    25   ar
    22    25    26    1
    23    25    27   ar
    24    27    28    1
    25    27    29   ar
    26    29    30   ar
    27    30    31    1
    28     5     1    1
    29    30    23   ar
    30    11    12    1
    31    19    20    1
    32    19    21    1
@<TRIPOS>MOLECULE
*****
 31 32 0 0 0
SMALL
GASTEIGER

@<TRIPOS>ATOM
      1 C          -6.0213  -15.6003   25.0417 C.3     1  UNL1        0.0949
      2 C          -5.7607  -15.1651   26.4533 C.3     1  UNL1        0.0233
      3 C          -7.0276  -15.3466   27.2358 C.3     1  UNL1        0.0233
      4 C          -8.0711  -15.8939   26.3076 C.3     1  UNL1        0.0935
      5 N          -7.4492  -16.0507   24.9517 N.am    1  UNL1       -0.2794
      6 C          -8.1348  -16.5673   23.7216 C.2     1  UNL1        0.2270
      7 O          -7.3805  -16.6684   22.4290 O.2     1  UNL1       -0.2748
      8 C          -5.0283  -15.5873   23.9176 C.3     1  UNL1        0.1092
      9 C          -3.3170  -16.8485   22.4239 C.2     1  UNL1        0.2521
     10 O          -2.8125  -15.5384   21.8956 O.2     1  UNL1       -0.2723
     11 N          -4.4249  -16.8730   23.4348 N.am    1  UNL1       -0.3006
     12 H          -4.7560  -17.7328   23.7815 H       1  UNL1        0.1496
     13 C          -1.7100  -17.3616   21.1376 C.3     1  UNL1        0.0448
     14 C          -2.7136  -18.1342   21.9412 C.3     1  UNL1        0.2015
     15 C          -3.7173  -18.9068   22.7449 C.3     1  UNL1        0.0448
     16 F          -2.1103  -19.4199   21.4586 F       1  UNL1       -0.2307
     17 C          -9.5747  -16.9827   23.7841 C.3     1  UNL1        0.1010
     18 C          -9.9378  -18.3628   24.2465 C.3     1  UNL1        0.0644
     19 N         -10.9595  -18.5465   25.3293 N.3     1  UNL1       -0.3215
     20 H         -11.3004  -17.6345   25.6332 H       1  UNL1        0.1188
     21 H         -10.5340  -19.0311   26.1195 H       1  UNL1        0.1188
     22 C          -9.2792  -19.5591   23.6260 C.3     1  UNL1        0.0447
     23 C          -9.0644  -19.6117   22.1423 C.ar    1  UNL1        0.0090
     24 C         -10.2237  -19.4229   21.2095 C.ar    1  UNL1        0.0300
     25 C         -10.0089  -19.4755   19.7259 C.ar    1  UNL1        0.1672
     26 F         -11.1682  -19.2866   18.7930 F       1  UNL1       -0.2018
     27 C          -8.6347  -19.7171   19.1752 C.ar    1  UNL1        0.1696
     28 F          -8.4199  -19.7697   17.6915 F       1  UNL1       -0.2017
     29 C          -7.4754  -19.9060   20.1080 C.ar    1  UNL1        0.0612
     30 C          -7.6902  -19.8533   21.5916 C.ar    1  UNL1        0.1386
     31 F          -6.5309  -20.0422   22.5245 F       1  UNL1       -0.2044
@<TRIPOS>BOND
     1    13    14    1
     2    14    15    1
     3    14    16    1
     4    14     9    1
     5     9    10    2
     6     9    11   am
     7    11     8    1
     8     1     8    1
     9     1     2    1
    10     2     3    1
    11     3     4    1
    12     4     5    1
    13     5     6   am
    14     6     7    2
    15     6    17    1
    16    17    18    1
    17    18    19    1
    18    18    22    1
    19    22    23    1
    20    23    24   ar
    21    24    25   ar
    22    25    26    1
    23    25    27   ar
    24    27    28    1
    25    27    29   ar
    26    29    30   ar
    27    30    31    1
    28     5     1    1
    29    30    23   ar
    30    11    12    1
    31    19    20    1
    32    19    21    1
@<TRIPOS>MOLECULE
*****
 31 32 0 0 0
SMALL
GASTEIGER

@<TRIPOS>ATOM
      1 C          -9.8397  -17.7701   23.6762 C.3     1  UNL1        0.0949
      2 C         -10.7740  -18.5290   24.5713 C.3     1  UNL1        0.0233
      3 C         -10.6973  -19.9798   24.1980 C.3     1  UNL1        0.0233
      4 C          -9.7157  -20.1175   23.0722 C.3     1  UNL1        0.0935
      5 N          -9.1857  -18.7518   22.7497 N.am    1  UNL1       -0.2794
      6 C          -8.1785  -18.4252   21.6873 C.2     1  UNL1        0.2270
      7 O          -7.7413  -17.0054   21.4793 O.2     1  UNL1       -0.2748
      8 C          -9.6015  -16.2894   23.7029 C.3     1  UNL1        0.1092
      9 C          -7.6941  -15.8391   25.4086 C.2     1  UNL1        0.2521
     10 O          -8.5212  -16.4575   26.4966 O.2     1  UNL1       -0.2723
     11 N          -8.2343  -15.7551   24.0118 N.am    1  UNL1       -0.3006
     12 H          -7.6915  -15.3492   23.2977 H       1  UNL1        0.1496
     13 C          -6.0291  -15.2186   24.2498 C.3     1  UNL1        0.0448
     14 C          -6.3269  -15.3048   25.7175 C.3     1  UNL1        0.2015
     15 C          -6.6248  -15.3910   27.1851 C.3     1  UNL1        0.0448
     16 F          -4.9598  -14.7705   26.0263 F       1  UNL1       -0.2307
     17 C          -7.6085  -19.5183   20.8328 C.3     1  UNL1        0.1010
     18 C          -6.4163  -20.2959   21.3062 C.3     1  UNL1        0.0644
     19 N          -6.5133  -21.1377   22.5440 N.3     1  UNL1       -0.3215
     20 H          -7.4536  -21.0644   22.9322 H       1  UNL1        0.1188
     21 H          -5.8350  -20.8102   23.2318 H       1  UNL1        0.1188
     22 C          -5.1273  -20.2317   20.5419 C.3     1  UNL1        0.0447
     23 C          -4.1439  -19.1338   20.8207 C.ar    1  UNL1        0.0090
     24 C          -4.1879  -18.4019   22.1292 C.ar    1  UNL1        0.0300
     25 C          -3.2046  -17.3040   22.4079 C.ar    1  UNL1        0.1672
     26 F          -3.2485  -16.5721   23.7165 F       1  UNL1       -0.2018
     27 C          -2.1772  -16.9380   21.3780 C.ar    1  UNL1        0.1696
     28 F          -1.1939  -15.8401   21.6568 F       1  UNL1       -0.2017
     29 C          -2.1332  -17.6699   20.0695 C.ar    1  UNL1        0.0612
     30 C          -3.1166  -18.7678   19.7908 C.ar    1  UNL1        0.1386
     31 F          -3.0726  -19.4997   18.4822 F       1  UNL1       -0.2044
@<TRIPOS>BOND
     1    13    14    1
     2    14    15    1
     3    14    16    1
     4    14     9    1
     5     9    10    2
     6     9    11   am
     7    11     8    1
     8     1     8    1
     9     1     2    1
    10     2     3    1
    11     3     4    1
    12     4     5    1
    13     5     6   am
    14     6     7    2
    15     6    17    1
    16    17    18    1
    17    18    19    1
    18    18    22    1
    19    22    23    1
    20    23    24   ar
    21    24    25   ar
    22    25    26    1
    23    25    27   ar
    24    27    28    1
    25    27    29   ar
    26    29    30   ar
    27    30    31    1
    28     5     1    1
    29    30    23   ar
    30    11    12    1
    31    19    20    1
    32    19    21    1
@<TRIPOS>MOLECULE
*****
 31 32 0 0 0
SMALL
GASTEIGER

@<TRIPOS>ATOM
      1 C         -14.9448   -8.0887   18.6378 C.3     1  UNL1        0.0949
      2 C         -15.7329   -9.3242   18.9581 C.3     1  UNL1        0.0233
      3 C         -17.0224   -8.8991   19.5956 C.3     1  UNL1        0.0233
      4 C         -17.0312   -7.4009   19.6693 C.3     1  UNL1        0.0935
      5 N         -15.7472   -6.9001   19.0774 N.am    1  UNL1       -0.2794
      6 C         -15.3375   -5.4630   18.9478 C.2     1  UNL1        0.2270
      7 O         -14.0159   -5.1126   18.3308 O.2     1  UNL1       -0.2748
      8 C         -13.5918   -8.0490   17.9915 C.3     1  UNL1        0.1092
      9 C         -11.2502   -6.9320   18.1329 C.2     1  UNL1        0.2521
     10 O         -11.3153   -6.6104   16.6691 O.2     1  UNL1       -0.2723
     11 N         -12.3885   -7.6513   18.7940 N.am    1  UNL1       -0.3006
     12 H         -12.3458   -7.8623   19.7546 H       1  UNL1        0.1496
     13 C         -10.6098   -5.1530   19.0947 C.3     1  UNL1        0.0448
     14 C         -10.0470   -6.5343   18.9355 C.3     1  UNL1        0.2015
     15 C          -9.4843   -7.9157   18.7761 C.3     1  UNL1        0.0448
     16 F          -8.8438   -6.1367   19.7380 F       1  UNL1       -0.2307
     17 C         -16.2494   -4.3763   19.4350 C.3     1  UNL1        0.1010
     18 C         -16.2037   -3.0180   18.8002 C.3     1  UNL1        0.0644
     19 N         -16.9323   -2.7667   17.5133 N.3     1  UNL1       -0.3215
     20 H         -17.4010   -3.6222   17.2153 H       1  UNL1        0.1188
     21 H         -16.2668   -2.4763   16.7969 H       1  UNL1        0.1188
     22 C         -15.4294   -1.9111   19.4521 C.3     1  UNL1        0.0447
     23 C         -14.1025   -1.4925   18.8913 C.ar    1  UNL1        0.0090
     24 C         -14.0411   -0.4811   17.7854 C.ar    1  UNL1        0.0300
     25 C         -12.7143   -0.0626   17.2247 C.ar    1  UNL1        0.1672
     26 F         -12.6528    0.9488   16.1186 F       1  UNL1       -0.2018
     27 C         -11.4490   -0.6556   17.7699 C.ar    1  UNL1        0.1696
     28 F         -10.1221   -0.2370   17.2091 F       1  UNL1       -0.2017
     29 C         -11.5104   -1.6670   18.8758 C.ar    1  UNL1        0.0612
     30 C         -12.8372   -2.0855   19.4366 C.ar    1  UNL1        0.1386
     31 F         -12.8986   -3.0970   20.5426 F       1  UNL1       -0.2044
@<TRIPOS>BOND
     1    13    14    1
     2    14    15    1
     3    14    16    1
     4    14     9    1
     5     9    10    2
     6     9    11   am
     7    11     8    1
     8     1     8    1
     9     1     2    1
    10     2     3    1
    11     3     4    1
    12     4     5    1
    13     5     6   am
    14     6     7    2
    15     6    17    1
    16    17    18    1
    17    18    19    1
    18    18    22    1
    19    22    23    1
    20    23    24   ar
    21    24    25   ar
    22    25    26    1
    23    25    27   ar
    24    27    28    1
    25    27    29   ar
    26    29    30   ar
    27    30    31    1
    28     5     1    1
    29    30    23   ar
    30    11    12    1
    31    19    20    1
    32    19    21    1
@<TRIPOS>MOLECULE
*****
 31 32 0 0 0
SMALL
GASTEIGER

@<TRIPOS>ATOM
      1 C          -3.8427  -17.4840   23.3143 C.3     1  UNL1        0.0949
      2 C          -4.4254  -16.2340   23.9042 C.3     1  UNL1        0.0233
      3 C          -5.9167  -16.3036   23.7574 C.3     1  UNL1        0.0233
      4 C          -6.2555  -17.5967   23.0768 C.3     1  UNL1        0.0935
      5 N          -4.9737  -18.3262   22.8030 N.am    1  UNL1       -0.2794
      6 C          -4.8454  -19.6631   22.1351 C.2     1  UNL1        0.2270
      7 O          -3.4899  -20.2712   21.9283 O.2     1  UNL1       -0.2748
      8 C          -2.3849  -17.8308   23.2476 C.3     1  UNL1        0.1092
      9 C          -1.8830  -17.2138   20.7742 C.2     1  UNL1        0.2521
     10 O          -2.6461  -15.9329   20.9389 O.2     1  UNL1       -0.2723
     11 N          -1.7525  -18.1627   21.9285 N.am    1  UNL1       -0.3006
     12 H          -1.2516  -19.0034   21.8204 H       1  UNL1        0.1496
     13 C          -2.6099  -17.6509   18.8298 C.3     1  UNL1        0.0448
     14 C          -1.2506  -17.5458   19.4551 C.3     1  UNL1        0.2015
     15 C           0.1088  -17.4407   20.0806 C.3     1  UNL1        0.0448
     16 F          -0.6181  -17.8778   18.1362 F       1  UNL1       -0.2307
     17 C          -6.0727  -20.3919   21.6740 C.3     1  UNL1        0.1010
     18 C          -7.2625  -19.6214   21.1832 C.3     1  UNL1        0.0644
     19 N          -7.2093  -18.9244   19.8561 N.3     1  UNL1       -0.3215
     20 H          -6.2967  -19.0787   19.4274 H       1  UNL1        0.1188
     21 H          -7.3566  -17.9242   19.9912 H       1  UNL1        0.1188
     22 C          -8.5056  -19.5481   22.0195 C.3     1  UNL1        0.0447
     23 C          -9.6340  -18.6492   21.6086 C.ar    1  UNL1        0.0090
     24 C          -9.3853  -17.1868   21.3865 C.ar    1  UNL1        0.0300
     25 C         -10.5137  -16.2881   20.9757 C.ar    1  UNL1        0.1672
     26 F         -10.2650  -14.8256   20.7535 F       1  UNL1       -0.2018
     27 C         -11.8909  -16.8518   20.7870 C.ar    1  UNL1        0.1696
     28 F         -13.0194  -15.9529   20.3761 F       1  UNL1       -0.2017
     29 C         -12.1397  -18.3142   21.0091 C.ar    1  UNL1        0.0612
     30 C         -11.0112  -19.2129   21.4199 C.ar    1  UNL1        0.1386
     31 F         -11.2599  -20.6754   21.6421 F       1  UNL1       -0.2044
@<TRIPOS>BOND
     1    13    14    1
     2    14    15    1
     3    14    16    1
     4    14     9    1
     5     9    10    2
     6     9    11   am
     7    11     8    1
     8     1     8    1
     9     1     2    1
    10     2     3    1
    11     3     4    1
    12     4     5    1
    13     5     6   am
    14     6     7    2
    15     6    17    1
    16    17    18    1
    17    18    19    1
    18    18    22    1
    19    22    23    1
    20    23    24   ar
    21    24    25   ar
    22    25    26    1
    23    25    27   ar
    24    27    28    1
    25    27    29   ar
    26    29    30   ar
    27    30    31    1
    28     5     1    1
    29    30    23   ar
    30    11    12    1
    31    19    20    1
    32    19    21    1
