@<TRIPOS>MOLECULE
*****
 41 44 0 0 0
SMALL
GASTEIGER

@<TRIPOS>ATOM
      1 C           6.1913   -2.2151   25.8133 C.2     1  UNL1        0.2485
      2 O           6.6093   -0.8837   25.2632 O.2     1  UNL1       -0.2726
      3 N           5.4791   -3.1998   24.9339 N.am    1  UNL1       -0.2823
      4 H           5.2047   -4.0736   25.2949 H       1  UNL1        0.1549
      5 C           9.5309   -5.1681   27.4756 C.3     1  UNL1        0.0949
      6 C           8.5127   -4.2599   26.8522 C.2     1  UNL1        0.2269
      7 O           8.4547   -4.1098   25.3609 O.2     1  UNL1       -0.2748
      8 N           7.5526   -3.5018   27.7202 N.am    1  UNL1       -0.2655
      9 C           7.4909   -3.5505   29.2181 C.3     1  UNL1        0.1206
     10 C           6.3857   -2.6407   29.6664 C.ar    1  UNL1       -0.0029
     11 C           5.8649   -2.2897   31.0285 C.ar    1  UNL1        0.0170
     12 C           4.7227   -1.3277   31.1698 C.ar    1  UNL1        0.1217
     13 C           4.1014   -0.7167   29.9488 C.ar    1  UNL1        0.0196
     14 C           4.6222   -1.0677   28.5867 C.ar    1  UNL1       -0.0011
     15 C           5.7644   -2.0297   28.4455 C.ar    1  UNL1        0.0022
     16 C           6.4856   -2.5619   27.2427 C.3     1  UNL1        0.1750
     17 S           4.2018   -0.9766   32.5319 S.O2    1  UNL1        0.0602
     18 O           4.4513    0.4759   32.2529 O.2     1  UNL1       -0.1530
     19 O           3.9524   -2.4291   32.8110 O.2     1  UNL1       -0.1530
     20 N           3.6810   -0.6255   33.8941 N.3     1  UNL1       -0.1808
     21 H           3.0601   -1.3839   34.1764 H       1  UNL1        0.1487
     22 C           4.6371   -0.4036   35.0284 C.3     1  UNL1        0.0756
     23 C           6.0429   -0.2922   35.5395 C.3     1  UNL1        0.0188
     24 C           4.8873   -0.1308   36.4820 C.3     1  UNL1        0.0188
     25 C           5.1848   -2.8529   23.5045 C.ar    1  UNL1        0.0503
     26 C           4.0469   -1.9329   23.1749 C.ar    1  UNL1        0.0144
     27 C           3.7526   -1.5861   21.7455 C.ar    1  UNL1       -0.0002
     28 C           4.5964   -2.1593   20.6458 C.ar    1  UNL1        0.0182
     29 C           5.7343   -3.0793   20.9754 C.ar    1  UNL1       -0.0002
     30 C           6.0286   -3.4262   22.4048 C.ar    1  UNL1        0.0144
     31 C           4.3022   -1.8125   19.2164 C.3     1  UNL1        0.2827
     32 O           4.9166   -0.4591   19.4182 O.3     1  UNL1       -0.3692
     33 H           4.8697    0.0440   18.5902 H       1  UNL1        0.2112
     34 C           4.0080   -1.4659   17.7869 C.3     1  UNL1        0.4311
     35 F           3.7138   -1.1192   16.3575 F       1  UNL1       -0.1669
     36 F           2.8555   -0.6145   18.2306 F       1  UNL1       -0.1669
     37 F           4.6623   -1.9398   17.4239 F       1  UNL1       -0.1669
     38 C           3.6878   -3.1660   19.0146 C.3     1  UNL1        0.4311
     39 F           3.0733   -4.5194   18.8128 F       1  UNL1       -0.1669
     40 F           2.8971   -2.9792   19.3673 F       1  UNL1       -0.1669
     41 F           4.7750   -3.9639   18.3577 F       1  UNL1       -0.1669
@<TRIPOS>BOND
     1     5     6    1
     2     6     7    2
     3     6     8   am
     4     8     9    1
     5     9    10    1
     6    10    11   ar
     7    11    12   ar
     8    12    17    1
     9    17    18    2
    10    17    19    2
    11    17    20    1
    12    20    22    1
    13    22    23    1
    14    23    24    1
    15    12    13   ar
    16    13    14   ar
    17    14    15   ar
    18    15    16    1
    19    16     1    1
    20     1     2    2
    21     1     3   am
    22     3    25    1
    23    25    26   ar
    24    26    27   ar
    25    27    28   ar
    26    28    31    1
    27    31    32    1
    28    31    34    1
    29    34    35    1
    30    34    36    1
    31    34    37    1
    32    31    38    1
    33    38    39    1
    34    38    40    1
    35    38    41    1
    36    28    29   ar
    37    29    30   ar
    38    16     8    1
    39    30    25   ar
    40    15    10   ar
    41    24    22    1
    42    20    21    1
    43     3     4    1
    44    32    33    1
@<TRIPOS>MOLECULE
*****
 41 44 0 0 0
SMALL
GASTEIGER

@<TRIPOS>ATOM
      1 C           5.9057   -1.9234   25.8773 C.2     1  UNL1        0.2485
      2 O           6.5435   -0.7019   25.2849 O.2     1  UNL1       -0.2726
      3 N           5.0711   -2.8257   25.0173 N.am    1  UNL1       -0.2823
      4 H           4.6525   -3.6275   25.4062 H       1  UNL1        0.1549
      5 C           8.4591   -5.4632   27.7710 C.3     1  UNL1        0.0949
      6 C           7.6832   -4.3833   27.0769 C.2     1  UNL1        0.2269
      7 O           7.6711   -4.3134   25.5786 O.2     1  UNL1       -0.2748
      8 N           6.9194   -3.3734   27.8811 N.am    1  UNL1       -0.2655
      9 C           6.8385   -3.3169   29.3778 C.3     1  UNL1        0.1206
     10 C           5.9715   -2.1513   29.7515 C.ar    1  UNL1       -0.0029
     11 C           5.5375   -1.6086   31.0808 C.ar    1  UNL1        0.0170
     12 C           4.6486   -0.4021   31.1443 C.ar    1  UNL1        0.1217
     13 C           4.1936    0.2618   29.8785 C.ar    1  UNL1        0.0196
     14 C           4.6276   -0.2809   28.5492 C.ar    1  UNL1       -0.0011
     15 C           5.5165   -1.4874   28.4857 C.ar    1  UNL1        0.0022
     16 C           6.1024   -2.2427   27.3297 C.3     1  UNL1        0.1750
     17 S           4.2145    0.1406   32.4737 S.O2    1  UNL1        0.0602
     18 O           4.8574    1.4557   32.1466 O.2     1  UNL1       -0.1530
     19 O           3.5716   -1.1746   32.8008 O.2     1  UNL1       -0.1530
     20 N           3.7806    0.6833   33.8030 N.3     1  UNL1       -0.1808
     21 H           4.6239    1.0009   34.2809 H       1  UNL1        0.1487
     22 C           2.7954    1.8127   33.8666 C.3     1  UNL1        0.0756
     23 C           1.7064    2.6240   33.2295 C.3     1  UNL1        0.0188
     24 C           2.1780    2.9575   34.6138 C.3     1  UNL1        0.0188
     25 C           4.8744   -2.5064   23.5650 C.ar    1  UNL1        0.0503
     26 C           3.8034   -1.5429   23.1472 C.ar    1  UNL1        0.0144
     27 C           3.6067   -1.2236   21.6949 C.ar    1  UNL1       -0.0002
     28 C           4.4811   -1.8678   20.6603 C.ar    1  UNL1        0.0182
     29 C           5.5522   -2.8313   21.0780 C.ar    1  UNL1       -0.0002
     30 C           5.7488   -3.1506   22.5304 C.ar    1  UNL1        0.0144
     31 C           4.2845   -1.5485   19.2079 C.3     1  UNL1        0.2827
     32 O           4.8340   -0.1716   19.4361 O.3     1  UNL1       -0.3692
     33 H           4.8326    0.3198   18.5998 H       1  UNL1        0.2112
     34 C           4.0878   -1.2293   17.7555 C.3     1  UNL1        0.4311
     35 F           3.8912   -0.9101   16.3031 F       1  UNL1       -0.1669
     36 F           5.5744   -1.2253   17.5551 F       1  UNL1       -0.1669
     37 F           3.2025   -1.2087   17.7683 F       1  UNL1       -0.1669
     38 C           3.7349   -2.9254   18.9797 C.3     1  UNL1        0.4311
     39 F           3.1853   -4.3024   18.7516 F       1  UNL1       -0.1669
     40 F           2.9619   -2.8033   19.3946 F       1  UNL1       -0.1669
     41 F           4.8161   -3.6250   18.2105 F       1  UNL1       -0.1669
@<TRIPOS>BOND
     1     5     6    1
     2     6     7    2
     3     6     8   am
     4     8     9    1
     5     9    10    1
     6    10    11   ar
     7    11    12   ar
     8    12    17    1
     9    17    18    2
    10    17    19    2
    11    17    20    1
    12    20    22    1
    13    22    23    1
    14    23    24    1
    15    12    13   ar
    16    13    14   ar
    17    14    15   ar
    18    15    16    1
    19    16     1    1
    20     1     2    2
    21     1     3   am
    22     3    25    1
    23    25    26   ar
    24    26    27   ar
    25    27    28   ar
    26    28    31    1
    27    31    32    1
    28    31    34    1
    29    34    35    1
    30    34    36    1
    31    34    37    1
    32    31    38    1
    33    38    39    1
    34    38    40    1
    35    38    41    1
    36    28    29   ar
    37    29    30   ar
    38    16     8    1
    39    30    25   ar
    40    15    10   ar
    41    24    22    1
    42    20    21    1
    43     3     4    1
    44    32    33    1
@<TRIPOS>MOLECULE
*****
 41 44 0 0 0
SMALL
GASTEIGER

@<TRIPOS>ATOM
      1 C           2.7615    0.2099   27.7862 C.2     1  UNL1        0.2485
      2 O           2.6109   -1.1796   28.3308 O.2     1  UNL1       -0.2726
      3 N           3.3533    1.2907   28.6417 N.am    1  UNL1       -0.2823
      4 H           3.4522    2.2026   28.2843 H       1  UNL1        0.1549
      5 C          -0.4783    3.3976   26.3797 C.3     1  UNL1        0.0949
      6 C           0.5236    2.4232   26.9244 C.2     1  UNL1        0.2269
      7 O           0.7574    2.3360   28.4035 O.2     1  UNL1       -0.2748
      8 N           1.2916    1.5360   25.9901 N.am    1  UNL1       -0.2655
      9 C           1.1660    1.5104   24.4956 C.3     1  UNL1        0.1206
     10 C           2.1169    0.4773   23.9680 C.ar    1  UNL1       -0.0029
     11 C           2.4254    0.0155   22.5747 C.ar    1  UNL1        0.0170
     12 C           3.4472   -1.0593   22.3498 C.ar    1  UNL1        0.1217
     13 C           4.1607   -1.6722   23.5182 C.ar    1  UNL1        0.0196
     14 C           3.8522   -1.2104   24.9116 C.ar    1  UNL1       -0.0011
     15 C           2.8303   -0.1357   25.1365 C.ar    1  UNL1        0.0022
     16 C           2.3203    0.5187   26.3862 C.3     1  UNL1        0.1750
     17 S           3.7557   -1.5212   20.9563 S.O2    1  UNL1        0.0602
     18 O           2.3563   -1.1838   20.5347 O.2     1  UNL1       -0.1530
     19 O           5.1551   -1.8586   21.3779 O.2     1  UNL1       -0.1530
     20 N           4.0642   -1.9830   19.5629 N.3     1  UNL1       -0.1808
     21 H           5.0147   -1.6771   19.3550 H       1  UNL1        0.1487
     22 C           3.9950   -3.4426   19.2240 C.3     1  UNL1        0.0756
     23 C           4.6566   -4.6933   18.7260 C.3     1  UNL1        0.0188
     24 C           3.2137   -4.7200   19.1350 C.3     1  UNL1        0.0188
     25 C           3.7945    0.9818   30.0417 C.ar    1  UNL1        0.0503
     26 C           2.7869    0.9315   31.1517 C.ar    1  UNL1        0.0144
     27 C           3.2280    0.6227   32.5517 C.ar    1  UNL1       -0.0002
     28 C           4.6769    0.3642   32.8416 C.ar    1  UNL1        0.0182
     29 C           5.6845    0.4146   31.7316 C.ar    1  UNL1       -0.0002
     30 C           5.2433    0.7234   30.3316 C.ar    1  UNL1        0.0144
     31 C           5.1181    0.0554   34.2416 C.3     1  UNL1        0.2827
     32 O           5.5075    1.4910   34.4356 O.3     1  UNL1       -0.3692
     33 H           5.8604    1.6120   35.3310 H       1  UNL1        0.2112
     34 C           5.5594   -0.2535   35.6416 C.3     1  UNL1        0.4311
     35 F           6.0006   -0.5624   37.0415 F       1  UNL1       -0.1669
     36 F           4.3240    0.4077   36.1769 F       1  UNL1       -0.1669
     37 F           6.3152   -0.6633   35.4287 F       1  UNL1       -0.1669
     38 C           4.7288   -1.3801   34.0476 C.3     1  UNL1        0.4311
     39 F           4.3393   -2.8157   33.8536 F       1  UNL1       -0.1669
     40 F           3.9398   -1.3330   34.4475 F       1  UNL1       -0.1669
     41 F           5.8942   -1.9766   33.3155 F       1  UNL1       -0.1669
@<TRIPOS>BOND
     1     5     6    1
     2     6     7    2
     3     6     8   am
     4     8     9    1
     5     9    10    1
     6    10    11   ar
     7    11    12   ar
     8    12    17    1
     9    17    18    2
    10    17    19    2
    11    17    20    1
    12    20    22    1
    13    22    23    1
    14    23    24    1
    15    12    13   ar
    16    13    14   ar
    17    14    15   ar
    18    15    16    1
    19    16     1    1
    20     1     2    2
    21     1     3   am
    22     3    25    1
    23    25    26   ar
    24    26    27   ar
    25    27    28   ar
    26    28    31    1
    27    31    32    1
    28    31    34    1
    29    34    35    1
    30    34    36    1
    31    34    37    1
    32    31    38    1
    33    38    39    1
    34    38    40    1
    35    38    41    1
    36    28    29   ar
    37    29    30   ar
    38    16     8    1
    39    30    25   ar
    40    15    10   ar
    41    24    22    1
    42    20    21    1
    43     3     4    1
    44    32    33    1
@<TRIPOS>MOLECULE
*****
 41 44 0 0 0
SMALL
GASTEIGER

@<TRIPOS>ATOM
      1 C           4.9599   -0.9215   26.6182 C.2     1  UNL1        0.2485
      2 O           5.7549    0.1565   25.9432 O.2     1  UNL1       -0.2726
      3 N           4.0944   -1.8368   25.8037 N.am    1  UNL1       -0.2823
      4 H           3.5726   -2.5444   26.2467 H       1  UNL1        0.1549
      5 C           7.6608   -3.9499   29.1021 C.3     1  UNL1        0.0949
      6 C           6.8526   -3.0361   28.2294 C.2     1  UNL1        0.2269
      7 O           6.9968   -3.1020   26.7378 O.2     1  UNL1       -0.2748
      8 N           5.9002   -2.0563   28.8483 N.am    1  UNL1       -0.2655
      9 C           5.6505   -1.8765   30.3163 C.3     1  UNL1        0.1206
     10 C           4.6263   -0.7934   30.4831 C.ar    1  UNL1       -0.0029
     11 C           3.9932   -0.1897   31.7016 C.ar    1  UNL1        0.0170
     12 C           2.9767    0.9036   31.5550 C.ar    1  UNL1        0.1217
     13 C           2.5933    1.3931   30.1899 C.ar    1  UNL1        0.0196
     14 C           3.2264    0.7894   28.9715 C.ar    1  UNL1       -0.0011
     15 C           4.2429   -0.3038   29.1181 C.ar    1  UNL1        0.0022
     16 C           5.0302   -1.0844   28.1077 C.3     1  UNL1        0.1750
     17 S           2.3435    1.5073   32.7735 S.O2    1  UNL1        0.0602
     18 O           3.6373    1.3611   33.5182 O.2     1  UNL1       -0.1530
     19 O           1.0497    1.6536   32.0288 O.2     1  UNL1       -0.1530
     20 N           1.7105    2.1111   33.9919 N.3     1  UNL1       -0.1808
     21 H           2.2202    1.7499   34.7982 H       1  UNL1        0.1487
     22 C           1.6545    3.6020   34.1474 C.3     1  UNL1        0.0756
     23 C           2.3188    4.8956   34.5153 C.3     1  UNL1        0.0188
     24 C           0.8932    4.8907   34.0489 C.3     1  UNL1        0.0188
     25 C           4.0241   -1.6740   24.3142 C.ar    1  UNL1        0.0503
     26 C           3.3677   -0.4620   23.7224 C.ar    1  UNL1        0.0144
     27 C           3.2974   -0.2992   22.2329 C.ar    1  UNL1       -0.0002
     28 C           3.8835   -1.3484   21.3353 C.ar    1  UNL1        0.0182
     29 C           4.5399   -2.5603   21.9271 C.ar    1  UNL1       -0.0002
     30 C           4.6102   -2.7232   23.4166 C.ar    1  UNL1        0.0144
     31 C           3.8132   -1.1856   19.8458 C.3     1  UNL1        0.2827
     32 O           5.3095   -1.2565   19.7673 O.3     1  UNL1       -0.3692
     33 H           5.5891   -1.1726   18.8423 H       1  UNL1        0.2112
     34 C           3.7428   -1.0228   18.3563 C.3     1  UNL1        0.4311
     35 F           3.6724   -0.8601   16.8668 F       1  UNL1       -0.1669
     36 F           3.9363   -2.5005   18.1857 F       1  UNL1       -0.1669
     37 F           3.6243   -0.1451   18.3490 F       1  UNL1       -0.1669
     38 C           2.3169   -1.1147   19.9242 C.3     1  UNL1        0.4311
     39 F           0.8206   -1.0438   20.0027 F       1  UNL1       -0.1669
     40 F           2.1689   -1.9875   19.9536 F       1  UNL1       -0.1669
     41 F           2.0216    0.3558   19.9040 F       1  UNL1       -0.1669
@<TRIPOS>BOND
     1     5     6    1
     2     6     7    2
     3     6     8   am
     4     8     9    1
     5     9    10    1
     6    10    11   ar
     7    11    12   ar
     8    12    17    1
     9    17    18    2
    10    17    19    2
    11    17    20    1
    12    20    22    1
    13    22    23    1
    14    23    24    1
    15    12    13   ar
    16    13    14   ar
    17    14    15   ar
    18    15    16    1
    19    16     1    1
    20     1     2    2
    21     1     3   am
    22     3    25    1
    23    25    26   ar
    24    26    27   ar
    25    27    28   ar
    26    28    31    1
    27    31    32    1
    28    31    34    1
    29    34    35    1
    30    34    36    1
    31    34    37    1
    32    31    38    1
    33    38    39    1
    34    38    40    1
    35    38    41    1
    36    28    29   ar
    37    29    30   ar
    38    16     8    1
    39    30    25   ar
    40    15    10   ar
    41    24    22    1
    42    20    21    1
    43     3     4    1
    44    32    33    1
@<TRIPOS>MOLECULE
*****
 41 44 0 0 0
SMALL
GASTEIGER

@<TRIPOS>ATOM
      1 C           4.8946   -0.5850   32.7339 C.2     1  UNL1        0.2485
      2 O           3.5510   -1.2188   32.9409 O.2     1  UNL1       -0.2726
      3 N           5.3964    0.4431   33.7042 N.am    1  UNL1       -0.2823
      4 H           6.2783    0.8591   33.5684 H       1  UNL1        0.1549
      5 C           6.0868    2.0742   28.9731 C.3     1  UNL1        0.0949
      6 C           5.6564    1.3205   30.1965 C.2     1  UNL1        0.2269
      7 O           4.7958    1.9908   31.2261 O.2     1  UNL1       -0.2748
      8 N           6.0866   -0.1033   30.3904 N.am    1  UNL1       -0.2655
      9 C           6.9426   -0.9013   29.4520 C.3     1  UNL1        0.1206
     10 C           7.1214   -2.2703   30.0383 C.ar    1  UNL1       -0.0029
     11 C           7.8667   -3.4793   29.5558 C.ar    1  UNL1        0.0170
     12 C           7.8666   -4.7364   30.3741 C.ar    1  UNL1        0.1217
     13 C           7.1212   -4.7846   31.6748 C.ar    1  UNL1        0.0196
     14 C           6.3759   -3.5756   32.1574 C.ar    1  UNL1       -0.0011
     15 C           6.3760   -2.3185   31.3391 C.ar    1  UNL1        0.0022
     16 C           5.7365   -0.9792   31.5567 C.3     1  UNL1        0.1750
     17 S           8.6119   -5.9455   29.8915 S.O2    1  UNL1        0.0602
     18 O           8.8053   -5.2928   28.5550 O.2     1  UNL1       -0.1530
     19 O           8.4185   -6.5982   31.2281 O.2     1  UNL1       -0.1530
     20 N           9.3572   -7.1545   29.4090 N.3     1  UNL1       -0.1808
     21 H           9.2696   -7.8641   30.1365 H       1  UNL1        0.1487
     22 C           8.9682   -7.8090   28.1166 C.3     1  UNL1        0.0756
     23 C           7.9203   -8.4171   27.2322 C.3     1  UNL1        0.0188
     24 C           9.3423   -8.3345   26.7624 C.3     1  UNL1        0.0188
     25 C           4.5545    0.8373   34.8814 C.ar    1  UNL1        0.0503
     26 C           4.7687    0.1772   36.2112 C.ar    1  UNL1        0.0144
     27 C           3.9268    0.5714   37.3885 C.ar    1  UNL1       -0.0002
     28 C           2.8708    1.6256   37.2358 C.ar    1  UNL1        0.0182
     29 C           2.6567    2.2857   35.9060 C.ar    1  UNL1       -0.0002
     30 C           3.4986    1.8915   34.7288 C.ar    1  UNL1        0.0144
     31 C           2.0289    2.0199   38.4130 C.3     1  UNL1        0.2827
     32 O           1.5577    0.6025   38.5508 O.3     1  UNL1       -0.3692
     33 H           0.9428    0.5374   39.2982 H       1  UNL1        0.2112
     34 C           1.1870    2.4142   39.5902 C.3     1  UNL1        0.4311
     35 F           0.3451    2.8086   40.7674 F       1  UNL1       -0.1669
     36 F          -0.0400    1.9332   38.8738 F       1  UNL1       -0.1669
     37 F           1.8454    2.7245   40.0948 F       1  UNL1       -0.1669
     38 C           2.5001    3.4373   38.2752 C.3     1  UNL1        0.4311
     39 F           2.9712    4.8547   38.1373 F       1  UNL1       -0.1669
     40 F           1.7461    3.7706   37.9511 F       1  UNL1       -0.1669
     41 F           3.9183    3.3973   38.7619 F       1  UNL1       -0.1669
@<TRIPOS>BOND
     1     5     6    1
     2     6     7    2
     3     6     8   am
     4     8     9    1
     5     9    10    1
     6    10    11   ar
     7    11    12   ar
     8    12    17    1
     9    17    18    2
    10    17    19    2
    11    17    20    1
    12    20    22    1
    13    22    23    1
    14    23    24    1
    15    12    13   ar
    16    13    14   ar
    17    14    15   ar
    18    15    16    1
    19    16     1    1
    20     1     2    2
    21     1     3   am
    22     3    25    1
    23    25    26   ar
    24    26    27   ar
    25    27    28   ar
    26    28    31    1
    27    31    32    1
    28    31    34    1
    29    34    35    1
    30    34    36    1
    31    34    37    1
    32    31    38    1
    33    38    39    1
    34    38    40    1
    35    38    41    1
    36    28    29   ar
    37    29    30   ar
    38    16     8    1
    39    30    25   ar
    40    15    10   ar
    41    24    22    1
    42    20    21    1
    43     3     4    1
    44    32    33    1
@<TRIPOS>MOLECULE
*****
 41 44 0 0 0
SMALL
GASTEIGER

@<TRIPOS>ATOM
      1 C          -1.4456    3.6950   19.9074 C.2     1  UNL1        0.2485
      2 O          -2.6452    3.2622   19.1179 O.2     1  UNL1       -0.2726
      3 N          -1.6215    4.2920   21.2722 N.am    1  UNL1       -0.2823
      4 H          -0.8342    4.5761   21.7905 H       1  UNL1        0.1549
      5 C           1.2756    7.0108   17.8492 C.3     1  UNL1        0.0949
      6 C           0.3428    6.0414   18.5125 C.2     1  UNL1        0.2269
      7 O          -0.9992    6.5039   18.9972 O.2     1  UNL1       -0.2748
      8 N           0.7520    4.6094   18.6910 N.am    1  UNL1       -0.2655
      9 C           2.0551    4.0044   18.2598 C.3     1  UNL1        0.1206
     10 C           2.0384    2.5520   18.6344 C.ar    1  UNL1       -0.0029
     11 C           3.0495    1.4582   18.4577 C.ar    1  UNL1        0.0170
     12 C           2.7472    0.0718   18.9437 C.ar    1  UNL1        0.1217
     13 C           1.4338   -0.2209   19.6065 C.ar    1  UNL1        0.0196
     14 C           0.4227    0.8729   19.7833 C.ar    1  UNL1       -0.0011
     15 C           0.7250    2.2594   19.2972 C.ar    1  UNL1        0.0022
     16 C          -0.0700    3.5309   19.3322 C.3     1  UNL1        0.1750
     17 S           3.7583   -1.0221   18.7670 S.O2    1  UNL1        0.0602
     18 O           3.5458   -0.9787   17.2828 O.2     1  UNL1       -0.1530
     19 O           3.9708   -1.0656   20.2512 O.2     1  UNL1       -0.1530
     20 N           4.7693   -2.1159   18.5902 N.3     1  UNL1       -0.1808
     21 H           5.5781   -1.8640   19.1585 H       1  UNL1        0.1487
     22 C           4.4145   -3.5297   18.9446 C.3     1  UNL1        0.0756
     23 C           4.4835   -4.9990   18.6507 C.3     1  UNL1        0.0188
     24 C           3.7311   -4.5090   19.8523 C.3     1  UNL1        0.0188
     25 C          -2.9971    4.4562   21.8474 C.ar    1  UNL1        0.0503
     26 C          -3.6990    5.7780   21.7474 C.ar    1  UNL1        0.0144
     27 C          -5.0746    5.9422   22.3226 C.ar    1  UNL1       -0.0002
     28 C          -5.7482    4.7844   22.9977 C.ar    1  UNL1        0.0182
     29 C          -5.0463    3.4626   23.0977 C.ar    1  UNL1       -0.0002
     30 C          -3.6707    3.2984   22.5226 C.ar    1  UNL1        0.0144
     31 C          -7.1238    4.9485   23.5729 C.3     1  UNL1        0.2827
     32 O          -7.7186    4.7284   22.2136 O.3     1  UNL1       -0.3692
     33 H          -8.6854    4.7810   22.2713 H       1  UNL1        0.2112
     34 C          -8.4994    5.1126   24.1482 C.3     1  UNL1        0.4311
     35 F          -9.8749    5.2766   24.7235 F       1  UNL1       -0.1669
     36 F          -8.8257    3.6978   23.7715 F       1  UNL1       -0.1669
     37 F          -8.4072    5.9535   24.4105 F       1  UNL1       -0.1669
     38 C          -6.5291    5.1686   24.9323 C.3     1  UNL1        0.4311
     39 F          -5.9343    5.3886   26.2917 F       1  UNL1       -0.1669
     40 F          -6.6089    4.3351   25.2213 F       1  UNL1       -0.1669
     41 F          -6.1822    6.6279   24.9448 F       1  UNL1       -0.1669
@<TRIPOS>BOND
     1     5     6    1
     2     6     7    2
     3     6     8   am
     4     8     9    1
     5     9    10    1
     6    10    11   ar
     7    11    12   ar
     8    12    17    1
     9    17    18    2
    10    17    19    2
    11    17    20    1
    12    20    22    1
    13    22    23    1
    14    23    24    1
    15    12    13   ar
    16    13    14   ar
    17    14    15   ar
    18    15    16    1
    19    16     1    1
    20     1     2    2
    21     1     3   am
    22     3    25    1
    23    25    26   ar
    24    26    27   ar
    25    27    28   ar
    26    28    31    1
    27    31    32    1
    28    31    34    1
    29    34    35    1
    30    34    36    1
    31    34    37    1
    32    31    38    1
    33    38    39    1
    34    38    40    1
    35    38    41    1
    36    28    29   ar
    37    29    30   ar
    38    16     8    1
    39    30    25   ar
    40    15    10   ar
    41    24    22    1
    42    20    21    1
    43     3     4    1
    44    32    33    1
@<TRIPOS>MOLECULE
*****
 41 44 0 0 0
SMALL
GASTEIGER

@<TRIPOS>ATOM
      1 C           2.0077    1.4347   25.1380 C.2     1  UNL1        0.2485
      2 O           3.2595    2.1685   24.7584 O.2     1  UNL1       -0.2726
      3 N           1.6014    0.2041   24.3824 N.am    1  UNL1       -0.2823
      4 H           0.7797   -0.2777   24.6315 H       1  UNL1        0.1549
      5 C          -2.1876    3.6658   24.8976 C.3     1  UNL1        0.0949
      6 C          -0.8653    2.9583   24.8658 C.2     1  UNL1        0.2269
      7 O          -0.2498    2.5776   23.5520 O.2     1  UNL1       -0.2748
      8 N          -0.1586    2.6316   26.1479 N.am    1  UNL1       -0.2655
      9 C          -0.6482    2.9478   27.5300 C.3     1  UNL1        0.1206
     10 C           0.3697    2.4428   28.5093 C.ar    1  UNL1       -0.0029
     11 C           0.4223    2.4740   30.0080 C.ar    1  UNL1        0.0170
     12 C           1.5938    1.8769   30.7298 C.ar    1  UNL1        0.1217
     13 C           2.7126    1.2486   29.9529 C.ar    1  UNL1        0.0196
     14 C           2.6599    1.2175   28.4542 C.ar    1  UNL1       -0.0011
     15 C           1.4885    1.8146   27.7324 C.ar    1  UNL1        0.0022
     16 C           1.1620    1.9312   26.2730 C.3     1  UNL1        0.1750
     17 S           1.6465    1.9080   32.2286 S.O2    1  UNL1        0.0602
     18 O           0.6783    3.0537   32.2388 O.2     1  UNL1       -0.1530
     19 O           2.6146    0.7624   32.2184 O.2     1  UNL1       -0.1530
     20 N           1.6992    1.9392   33.7274 N.3     1  UNL1       -0.1808
     21 H           2.3621    1.2188   34.0137 H       1  UNL1        0.1487
     22 C           2.0955    3.1995   34.4379 C.3     1  UNL1        0.0756
     23 C           1.7468    4.3483   35.3370 C.3     1  UNL1        0.0188
     24 C           3.1305    4.2333   34.7694 C.3     1  UNL1        0.0188
     25 C           2.4471   -0.2925   23.2474 C.ar    1  UNL1        0.0503
     26 C           2.2425    0.2530   21.8652 C.ar    1  UNL1        0.0144
     27 C           3.0882   -0.2435   20.7301 C.ar    1  UNL1       -0.0002
     28 C           4.1383   -1.2856   20.9774 C.ar    1  UNL1        0.0182
     29 C           4.3429   -1.8311   22.3597 C.ar    1  UNL1       -0.0002
     30 C           3.4973   -1.3345   23.4947 C.ar    1  UNL1        0.0144
     31 C           4.9841   -1.7822   19.8424 C.3     1  UNL1        0.2827
     32 O           5.8844   -0.5919   19.9924 O.3     1  UNL1       -0.3692
     33 H           6.5941   -0.6381   19.3327 H       1  UNL1        0.2112
     34 C           5.8297   -2.2789   18.7074 C.3     1  UNL1        0.4311
     35 F           6.6754   -2.7756   17.5725 F       1  UNL1       -0.1669
     36 F           6.9721   -2.4982   19.6545 F       1  UNL1       -0.1669
     37 F           5.2212   -2.1861   18.0706 F       1  UNL1       -0.1669
     38 C           4.0837   -2.9725   19.6925 C.3     1  UNL1        0.4311
     39 F           3.1832   -4.1628   19.5425 F       1  UNL1       -0.1669
     40 F           3.3935   -2.5423   19.3417 F       1  UNL1       -0.1669
     41 F           4.9011   -4.1147   20.2191 F       1  UNL1       -0.1669
@<TRIPOS>BOND
     1     5     6    1
     2     6     7    2
     3     6     8   am
     4     8     9    1
     5     9    10    1
     6    10    11   ar
     7    11    12   ar
     8    12    17    1
     9    17    18    2
    10    17    19    2
    11    17    20    1
    12    20    22    1
    13    22    23    1
    14    23    24    1
    15    12    13   ar
    16    13    14   ar
    17    14    15   ar
    18    15    16    1
    19    16     1    1
    20     1     2    2
    21     1     3   am
    22     3    25    1
    23    25    26   ar
    24    26    27   ar
    25    27    28   ar
    26    28    31    1
    27    31    32    1
    28    31    34    1
    29    34    35    1
    30    34    36    1
    31    34    37    1
    32    31    38    1
    33    38    39    1
    34    38    40    1
    35    38    41    1
    36    28    29   ar
    37    29    30   ar
    38    16     8    1
    39    30    25   ar
    40    15    10   ar
    41    24    22    1
    42    20    21    1
    43     3     4    1
    44    32    33    1
@<TRIPOS>MOLECULE
*****
 41 44 0 0 0
SMALL
GASTEIGER

@<TRIPOS>ATOM
      1 C           4.4898   -1.0087   32.8241 C.2     1  UNL1        0.2485
      2 O           3.6646   -2.2473   32.6379 O.2     1  UNL1       -0.2726
      3 N           5.8572   -0.9197   32.2137 N.am    1  UNL1       -0.2823
      4 H           6.3988   -0.1068   32.3359 H       1  UNL1        0.1549
      5 C           1.1986    2.1645   31.5072 C.3     1  UNL1        0.0949
      6 C           2.2249    1.1180   31.8257 C.2     1  UNL1        0.2269
      7 O           2.5693    0.0711   30.8083 O.2     1  UNL1       -0.2748
      8 N           2.9067    1.1185   33.1618 N.am    1  UNL1       -0.2655
      9 C           2.6673    2.0965   34.2736 C.3     1  UNL1        0.1206
     10 C           3.5603    1.7234   35.4196 C.ar    1  UNL1       -0.0029
     11 C           3.7551    2.3281   36.7784 C.ar    1  UNL1        0.0170
     12 C           4.7413    1.7242   37.7337 C.ar    1  UNL1        0.1217
     13 C           5.5327    0.5155   37.3302 C.ar    1  UNL1        0.0196
     14 C           5.3379   -0.0892   35.9714 C.ar    1  UNL1       -0.0011
     15 C           4.3517    0.5148   35.0161 C.ar    1  UNL1        0.0022
     16 C           3.9478    0.1409   33.6207 C.3     1  UNL1        0.1750
     17 S           4.9361    2.3289   39.0925 S.O2    1  UNL1        0.0602
     18 O           6.3899    2.5406   38.7899 O.2     1  UNL1       -0.1530
     19 O           3.4823    2.1172   39.3952 O.2     1  UNL1       -0.1530
     20 N           5.1309    2.9336   40.4513 N.3     1  UNL1       -0.1808
     21 H           6.1214    2.8393   40.6763 H       1  UNL1        0.1487
     22 C           4.7666    4.3685   40.6930 C.3     1  UNL1        0.0756
     23 C           3.9605    5.3980   41.4280 C.3     1  UNL1        0.0188
     24 C           4.9416    5.8242   40.3765 C.3     1  UNL1        0.0188
     25 C           6.3992   -2.0693   31.4171 C.ar    1  UNL1        0.0503
     26 C           6.7602   -3.3533   32.1034 C.ar    1  UNL1        0.0144
     27 C           7.3022   -4.5030   31.3068 C.ar    1  UNL1       -0.0002
     28 C           7.4831   -4.3685   29.8239 C.ar    1  UNL1        0.0182
     29 C           7.1222   -3.0846   29.1376 C.ar    1  UNL1       -0.0002
     30 C           6.5802   -1.9349   29.9342 C.ar    1  UNL1        0.0144
     31 C           8.0252   -5.5181   29.0272 C.3     1  UNL1        0.2827
     32 O           9.3374   -5.3960   29.7435 O.3     1  UNL1       -0.3692
     33 H           9.9507   -6.0705   29.4122 H       1  UNL1        0.2112
     34 C           8.5671   -6.6677   28.2305 C.3     1  UNL1        0.4311
     35 F           9.1090   -7.8173   27.4337 F       1  UNL1       -0.1669
     36 F           9.5174   -5.7382   27.5357 F       1  UNL1       -0.1669
     37 F           8.0491   -7.2953   28.5803 F       1  UNL1       -0.1669
     38 C           6.7129   -5.6403   28.3109 C.3     1  UNL1        0.4311
     39 F           5.4006   -5.7625   27.5947 F       1  UNL1       -0.1669
     40 F           6.2260   -5.8667   29.0154 F       1  UNL1       -0.1669
     41 F           7.0449   -5.3096   26.8860 F       1  UNL1       -0.1669
@<TRIPOS>BOND
     1     5     6    1
     2     6     7    2
     3     6     8   am
     4     8     9    1
     5     9    10    1
     6    10    11   ar
     7    11    12   ar
     8    12    17    1
     9    17    18    2
    10    17    19    2
    11    17    20    1
    12    20    22    1
    13    22    23    1
    14    23    24    1
    15    12    13   ar
    16    13    14   ar
    17    14    15   ar
    18    15    16    1
    19    16     1    1
    20     1     2    2
    21     1     3   am
    22     3    25    1
    23    25    26   ar
    24    26    27   ar
    25    27    28   ar
    26    28    31    1
    27    31    32    1
    28    31    34    1
    29    34    35    1
    30    34    36    1
    31    34    37    1
    32    31    38    1
    33    38    39    1
    34    38    40    1
    35    38    41    1
    36    28    29   ar
    37    29    30   ar
    38    16     8    1
    39    30    25   ar
    40    15    10   ar
    41    24    22    1
    42    20    21    1
    43     3     4    1
    44    32    33    1
@<TRIPOS>MOLECULE
*****
 41 44 0 0 0
SMALL
GASTEIGER

@<TRIPOS>ATOM
      1 C           3.0896    0.3720   26.4693 C.2     1  UNL1        0.2485
      2 O           3.7365    1.6024   27.0326 O.2     1  UNL1       -0.2726
      3 N           2.9034   -0.8400   27.3333 N.am    1  UNL1       -0.2823
      4 H           2.4788   -1.6476   26.9636 H       1  UNL1        0.1549
      5 C           4.5794   -2.4674   22.9544 C.3     1  UNL1        0.0949
      6 C           4.1790   -1.6228   24.1276 C.2     1  UNL1        0.2269
      7 O           4.8281   -1.8375   25.4626 O.2     1  UNL1       -0.2748
      8 N           3.1295   -0.5634   23.9656 N.am    1  UNL1       -0.2655
      9 C           2.3964   -0.2350   22.6988 C.3     1  UNL1        0.1206
     10 C           1.4425    0.8849   22.9923 C.ar    1  UNL1       -0.0029
     11 C           0.4618    1.6205   22.1280 C.ar    1  UNL1        0.0170
     12 C          -0.3753    2.7197   22.7118 C.ar    1  UNL1        0.1217
     13 C          -0.2317    3.0834   24.1599 C.ar    1  UNL1        0.0196
     14 C           0.7490    2.3478   25.0242 C.ar    1  UNL1       -0.0011
     15 C           1.5861    1.2486   24.4404 C.ar    1  UNL1        0.0022
     16 C           2.6287    0.3535   25.0419 C.3     1  UNL1        0.1750
     17 S          -1.3561    3.4553   21.8474 S.O2    1  UNL1        0.0602
     18 O          -1.3398    2.3223   20.8647 O.2     1  UNL1       -0.1530
     19 O          -1.3724    4.5884   22.8302 O.2     1  UNL1       -0.1530
     20 N          -2.3368    4.1909   20.9831 N.3     1  UNL1       -0.1808
     21 H          -2.0326    4.0629   20.0180 H       1  UNL1        0.1487
     22 C          -3.7929    3.8331   21.0292 C.3     1  UNL1        0.0756
     23 C          -5.0159    3.2780   20.3613 C.3     1  UNL1        0.0188
     24 C          -5.0917    3.7686   21.7768 C.3     1  UNL1        0.0188
     25 C           3.3643   -0.8215   28.7607 C.ar    1  UNL1        0.0503
     26 C           2.3937   -0.4996   29.8581 C.ar    1  UNL1        0.0144
     27 C           2.8546   -0.4811   31.2854 C.ar    1  UNL1       -0.0002
     28 C           4.2861   -0.7844   31.6152 C.ar    1  UNL1        0.0182
     29 C           5.2567   -1.1062   30.5178 C.ar    1  UNL1       -0.0002
     30 C           4.7958   -1.1248   29.0905 C.ar    1  UNL1        0.0144
     31 C           4.7470   -0.7659   33.0426 C.3     1  UNL1        0.2827
     32 O           4.2498    0.6421   33.1850 O.3     1  UNL1       -0.3692
     33 H           4.4237    0.9569   34.0859 H       1  UNL1        0.2112
     34 C           5.2080   -0.7474   34.4698 C.3     1  UNL1        0.4311
     35 F           5.6690   -0.7290   35.8971 F       1  UNL1       -0.1669
     36 F           6.3265    0.1798   34.0966 F       1  UNL1       -0.1669
     37 F           4.5858   -1.2896   34.7914 F       1  UNL1       -0.1669
     38 C           5.2443   -2.1739   32.9001 C.3     1  UNL1        0.4311
     39 F           5.7416   -3.5819   32.7577 F       1  UNL1       -0.1669
     40 F           6.1072   -1.9795   32.8539 F       1  UNL1       -0.1669
     41 F           3.9953   -3.0043   32.9251 F       1  UNL1       -0.1669
@<TRIPOS>BOND
     1     5     6    1
     2     6     7    2
     3     6     8   am
     4     8     9    1
     5     9    10    1
     6    10    11   ar
     7    11    12   ar
     8    12    17    1
     9    17    18    2
    10    17    19    2
    11    17    20    1
    12    20    22    1
    13    22    23    1
    14    23    24    1
    15    12    13   ar
    16    13    14   ar
    17    14    15   ar
    18    15    16    1
    19    16     1    1
    20     1     2    2
    21     1     3   am
    22     3    25    1
    23    25    26   ar
    24    26    27   ar
    25    27    28   ar
    26    28    31    1
    27    31    32    1
    28    31    34    1
    29    34    35    1
    30    34    36    1
    31    34    37    1
    32    31    38    1
    33    38    39    1
    34    38    40    1
    35    38    41    1
    36    28    29   ar
    37    29    30   ar
    38    16     8    1
    39    30    25   ar
    40    15    10   ar
    41    24    22    1
    42    20    21    1
    43     3     4    1
    44    32    33    1
