@<TRIPOS>MOLECULE
*****
 36 41 0 0 0
SMALL
GASTEIGER

@<TRIPOS>ATOM
      1 C         -18.1806   -2.0386   20.0786 C.3     1  UNL1        0.0749
      2 C         -16.7612   -1.9849   19.5966 C.3     1  UNL1        0.0444
      3 C         -16.1208   -0.6622   19.2959 C.ar    1  UNL1       -0.0101
      4 C         -16.8998    0.6067   19.4772 C.ar    1  UNL1       -0.0091
      5 C         -16.2594    1.9294   19.1765 C.ar    1  UNL1       -0.0032
      6 C         -14.8400    1.9831   18.6945 C.ar    1  UNL1        0.0010
      7 C         -14.0610    0.7142   18.5131 C.ar    1  UNL1        0.0142
      8 C         -14.7014   -0.6085   18.8138 C.ar    1  UNL1        0.0437
      9 C         -18.3192    0.5530   19.9593 C.3     1  UNL1        0.0954
     10 N         -18.9596   -0.7696   20.2600 N.3     1  UNL1       -0.2934
     11 H         -19.7825   -0.8412   19.6615 H       1  UNL1        0.1236
     12 N         -13.9223   -1.8775   18.6325 N.pl3   1  UNL1       -0.3043
     13 C         -13.3457   -2.5805   19.8255 C.3     1  UNL1        0.1123
     14 C         -12.5667   -3.8495   19.6442 C.3     1  UNL1        0.1136
     15 N         -12.3643   -4.4154   18.2698 N.pl3   1  UNL1       -0.2897
     16 C         -12.9409   -3.7123   17.0768 C.3     1  UNL1        0.1136
     17 C         -13.7200   -2.4434   17.2582 C.3     1  UNL1        0.1123
     18 C         -11.5853   -5.6843   18.0885 C.ar    1  UNL1        0.1318
     19 C         -10.3946   -5.9640   18.9569 C.ar    1  UNL1        0.0343
     20 C          -9.6156   -7.2330   18.7756 C.ar    1  UNL1        0.0045
     21 C         -10.0273   -8.2222   17.7258 C.ar    1  UNL1        0.0208
     22 C         -11.2179   -7.9425   16.8574 C.ar    1  UNL1        0.1003
     23 N         -11.9969   -6.6735   17.0387 N.ar    1  UNL1       -0.2292
     24 C         -18.8210   -3.3613   20.3794 C.3     1  UNL1        0.0886
     25 C         -19.4368   -3.8283   17.8989 C.3     1  UNL1        0.0899
     26 N         -19.0931   -4.3325   19.2691 N.3     1  UNL1       -0.2667
     27 C         -19.0214   -5.8081   19.5291 C.3     1  UNL1        0.0978
     28 C         -20.2600   -6.5636   19.9098 C.3     1  UNL1        0.0224
     29 C         -20.1883   -8.0392   20.1698 C.3     1  UNL1        0.0065
     30 C         -18.8780   -8.7592   20.0491 C.3     1  UNL1        0.0277
     31 C         -17.6393   -8.0037   19.6684 C.ar    1  UNL1       -0.0073
     32 C         -16.3290   -8.7238   19.5477 C.ar    1  UNL1       -0.0015
     33 C         -15.0904   -7.9682   19.1671 C.ar    1  UNL1        0.0203
     34 C         -15.1621   -6.4927   18.9071 C.ar    1  UNL1        0.0985
     35 N         -16.4724   -5.7726   19.0278 N.ar    1  UNL1       -0.2471
     36 C         -17.7110   -6.5281   19.4084 C.ar    1  UNL1        0.0695
@<TRIPOS>BOND
     1    25    26    1
     2    26    24    1
     3     1    24    1
     4     1     2    1
     5     2     3    1
     6     3     4   ar
     7     4     5   ar
     8     5     6   ar
     9     6     7   ar
    10     7     8   ar
    11     8    12    1
    12    12    13    1
    13    13    14    1
    14    14    15    1
    15    15    18    1
    16    18    19   ar
    17    19    20   ar
    18    20    21   ar
    19    21    22   ar
    20    22    23   ar
    21    15    16    1
    22    16    17    1
    23     4     9    1
    24     9    10    1
    25    27    26    1
    26    27    28    1
    27    28    29    1
    28    29    30    1
    29    30    31    1
    30    31    32   ar
    31    32    33   ar
    32    33    34   ar
    33    34    35   ar
    34    35    36   ar
    35    10     1    1
    36    36    27    1
    37     8     3   ar
    38    17    12    1
    39    36    31   ar
    40    23    18   ar
    41    10    11    1
@<TRIPOS>MOLECULE
*****
 36 41 0 0 0
SMALL
GASTEIGER

@<TRIPOS>ATOM
      1 C           4.3006   -1.9242   24.2045 C.3     1  UNL1        0.0749
      2 C           3.7305   -1.4376   22.9052 C.3     1  UNL1        0.0444
      3 C           4.1366   -2.0898   21.6170 C.ar    1  UNL1       -0.0101
      4 C           5.1129   -3.2286   21.6280 C.ar    1  UNL1       -0.0091
      5 C           5.5191   -3.8808   20.3397 C.ar    1  UNL1       -0.0032
      6 C           4.9489   -3.3943   19.0404 C.ar    1  UNL1        0.0010
      7 C           3.9726   -2.2555   19.0293 C.ar    1  UNL1        0.0142
      8 C           3.5665   -1.6033   20.3176 C.ar    1  UNL1        0.0437
      9 C           5.6831   -3.7151   22.9273 C.3     1  UNL1        0.0954
     10 N           5.2769   -3.0629   24.2155 N.3     1  UNL1       -0.2934
     11 H           6.1308   -2.7144   24.6512 H       1  UNL1        0.1236
     12 N           2.5902   -0.4646   20.3065 N.pl3   1  UNL1       -0.3043
     13 C           1.1170   -0.7390   20.3739 C.3     1  UNL1        0.1123
     14 C           0.1407    0.3997   20.3628 C.3     1  UNL1        0.1136
     15 N           0.6376    1.8129   20.2844 N.pl3   1  UNL1       -0.2897
     16 C           2.1107    2.0873   20.2171 C.3     1  UNL1        0.1136
     17 C           3.0870    0.9486   20.2281 C.3     1  UNL1        0.1123
     18 C          -0.3387    2.9516   20.2734 C.ar    1  UNL1        0.1318
     19 C           0.1179    4.3273   19.8869 C.ar    1  UNL1        0.0343
     20 C          -0.8584    5.4660   19.8758 C.ar    1  UNL1        0.0045
     21 C          -2.2913    5.2291   20.2513 C.ar    1  UNL1        0.0208
     22 C          -2.7478    3.8536   20.6378 C.ar    1  UNL1        0.1003
     23 N          -1.7715    2.7148   20.6489 N.ar    1  UNL1       -0.2292
     24 C           3.8944   -1.2719   25.4928 C.3     1  UNL1        0.0886
     25 C           4.8538    1.1335   25.7018 C.3     1  UNL1        0.0899
     26 N           3.6805    0.2117   25.5475 N.3     1  UNL1       -0.2667
     27 C           2.2933    0.7736   25.4480 C.3     1  UNL1        0.0978
     28 C           1.7935    1.3099   24.1394 C.3     1  UNL1        0.0224
     29 C           0.4063    1.8719   24.0399 C.3     1  UNL1        0.0065
     30 C          -0.4811    1.8974   25.2490 C.3     1  UNL1        0.0277
     31 C           0.0187    1.3611   26.5577 C.ar    1  UNL1       -0.0073
     32 C          -0.8686    1.3867   27.7668 C.ar    1  UNL1       -0.0015
     33 C          -0.3688    0.8503   29.0753 C.ar    1  UNL1        0.0203
     34 C           1.0184    0.2884   29.1748 C.ar    1  UNL1        0.0985
     35 N           1.9058    0.2628   27.9658 N.ar    1  UNL1       -0.2471
     36 C           1.4059    0.7992   26.6572 C.ar    1  UNL1        0.0695
@<TRIPOS>BOND
     1    25    26    1
     2    26    24    1
     3     1    24    1
     4     1     2    1
     5     2     3    1
     6     3     4   ar
     7     4     5   ar
     8     5     6   ar
     9     6     7   ar
    10     7     8   ar
    11     8    12    1
    12    12    13    1
    13    13    14    1
    14    14    15    1
    15    15    18    1
    16    18    19   ar
    17    19    20   ar
    18    20    21   ar
    19    21    22   ar
    20    22    23   ar
    21    15    16    1
    22    16    17    1
    23     4     9    1
    24     9    10    1
    25    27    26    1
    26    27    28    1
    27    28    29    1
    28    29    30    1
    29    30    31    1
    30    31    32   ar
    31    32    33   ar
    32    33    34   ar
    33    34    35   ar
    34    35    36   ar
    35    10     1    1
    36    36    27    1
    37     8     3   ar
    38    17    12    1
    39    36    31   ar
    40    23    18   ar
    41    10    11    1
@<TRIPOS>MOLECULE
*****
 36 41 0 0 0
SMALL
GASTEIGER

@<TRIPOS>ATOM
      1 C         -19.0441   -4.1136   19.6084 C.3     1  UNL1        0.0749
      2 C         -17.7957   -3.2843   19.5481 C.3     1  UNL1        0.0444
      3 C         -17.8293   -1.8463   19.9736 C.ar    1  UNL1       -0.0101
      4 C         -19.1113   -1.2377   20.4594 C.ar    1  UNL1       -0.0091
      5 C         -19.1448    0.2004   20.8848 C.ar    1  UNL1       -0.0032
      6 C         -17.8963    1.0297   20.8246 C.ar    1  UNL1        0.0010
      7 C         -16.6143    0.4210   20.3388 C.ar    1  UNL1        0.0142
      8 C         -16.5808   -1.0170   19.9133 C.ar    1  UNL1        0.0437
      9 C         -20.3597   -2.0669   20.5196 C.3     1  UNL1        0.0954
     10 N         -20.3261   -3.5049   20.0942 N.3     1  UNL1       -0.2934
     11 H         -21.0041   -3.6043   19.3386 H       1  UNL1        0.1236
     12 N         -15.2988   -1.6257   19.4275 N.pl3   1  UNL1       -0.3043
     13 C         -14.8816   -1.4537   17.9970 C.3     1  UNL1        0.1123
     14 C         -13.5996   -2.0624   17.5112 C.3     1  UNL1        0.1136
     15 N         -12.7348   -2.8431   18.4560 N.pl3   1  UNL1       -0.2897
     16 C         -13.1519   -3.0150   19.8865 C.3     1  UNL1        0.1136
     17 C         -14.4339   -2.4063   20.3723 C.3     1  UNL1        0.1123
     18 C         -11.4528   -3.4518   17.9702 C.ar    1  UNL1        0.1318
     19 C         -10.9333   -4.7096   18.6014 C.ar    1  UNL1        0.0343
     20 C          -9.6513   -5.3183   18.1156 C.ar    1  UNL1        0.0045
     21 C          -8.8888   -4.6692   16.9987 C.ar    1  UNL1        0.0208
     22 C          -9.4083   -3.4115   16.3677 C.ar    1  UNL1        0.1003
     23 N         -10.6903   -2.8028   16.8534 N.ar    1  UNL1       -0.2292
     24 C         -19.0106   -5.5516   19.1829 C.3     1  UNL1        0.0886
     25 C         -18.9791   -5.7060   16.5896 C.3     1  UNL1        0.0899
     26 N         -18.3139   -5.9421   17.9132 N.3     1  UNL1       -0.2667
     27 C         -16.9520   -6.5685   17.9671 C.3     1  UNL1        0.0978
     28 C         -15.7267   -5.7049   17.9160 C.3     1  UNL1        0.0224
     29 C         -14.3648   -6.3314   17.9699 C.3     1  UNL1        0.0065
     30 C         -14.2283   -7.8215   18.0748 C.3     1  UNL1        0.0277
     31 C         -15.4537   -8.6851   18.1259 C.ar    1  UNL1       -0.0073
     32 C         -15.3173  -10.1752   18.2308 C.ar    1  UNL1       -0.0015
     33 C         -16.5426  -11.0388   18.2819 C.ar    1  UNL1        0.0203
     34 C         -17.9045  -10.4123   18.2280 C.ar    1  UNL1        0.0985
     35 N         -18.0410   -8.9223   18.1231 N.ar    1  UNL1       -0.2471
     36 C         -16.8156   -8.0587   18.0720 C.ar    1  UNL1        0.0695
@<TRIPOS>BOND
     1    25    26    1
     2    26    24    1
     3     1    24    1
     4     1     2    1
     5     2     3    1
     6     3     4   ar
     7     4     5   ar
     8     5     6   ar
     9     6     7   ar
    10     7     8   ar
    11     8    12    1
    12    12    13    1
    13    13    14    1
    14    14    15    1
    15    15    18    1
    16    18    19   ar
    17    19    20   ar
    18    20    21   ar
    19    21    22   ar
    20    22    23   ar
    21    15    16    1
    22    16    17    1
    23     4     9    1
    24     9    10    1
    25    27    26    1
    26    27    28    1
    27    28    29    1
    28    29    30    1
    29    30    31    1
    30    31    32   ar
    31    32    33   ar
    32    33    34   ar
    33    34    35   ar
    34    35    36   ar
    35    10     1    1
    36    36    27    1
    37     8     3   ar
    38    17    12    1
    39    36    31   ar
    40    23    18   ar
    41    10    11    1
@<TRIPOS>MOLECULE
*****
 36 41 0 0 0
SMALL
GASTEIGER

@<TRIPOS>ATOM
      1 C         -18.9209   -5.0379   19.6516 C.3     1  UNL1        0.0749
      2 C         -17.6618   -5.7352   19.2293 C.3     1  UNL1        0.0444
      3 C         -17.5885   -7.2331   19.2575 C.ar    1  UNL1       -0.0101
      4 C         -18.7742   -8.0337   19.7081 C.ar    1  UNL1       -0.0091
      5 C         -18.7009   -9.5317   19.7364 C.ar    1  UNL1       -0.0032
      6 C         -17.4418  -10.2290   19.3140 C.ar    1  UNL1        0.0010
      7 C         -16.2560   -9.4284   18.8634 C.ar    1  UNL1        0.0142
      8 C         -16.3294   -7.9305   18.8352 C.ar    1  UNL1        0.0437
      9 C         -20.0333   -7.3364   20.1305 C.3     1  UNL1        0.0954
     10 N         -20.1066   -5.8385   20.1022 N.3     1  UNL1       -0.2934
     11 H         -20.3221   -5.5362   21.0523 H       1  UNL1        0.1236
     12 N         -15.1436   -7.1299   18.3846 N.pl3   1  UNL1       -0.3043
     13 C         -14.2437   -6.4871   19.3981 C.3     1  UNL1        0.1123
     14 C         -13.0580   -5.6865   18.9475 C.3     1  UNL1        0.1136
     15 N         -12.7721   -5.5287   17.4834 N.pl3   1  UNL1       -0.2897
     16 C         -13.6720   -6.1715   16.4700 C.3     1  UNL1        0.1136
     17 C         -14.8577   -6.9721   16.9206 C.3     1  UNL1        0.1123
     18 C         -11.5863   -4.7281   17.0328 C.ar    1  UNL1        0.1318
     19 C         -10.2027   -5.2880   17.1824 C.ar    1  UNL1        0.0343
     20 C          -9.0170   -4.4874   16.7319 C.ar    1  UNL1        0.0045
     21 C          -9.2148   -3.1269   16.1316 C.ar    1  UNL1        0.0208
     22 C         -10.5984   -2.5672   15.9820 C.ar    1  UNL1        0.1003
     23 N         -11.7841   -3.3678   16.4326 N.ar    1  UNL1       -0.2292
     24 C         -18.9943   -3.5399   19.6234 C.3     1  UNL1        0.0886
     25 C         -19.1565   -2.7132   17.1657 C.3     1  UNL1        0.0899
     26 N         -18.4130   -2.7822   18.4667 N.3     1  UNL1       -0.2667
     27 C         -17.0884   -2.0934   18.6109 C.3     1  UNL1        0.0978
     28 C         -15.8185   -2.8474   18.3488 C.3     1  UNL1        0.0224
     29 C         -14.4938   -2.1587   18.4930 C.3     1  UNL1        0.0065
     30 C         -14.4390   -0.7158   18.8994 C.3     1  UNL1        0.0277
     31 C         -15.7089    0.0383   19.1616 C.ar    1  UNL1       -0.0073
     32 C         -15.6541    1.4811   19.5680 C.ar    1  UNL1       -0.0015
     33 C         -16.9240    2.2352   19.8301 C.ar    1  UNL1        0.0203
     34 C         -18.2487    1.5464   19.6859 C.ar    1  UNL1        0.0985
     35 N         -18.3035    0.1036   19.2795 N.ar    1  UNL1       -0.2471
     36 C         -17.0336   -0.6505   19.0173 C.ar    1  UNL1        0.0695
@<TRIPOS>BOND
     1    25    26    1
     2    26    24    1
     3     1    24    1
     4     1     2    1
     5     2     3    1
     6     3     4   ar
     7     4     5   ar
     8     5     6   ar
     9     6     7   ar
    10     7     8   ar
    11     8    12    1
    12    12    13    1
    13    13    14    1
    14    14    15    1
    15    15    18    1
    16    18    19   ar
    17    19    20   ar
    18    20    21   ar
    19    21    22   ar
    20    22    23   ar
    21    15    16    1
    22    16    17    1
    23     4     9    1
    24     9    10    1
    25    27    26    1
    26    27    28    1
    27    28    29    1
    28    29    30    1
    29    30    31    1
    30    31    32   ar
    31    32    33   ar
    32    33    34   ar
    33    34    35   ar
    34    35    36   ar
    35    10     1    1
    36    36    27    1
    37     8     3   ar
    38    17    12    1
    39    36    31   ar
    40    23    18   ar
    41    10    11    1
@<TRIPOS>MOLECULE
*****
 36 41 0 0 0
SMALL
GASTEIGER

@<TRIPOS>ATOM
      1 C           2.7862   -0.1627   24.1954 C.3     1  UNL1        0.0749
      2 C           2.3106    0.3429   25.5251 C.3     1  UNL1        0.0444
      3 C           1.1773    1.3231   25.5930 C.ar    1  UNL1       -0.0101
      4 C           0.5195    1.7977   24.3313 C.ar    1  UNL1       -0.0091
      5 C          -0.6139    2.7780   24.3993 C.ar    1  UNL1       -0.0032
      6 C          -1.0895    3.2836   25.7290 C.ar    1  UNL1        0.0010
      7 C          -0.4317    2.8090   26.9908 C.ar    1  UNL1        0.0142
      8 C           0.7017    1.8288   26.9228 C.ar    1  UNL1        0.0437
      9 C           0.9950    1.2921   23.0016 C.3     1  UNL1        0.0954
     10 N           2.1284    0.3119   22.9336 N.3     1  UNL1       -0.2934
     11 H           2.8575    0.7438   22.3659 H       1  UNL1        0.1236
     12 N           1.3595    1.3542   28.1846 N.pl3   1  UNL1       -0.3043
     13 C           1.0495   -0.0106   28.7244 C.3     1  UNL1        0.1123
     14 C           1.7074   -0.4852   29.9862 C.3     1  UNL1        0.1136
     15 N           2.6752    0.4049   30.7081 N.pl3   1  UNL1       -0.2897
     16 C           2.9851    1.7696   30.1682 C.3     1  UNL1        0.1136
     17 C           2.3273    2.2442   28.9065 C.3     1  UNL1        0.1123
     18 C           3.3330   -0.0697   31.9698 C.ar    1  UNL1        0.1318
     19 C           3.6116    0.8992   33.0806 C.ar    1  UNL1        0.0343
     20 C           4.2694    0.4246   34.3424 C.ar    1  UNL1        0.0045
     21 C           4.6486   -1.0189   34.4933 C.ar    1  UNL1        0.0208
     22 C           4.3700   -1.9876   33.3826 C.ar    1  UNL1        0.1003
     23 N           3.7122   -1.5130   32.1208 N.ar    1  UNL1       -0.2292
     24 C           3.9196   -1.1429   24.1273 C.3     1  UNL1        0.0886
     25 C           6.1564   -0.3250   23.0891 C.3     1  UNL1        0.0899
     26 N           4.8784   -1.1020   22.9746 N.3     1  UNL1       -0.2667
     27 C           4.5593   -1.8381   21.7072 C.3     1  UNL1        0.0978
     28 C           4.6007   -3.3373   21.6798 C.3     1  UNL1        0.0224
     29 C           4.2816   -4.0734   20.4124 C.3     1  UNL1        0.0065
     30 C           3.9211   -3.3103   19.1723 C.3     1  UNL1        0.0277
     31 C           3.8797   -1.8111   19.1996 C.ar    1  UNL1       -0.0073
     32 C           3.5193   -1.0481   17.9596 C.ar    1  UNL1       -0.0015
     33 C           3.4779    0.4511   17.9869 C.ar    1  UNL1        0.0203
     34 C           3.7970    1.1872   19.2544 C.ar    1  UNL1        0.0985
     35 N           4.1575    0.4241   20.4944 N.ar    1  UNL1       -0.2471
     36 C           4.1988   -1.0750   20.4670 C.ar    1  UNL1        0.0695
@<TRIPOS>BOND
     1    25    26    1
     2    26    24    1
     3     1    24    1
     4     1     2    1
     5     2     3    1
     6     3     4   ar
     7     4     5   ar
     8     5     6   ar
     9     6     7   ar
    10     7     8   ar
    11     8    12    1
    12    12    13    1
    13    13    14    1
    14    14    15    1
    15    15    18    1
    16    18    19   ar
    17    19    20   ar
    18    20    21   ar
    19    21    22   ar
    20    22    23   ar
    21    15    16    1
    22    16    17    1
    23     4     9    1
    24     9    10    1
    25    27    26    1
    26    27    28    1
    27    28    29    1
    28    29    30    1
    29    30    31    1
    30    31    32   ar
    31    32    33   ar
    32    33    34   ar
    33    34    35   ar
    34    35    36   ar
    35    10     1    1
    36    36    27    1
    37     8     3   ar
    38    17    12    1
    39    36    31   ar
    40    23    18   ar
    41    10    11    1
@<TRIPOS>MOLECULE
*****
 36 41 0 0 0
SMALL
GASTEIGER

@<TRIPOS>ATOM
      1 C           2.0184    3.3958   33.9492 C.3     1  UNL1        0.0749
      2 C           2.9291    2.2422   34.2491 C.3     1  UNL1        0.0444
      3 C           3.3823    1.9908   35.6566 C.ar    1  UNL1       -0.0101
      4 C           2.9250    2.8930   36.7643 C.ar    1  UNL1       -0.0091
      5 C           3.3783    2.6415   38.1719 C.ar    1  UNL1       -0.0032
      6 C           4.2890    1.4880   38.4718 C.ar    1  UNL1        0.0010
      7 C           4.7463    0.5858   37.3641 C.ar    1  UNL1        0.0142
      8 C           4.2930    0.8372   35.9566 C.ar    1  UNL1        0.0437
      9 C           2.0144    4.0466   36.4644 C.3     1  UNL1        0.0954
     10 N           1.5611    4.2980   35.0569 N.3     1  UNL1       -0.2934
     11 H           1.8653    5.2406   34.8135 H       1  UNL1        0.1236
     12 N           4.7504   -0.0649   34.8489 N.pl3   1  UNL1       -0.3043
     13 C           5.9782    0.2800   34.0592 C.3     1  UNL1        0.1123
     14 C           6.4355   -0.6221   32.9516 C.3     1  UNL1        0.1136
     15 N           5.6650   -1.8693   32.6335 N.pl3   1  UNL1       -0.2897
     16 C           4.4373   -2.2142   33.4232 C.3     1  UNL1        0.1136
     17 C           3.9800   -1.3120   34.5309 C.3     1  UNL1        0.1123
     18 C           6.1224   -2.7714   31.5259 C.ar    1  UNL1        0.1318
     19 C           6.1657   -2.2641   30.1149 C.ar    1  UNL1        0.0343
     20 C           6.6231   -3.1662   29.0072 C.ar    1  UNL1        0.0045
     21 C           7.0371   -4.5758   29.3105 C.ar    1  UNL1        0.0208
     22 C           6.9937   -5.0830   30.7214 C.ar    1  UNL1        0.1003
     23 N           6.5364   -4.1809   31.8291 N.ar    1  UNL1       -0.2292
     24 C           1.5651    3.6473   32.5416 C.3     1  UNL1        0.0886
     25 C           3.6290    4.0922   31.0275 C.3     1  UNL1        0.0899
     26 N           2.4406    3.2516   31.3897 N.3     1  UNL1       -0.2667
     27 C           2.1277    2.0153   30.5999 C.3     1  UNL1        0.0978
     28 C           2.7187    0.6973   31.0044 C.3     1  UNL1        0.0224
     29 C           2.4058   -0.5390   30.2147 C.3     1  UNL1        0.0065
     30 C           1.5019   -0.4573   29.0205 C.3     1  UNL1        0.0277
     31 C           0.9109    0.8607   28.6159 C.ar    1  UNL1       -0.0073
     32 C           0.0070    0.9423   27.4216 C.ar    1  UNL1       -0.0015
     33 C          -0.5840    2.2603   27.0171 C.ar    1  UNL1        0.0203
     34 C          -0.2712    3.4966   27.8069 C.ar    1  UNL1        0.0985
     35 N           0.6327    3.4149   29.0011 N.ar    1  UNL1       -0.2471
     36 C           1.2237    2.0970   29.4056 C.ar    1  UNL1        0.0695
@<TRIPOS>BOND
     1    25    26    1
     2    26    24    1
     3     1    24    1
     4     1     2    1
     5     2     3    1
     6     3     4   ar
     7     4     5   ar
     8     5     6   ar
     9     6     7   ar
    10     7     8   ar
    11     8    12    1
    12    12    13    1
    13    13    14    1
    14    14    15    1
    15    15    18    1
    16    18    19   ar
    17    19    20   ar
    18    20    21   ar
    19    21    22   ar
    20    22    23   ar
    21    15    16    1
    22    16    17    1
    23     4     9    1
    24     9    10    1
    25    27    26    1
    26    27    28    1
    27    28    29    1
    28    29    30    1
    29    30    31    1
    30    31    32   ar
    31    32    33   ar
    32    33    34   ar
    33    34    35   ar
    34    35    36   ar
    35    10     1    1
    36    36    27    1
    37     8     3   ar
    38    17    12    1
    39    36    31   ar
    40    23    18   ar
    41    10    11    1
@<TRIPOS>MOLECULE
*****
 36 41 0 0 0
SMALL
GASTEIGER

@<TRIPOS>ATOM
      1 C           0.1083    2.5287   22.6030 C.3     1  UNL1        0.0749
      2 C          -0.0698    2.3943   24.0863 C.3     1  UNL1        0.0444
      3 C          -1.3046    2.9338   24.7453 C.ar    1  UNL1       -0.0101
      4 C          -2.3612    3.6076   23.9210 C.ar    1  UNL1       -0.0091
      5 C          -3.5960    4.1470   24.5801 C.ar    1  UNL1       -0.0032
      6 C          -3.7741    4.0127   26.0634 C.ar    1  UNL1        0.0010
      7 C          -2.7175    3.3389   26.8877 C.ar    1  UNL1        0.0142
      8 C          -1.4827    2.7994   26.2287 C.ar    1  UNL1        0.0437
      9 C          -2.1831    3.7419   22.4377 C.3     1  UNL1        0.0954
     10 N          -0.9484    3.2025   21.7787 N.3     1  UNL1       -0.2934
     11 H          -0.4986    3.9879   21.3083 H       1  UNL1        0.1236
     12 N          -0.4261    2.1256   27.0529 N.pl3   1  UNL1       -0.3043
     13 C          -0.6476    0.7324   27.5629 C.3     1  UNL1        0.1123
     14 C           0.4090    0.0586   28.3872 C.3     1  UNL1        0.1136
     15 N           1.6873    0.7780   28.7015 N.pl3   1  UNL1       -0.2897
     16 C           1.9087    2.1711   28.1916 C.3     1  UNL1        0.1136
     17 C           0.8521    2.8449   27.3673 C.3     1  UNL1        0.1123
     18 C           2.7439    0.1042   29.5258 C.ar    1  UNL1        0.1318
     19 C           4.0683   -0.2401   28.9114 C.ar    1  UNL1        0.0343
     20 C           5.1250   -0.9139   29.7357 C.ar    1  UNL1        0.0045
     21 C           4.8572   -1.2434   31.1744 C.ar    1  UNL1        0.0208
     22 C           3.5329   -0.8991   31.7887 C.ar    1  UNL1        0.1003
     23 N           2.4762   -0.2253   30.9644 N.ar    1  UNL1       -0.2292
     24 C           1.3431    1.9892   21.9439 C.3     1  UNL1        0.0886
     25 C           0.5391   -0.0414   20.5367 C.3     1  UNL1        0.0899
     26 N           1.4323    0.5328   21.5962 N.3     1  UNL1       -0.2667
     27 C           2.4147   -0.3494   22.3080 C.3     1  UNL1        0.0978
     28 C           2.6946   -0.1365   23.7662 C.3     1  UNL1        0.0224
     29 C           3.6770   -1.0187   24.4779 C.3     1  UNL1        0.0065
     30 C           4.3795   -2.1138   23.7315 C.3     1  UNL1        0.0277
     31 C           4.0996   -2.3268   22.2733 C.ar    1  UNL1       -0.0073
     32 C           4.8021   -3.4219   21.5269 C.ar    1  UNL1       -0.0015
     33 C           4.5222   -3.6348   20.0688 C.ar    1  UNL1        0.0203
     34 C           3.5398   -2.7526   19.3570 C.ar    1  UNL1        0.0985
     35 N           2.8373   -1.6575   20.1034 N.ar    1  UNL1       -0.2471
     36 C           3.1172   -1.4446   21.5615 C.ar    1  UNL1        0.0695
@<TRIPOS>BOND
     1    25    26    1
     2    26    24    1
     3     1    24    1
     4     1     2    1
     5     2     3    1
     6     3     4   ar
     7     4     5   ar
     8     5     6   ar
     9     6     7   ar
    10     7     8   ar
    11     8    12    1
    12    12    13    1
    13    13    14    1
    14    14    15    1
    15    15    18    1
    16    18    19   ar
    17    19    20   ar
    18    20    21   ar
    19    21    22   ar
    20    22    23   ar
    21    15    16    1
    22    16    17    1
    23     4     9    1
    24     9    10    1
    25    27    26    1
    26    27    28    1
    27    28    29    1
    28    29    30    1
    29    30    31    1
    30    31    32   ar
    31    32    33   ar
    32    33    34   ar
    33    34    35   ar
    34    35    36   ar
    35    10     1    1
    36    36    27    1
    37     8     3   ar
    38    17    12    1
    39    36    31   ar
    40    23    18   ar
    41    10    11    1
@<TRIPOS>MOLECULE
*****
 36 41 0 0 0
SMALL
GASTEIGER

@<TRIPOS>ATOM
      1 C           5.5474   -2.4324   27.8262 C.3     1  UNL1        0.0749
      2 C           5.8070   -2.5942   29.2946 C.3     1  UNL1        0.0444
      3 C           6.5715   -3.7840   29.7944 C.ar    1  UNL1       -0.0101
      4 C           7.0764   -4.8120   28.8258 C.ar    1  UNL1       -0.0091
      5 C           7.8409   -6.0019   29.3257 C.ar    1  UNL1       -0.0032
      6 C           8.1005   -6.1636   30.7942 C.ar    1  UNL1        0.0010
      7 C           7.5956   -5.1356   31.7628 C.ar    1  UNL1        0.0142
      8 C           6.8311   -3.9458   31.2630 C.ar    1  UNL1        0.0437
      9 C           6.8168   -4.6503   27.3574 C.3     1  UNL1        0.0954
     10 N           6.0523   -3.4605   26.8575 N.3     1  UNL1       -0.2934
     11 H           5.2381   -3.8213   26.3602 H       1  UNL1        0.1236
     12 N           6.3263   -2.9177   32.2316 N.pl3   1  UNL1       -0.3043
     13 C           7.1873   -1.7451   32.5972 C.3     1  UNL1        0.1123
     14 C           6.6824   -0.7170   33.5659 C.3     1  UNL1        0.1136
     15 N           5.3165   -0.8616   34.1688 N.pl3   1  UNL1       -0.2897
     16 C           4.4556   -2.0342   33.8031 C.3     1  UNL1        0.1136
     17 C           4.9604   -3.0623   32.8345 C.3     1  UNL1        0.1123
     18 C           4.8116    0.1664   35.1374 C.ar    1  UNL1        0.1318
     19 C           4.2509    1.4623   34.6312 C.ar    1  UNL1        0.0343
     20 C           3.7460    2.4904   35.5998 C.ar    1  UNL1        0.0045
     21 C           3.8018    2.2225   37.0747 C.ar    1  UNL1        0.0208
     22 C           4.3626    0.9266   37.5808 C.ar    1  UNL1        0.1003
     23 N           4.8675   -0.1014   36.6122 N.ar    1  UNL1       -0.2292
     24 C           4.7828   -1.2426   27.3263 C.3     1  UNL1        0.0886
     25 C           6.4963    0.2734   26.0950 C.3     1  UNL1        0.0899
     26 N           5.2305   -0.5315   26.0837 N.3     1  UNL1       -0.2667
     27 C           4.4124   -0.6251   24.8300 C.3     1  UNL1        0.0978
     28 C           3.2951    0.3462   24.5891 C.3     1  UNL1        0.0224
     29 C           2.4770    0.2525   23.3353 C.3     1  UNL1        0.0065
     30 C           2.7763   -0.8125   22.3224 C.3     1  UNL1        0.0277
     31 C           3.8937   -1.7839   22.5632 C.ar    1  UNL1       -0.0073
     32 C           4.1929   -2.8490   21.5502 C.ar    1  UNL1       -0.0015
     33 C           5.3103   -3.8203   21.7911 C.ar    1  UNL1        0.0203
     34 C           6.1283   -3.7266   23.0449 C.ar    1  UNL1        0.0985
     35 N           5.8291   -2.6616   24.0578 N.ar    1  UNL1       -0.2471
     36 C           4.7117   -1.6903   23.8170 C.ar    1  UNL1        0.0695
@<TRIPOS>BOND
     1    25    26    1
     2    26    24    1
     3     1    24    1
     4     1     2    1
     5     2     3    1
     6     3     4   ar
     7     4     5   ar
     8     5     6   ar
     9     6     7   ar
    10     7     8   ar
    11     8    12    1
    12    12    13    1
    13    13    14    1
    14    14    15    1
    15    15    18    1
    16    18    19   ar
    17    19    20   ar
    18    20    21   ar
    19    21    22   ar
    20    22    23   ar
    21    15    16    1
    22    16    17    1
    23     4     9    1
    24     9    10    1
    25    27    26    1
    26    27    28    1
    27    28    29    1
    28    29    30    1
    29    30    31    1
    30    31    32   ar
    31    32    33   ar
    32    33    34   ar
    33    34    35   ar
    34    35    36   ar
    35    10     1    1
    36    36    27    1
    37     8     3   ar
    38    17    12    1
    39    36    31   ar
    40    23    18   ar
    41    10    11    1
@<TRIPOS>MOLECULE
*****
 36 41 0 0 0
SMALL
GASTEIGER

@<TRIPOS>ATOM
      1 C           1.1548    0.5817   20.8674 C.3     1  UNL1        0.0749
      2 C           2.4251   -0.2039   21.0051 C.3     1  UNL1        0.0444
      3 C           3.2350   -0.5395   19.7879 C.ar    1  UNL1       -0.0101
      4 C           2.7744   -0.0896   18.4331 C.ar    1  UNL1       -0.0091
      5 C           3.5843   -0.4253   17.2159 C.ar    1  UNL1       -0.0032
      6 C           4.8547   -1.2109   17.3536 C.ar    1  UNL1        0.0010
      7 C           5.3153   -1.6608   18.7084 C.ar    1  UNL1        0.0142
      8 C           4.5054   -1.3251   19.9256 C.ar    1  UNL1        0.0437
      9 C           1.5040    0.6959   18.2954 C.3     1  UNL1        0.0954
     10 N           0.6942    1.0316   19.5126 N.3     1  UNL1       -0.2934
     11 H          -0.2330    0.6314   19.3689 H       1  UNL1        0.1236
     12 N           4.9660   -1.7750   21.2804 N.pl3   1  UNL1       -0.3043
     13 C           4.4733   -3.0736   21.8470 C.3     1  UNL1        0.1123
     14 C           4.9339   -3.5235   23.2018 C.3     1  UNL1        0.1136
     15 N           5.8871   -2.6748   23.9900 N.pl3   1  UNL1       -0.2897
     16 C           6.3797   -1.3762   23.4233 C.3     1  UNL1        0.1136
     17 C           5.9191   -0.9263   22.0685 C.3     1  UNL1        0.1123
     18 C           6.3476   -3.1246   25.3448 C.ar    1  UNL1        0.1318
     19 C           7.1664   -4.3740   25.4820 C.ar    1  UNL1        0.0343
     20 C           7.6269   -4.8239   26.8368 C.ar    1  UNL1        0.0045
     21 C           7.2687   -4.0244   28.0544 C.ar    1  UNL1        0.0208
     22 C           6.4500   -2.7751   27.9172 C.ar    1  UNL1        0.1003
     23 N           5.9895   -2.3252   26.5624 N.ar    1  UNL1       -0.2292
     24 C           0.3448    0.9174   22.0845 C.3     1  UNL1        0.0886
     25 C           1.6371    3.1369   22.4766 C.3     1  UNL1        0.0899
     26 N           0.7920    2.0152   23.0036 N.3     1  UNL1       -0.2667
     27 C           0.3941    1.9915   24.4497 C.3     1  UNL1        0.0978
     28 C          -0.8605    2.6834   24.8938 C.3     1  UNL1        0.0224
     29 C          -1.2584    2.6596   26.3398 C.3     1  UNL1        0.0065
     30 C          -0.4018    1.9440   27.3418 C.3     1  UNL1        0.0277
     31 C           0.8529    1.2521   26.8977 C.ar    1  UNL1       -0.0073
     32 C           1.7096    0.5365   27.8997 C.ar    1  UNL1       -0.0015
     33 C           2.9642   -0.1553   27.4556 C.ar    1  UNL1        0.0203
     34 C           3.3621   -0.1316   26.0095 C.ar    1  UNL1        0.0985
     35 N           2.5054    0.5840   25.0075 N.ar    1  UNL1       -0.2471
     36 C           1.2508    1.2759   25.4516 C.ar    1  UNL1        0.0695
@<TRIPOS>BOND
     1    25    26    1
     2    26    24    1
     3     1    24    1
     4     1     2    1
     5     2     3    1
     6     3     4   ar
     7     4     5   ar
     8     5     6   ar
     9     6     7   ar
    10     7     8   ar
    11     8    12    1
    12    12    13    1
    13    13    14    1
    14    14    15    1
    15    15    18    1
    16    18    19   ar
    17    19    20   ar
    18    20    21   ar
    19    21    22   ar
    20    22    23   ar
    21    15    16    1
    22    16    17    1
    23     4     9    1
    24     9    10    1
    25    27    26    1
    26    27    28    1
    27    28    29    1
    28    29    30    1
    29    30    31    1
    30    31    32   ar
    31    32    33   ar
    32    33    34   ar
    33    34    35   ar
    34    35    36   ar
    35    10     1    1
    36    36    27    1
    37     8     3   ar
    38    17    12    1
    39    36    31   ar
    40    23    18   ar
    41    10    11    1
