@<TRIPOS>MOLECULE
*****
 37 40 0 0 0
SMALL
GASTEIGER

@<TRIPOS>ATOM
      1 C         -10.0224  -19.6706   22.8600 C.3     1  UNL1        0.0901
      2 C          -9.9858  -20.3196   24.2118 C.3     1  UNL1        0.0884
      3 N         -10.9928  -19.9363   25.2553 N.3     1  UNL1       -0.2961
      4 C         -12.0365  -18.9040   24.9469 C.3     1  UNL1        0.0687
      5 C         -12.0731  -18.2549   23.5951 C.3     1  UNL1        0.0202
      6 C         -11.0660  -18.6383   22.5517 C.3     1  UNL1        0.0367
      7 H         -10.4675  -19.5929   26.0593 H       1  UNL1        0.1233
      8 N          -6.6098  -19.8996   20.8471 N.am    1  UNL1       -0.2485
      9 C          -7.6168  -19.5164   21.8905 C.2     1  UNL1        0.3059
     10 O          -7.2255  -18.5955   23.0082 O.2     1  UNL1       -0.2524
     11 N          -9.0153  -20.0539   21.8165 N.am    1  UNL1       -0.2889
     12 H          -6.8666  -20.5040   20.1136 H       1  UNL1        0.1583
     13 H          -9.2721  -20.6583   21.0830 H       1  UNL1        0.1510
     14 C          -2.9675  -18.6732   20.3037 C.ar    1  UNL1        0.0803
     15 S          -4.2406  -19.2700   19.7813 S.2     1  UNL1       -0.0488
     16 C          -5.2114  -19.3621   20.9211 C.ar    1  UNL1        0.1664
     17 N          -4.5381  -18.8223   22.1480 N.ar    1  UNL1       -0.2282
     18 C          -3.1513  -18.3965   21.7665 C.ar    1  UNL1        0.0701
     19 C          -2.1280  -17.7990   22.6862 C.3     1  UNL1        0.0528
     20 C          -1.8066  -17.5667   18.2598 C.3     1  UNL1        0.0779
     21 C          -1.7281  -18.4010   19.5039 C.2     1  UNL1        0.1807
     22 O          -0.4103  -18.9631   19.9480 O.2     1  UNL1       -0.2908
     23 C         -11.1026  -17.9892   21.1998 C.3     1  UNL1        0.0738
     24 N         -10.3581  -16.7089   20.9622 N.3     1  UNL1       -0.2726
     25 C         -10.8285  -15.7526   19.9065 C.3     1  UNL1        0.0721
     26 C         -10.0840  -14.4723   19.6689 C.3     1  UNL1        0.0174
     27 C          -8.8691  -14.1482   20.4869 C.3     1  UNL1        0.0031
     28 C          -8.3987  -15.1045   21.5425 C.3     1  UNL1        0.0204
     29 C          -9.1432  -16.3848   21.7801 C.3     1  UNL1        0.0724
     30 C          -7.1838  -14.7804   22.3605 C.3     1  UNL1        0.0277
     31 C          -7.1582  -15.1025   23.8253 C.ar    1  UNL1       -0.0220
     32 C          -5.8465  -15.2483   24.5383 C.ar    1  UNL1       -0.0020
     33 C          -5.8209  -15.5704   26.0031 C.ar    1  UNL1        0.0293
     34 C          -7.1070  -15.7467   26.7549 C.ar    1  UNL1        0.1401
     35 F          -7.0814  -16.0688   28.2197 F       1  UNL1       -0.2042
     36 C          -8.4186  -15.6009   26.0419 C.ar    1  UNL1        0.0293
     37 C          -8.4442  -15.2788   24.5771 C.ar    1  UNL1       -0.0020
@<TRIPOS>BOND
     1    20    21    1
     2    21    22    2
     3    21    14    1
     4    14    15   ar
     5    15    16   ar
     6    16     8    1
     7     8     9   am
     8     9    10    2
     9     9    11   am
    10     1    11    1
    11     1     2    1
    12     2     3    1
    13     3     4    1
    14     4     5    1
    15     5     6    1
    16     6    23    1
    17    23    24    1
    18    24    25    1
    19    25    26    1
    20    26    27    1
    21    27    28    1
    22    28    30    1
    23    30    31    1
    24    31    32   ar
    25    32    33   ar
    26    33    34   ar
    27    34    35    1
    28    34    36   ar
    29    36    37   ar
    30    28    29    1
    31    16    17   ar
    32    17    18   ar
    33    18    19    1
    34    18    14   ar
    35     6     1    1
    36    29    24    1
    37    37    31   ar
    38     8    12    1
    39    11    13    1
    40     3     7    1
@<TRIPOS>MOLECULE
*****
 37 40 0 0 0
SMALL
GASTEIGER

@<TRIPOS>ATOM
      1 C         -11.6419   -6.5054   17.4885 C.3     1  UNL1        0.0901
      2 C         -11.2231   -7.9260   17.2512 C.3     1  UNL1        0.0884
      3 N          -9.9821   -8.4608   17.9023 N.3     1  UNL1       -0.2961
      4 C          -9.1600   -7.5749   18.7908 C.3     1  UNL1        0.0687
      5 C          -9.5789   -6.1543   19.0281 C.3     1  UNL1        0.0202
      6 C         -10.8198   -5.6195   18.3769 C.3     1  UNL1        0.0367
      7 H          -9.3681   -8.7761   17.1514 H       1  UNL1        0.1233
      8 N         -15.4739   -5.8737   16.6718 N.am    1  UNL1       -0.2485
      9 C         -14.2329   -6.4085   17.3229 C.2     1  UNL1        0.3059
     10 O         -14.3419   -7.3812   18.4596 O.2     1  UNL1       -0.2524
     11 N         -12.8829   -5.9706   16.8373 N.am    1  UNL1       -0.2889
     12 H         -15.4024   -5.2353   15.9257 H       1  UNL1        0.1583
     13 H         -12.8114   -5.3322   16.0913 H       1  UNL1        0.1510
     14 C         -18.7774   -6.6416   18.5594 C.ar    1  UNL1        0.0803
     15 S         -17.4168   -6.0127   18.5024 S.2     1  UNL1       -0.0488
     16 C         -16.8239   -6.3116   17.1573 C.ar    1  UNL1        0.1664
     17 N         -17.8181   -7.1254   16.3831 N.ar    1  UNL1       -0.2282
     18 C         -19.0254   -7.3293   17.2497 C.ar    1  UNL1        0.0701
     19 C         -20.2633   -8.0878   16.8726 C.3     1  UNL1        0.0528
     20 C         -19.9297   -7.8087   20.5743 C.3     1  UNL1        0.0779
     21 C         -19.7237   -6.5916   19.7221 C.2     1  UNL1        0.1807
     22 O         -20.4640   -5.3246   20.0327 O.2     1  UNL1       -0.2908
     23 C         -11.2387   -4.1988   18.6142 C.3     1  UNL1        0.0738
     24 N         -12.6102   -3.8997   19.1428 N.3     1  UNL1       -0.2726
     25 C         -13.1487   -4.6716   20.3109 C.3     1  UNL1        0.0721
     26 C         -14.5202   -4.3724   20.8396 C.3     1  UNL1        0.0174
     27 C         -15.3533   -3.3013   20.2001 C.3     1  UNL1        0.0031
     28 C         -14.8148   -2.5295   19.0321 C.3     1  UNL1        0.0204
     29 C         -13.4433   -2.8287   18.5035 C.3     1  UNL1        0.0724
     30 C         -15.6479   -1.4584   18.3926 C.3     1  UNL1        0.0277
     31 C         -15.8973   -0.1692   19.1177 C.ar    1  UNL1       -0.0220
     32 C         -16.9003   -0.1171   20.2318 C.ar    1  UNL1       -0.0020
     33 C         -17.1497    1.1722   20.9568 C.ar    1  UNL1        0.0293
     34 C         -16.3959    2.4094   20.5677 C.ar    1  UNL1        0.1401
     35 F         -16.6452    3.6986   21.2927 F       1  UNL1       -0.2042
     36 C         -15.3929    2.3572   19.4536 C.ar    1  UNL1        0.0293
     37 C         -15.1436    1.0680   18.7286 C.ar    1  UNL1       -0.0020
@<TRIPOS>BOND
     1    20    21    1
     2    21    22    2
     3    21    14    1
     4    14    15   ar
     5    15    16   ar
     6    16     8    1
     7     8     9   am
     8     9    10    2
     9     9    11   am
    10     1    11    1
    11     1     2    1
    12     2     3    1
    13     3     4    1
    14     4     5    1
    15     5     6    1
    16     6    23    1
    17    23    24    1
    18    24    25    1
    19    25    26    1
    20    26    27    1
    21    27    28    1
    22    28    30    1
    23    30    31    1
    24    31    32   ar
    25    32    33   ar
    26    33    34   ar
    27    34    35    1
    28    34    36   ar
    29    36    37   ar
    30    28    29    1
    31    16    17   ar
    32    17    18   ar
    33    18    19    1
    34    18    14   ar
    35     6     1    1
    36    29    24    1
    37    37    31   ar
    38     8    12    1
    39    11    13    1
    40     3     7    1
@<TRIPOS>MOLECULE
*****
 37 40 0 0 0
SMALL
GASTEIGER

@<TRIPOS>ATOM
      1 C           8.5504   -5.4742   26.7768 C.3     1  UNL1        0.0901
      2 C           8.6325   -6.8437   27.3832 C.3     1  UNL1        0.0884
      3 N           8.5027   -8.0583   26.5128 N.3     1  UNL1       -0.2961
      4 C           8.2908   -7.9035   25.0359 C.3     1  UNL1        0.0687
      5 C           8.2087   -6.5341   24.4295 C.3     1  UNL1        0.0202
      6 C           8.3385   -5.3194   25.3000 C.3     1  UNL1        0.0367
      7 H           7.7106   -8.5929   26.8695 H       1  UNL1        0.1233
      8 N           7.6660   -2.6223   29.3911 N.am    1  UNL1       -0.2485
      9 C           7.5362   -3.8369   28.5206 C.2     1  UNL1        0.3059
     10 O           6.2624   -4.6291   28.5235 O.2     1  UNL1       -0.2524
     11 N           8.6802   -4.2595   27.6473 N.am    1  UNL1       -0.2889
     12 H           8.5020   -2.1024   29.3892 H       1  UNL1        0.1583
     13 H           9.5162   -3.7396   27.6454 H       1  UNL1        0.1510
     14 C           5.0729   -1.9073   32.1894 C.ar    1  UNL1        0.0803
     15 S           6.3534   -2.5302   31.7178 S.2     1  UNL1       -0.0488
     16 C           6.5220   -2.1997   30.2644 C.ar    1  UNL1        0.1664
     17 N           5.3457   -1.3725   29.8377 N.ar    1  UNL1       -0.2282
     18 C           4.4502   -1.1917   31.0274 C.ar    1  UNL1        0.0701
     19 C           3.1586   -0.4293   31.0509 C.3     1  UNL1        0.0528
     20 C           4.8754   -0.9421   34.5933 C.3     1  UNL1        0.0779
     21 C           4.5135   -1.9860   33.5789 C.2     1  UNL1        0.1807
     22 O           3.5922   -3.1087   33.9540 O.2     1  UNL1       -0.2908
     23 C           8.2564   -3.9499   24.6936 C.3     1  UNL1        0.0738
     24 N           6.9265   -3.3892   24.2847 N.3     1  UNL1       -0.2726
     25 C           6.2724   -2.3267   25.1175 C.3     1  UNL1        0.0721
     26 C           4.9426   -1.7661   24.7086 C.3     1  UNL1        0.0174
     27 C           4.2668   -2.2679   23.4670 C.3     1  UNL1        0.0031
     28 C           4.9209   -3.3302   22.6343 C.3     1  UNL1        0.0204
     29 C           6.2508   -3.8909   23.0431 C.3     1  UNL1        0.0724
     30 C           4.2451   -3.8320   21.3926 C.3     1  UNL1        0.0277
     31 C           4.2563   -3.0003   20.1444 C.ar    1  UNL1       -0.0220
     32 C           3.1974   -1.9603   19.9266 C.ar    1  UNL1       -0.0020
     33 C           3.2086   -1.1286   18.6783 C.ar    1  UNL1        0.0293
     34 C           4.2786   -1.3368   17.6479 C.ar    1  UNL1        0.1401
     35 F           4.2898   -0.5051   16.3996 F       1  UNL1       -0.2042
     36 C           5.3374   -2.3768   17.8657 C.ar    1  UNL1        0.0293
     37 C           5.3262   -3.2085   19.1139 C.ar    1  UNL1       -0.0020
@<TRIPOS>BOND
     1    20    21    1
     2    21    22    2
     3    21    14    1
     4    14    15   ar
     5    15    16   ar
     6    16     8    1
     7     8     9   am
     8     9    10    2
     9     9    11   am
    10     1    11    1
    11     1     2    1
    12     2     3    1
    13     3     4    1
    14     4     5    1
    15     5     6    1
    16     6    23    1
    17    23    24    1
    18    24    25    1
    19    25    26    1
    20    26    27    1
    21    27    28    1
    22    28    30    1
    23    30    31    1
    24    31    32   ar
    25    32    33   ar
    26    33    34   ar
    27    34    35    1
    28    34    36   ar
    29    36    37   ar
    30    28    29    1
    31    16    17   ar
    32    17    18   ar
    33    18    19    1
    34    18    14   ar
    35     6     1    1
    36    29    24    1
    37    37    31   ar
    38     8    12    1
    39    11    13    1
    40     3     7    1
@<TRIPOS>MOLECULE
*****
 37 40 0 0 0
SMALL
GASTEIGER

@<TRIPOS>ATOM
      1 C          -1.6124  -16.6583   20.8314 C.3     1  UNL1        0.0901
      2 C          -0.1570  -16.7295   21.1873 C.3     1  UNL1        0.0884
      3 N           0.7072  -17.8050   20.5987 N.3     1  UNL1       -0.2961
      4 C           0.1160  -18.8093   19.6543 C.3     1  UNL1        0.0687
      5 C          -1.3394  -18.7380   19.2984 C.3     1  UNL1        0.0202
      6 C          -2.2036  -17.6625   19.8870 C.3     1  UNL1        0.0367
      7 H           1.0971  -18.3305   21.3811 H       1  UNL1        0.1233
      8 N          -4.4132  -14.8630   22.9953 N.am    1  UNL1       -0.2485
      9 C          -3.5490  -15.9384   22.4068 C.2     1  UNL1        0.3059
     10 O          -3.7569  -17.3696   22.8050 O.2     1  UNL1       -0.2524
     11 N          -2.4767  -15.5828   21.4199 N.am    1  UNL1       -0.2889
     12 H          -4.2767  -13.9237   22.7339 H       1  UNL1        0.1583
     13 H          -2.3402  -14.6435   21.1585 H       1  UNL1        0.1510
     14 C          -7.5670  -16.0175   24.9412 C.ar    1  UNL1        0.0803
     15 S          -6.8139  -15.8346   23.6569 S.2     1  UNL1       -0.0488
     16 C          -5.4854  -15.2186   23.9821 C.ar    1  UNL1        0.1664
     17 N          -5.4175  -15.0207   25.4675 N.ar    1  UNL1       -0.2282
     18 C          -6.7040  -15.5144   26.0602 C.ar    1  UNL1        0.0701
     19 C          -7.0641  -15.5065   27.5163 C.3     1  UNL1        0.0528
     20 C         -10.0065  -16.2612   24.0814 C.3     1  UNL1        0.0779
     21 C          -8.9417  -16.6009   25.0818 C.2     1  UNL1        0.1807
     22 O          -9.2516  -17.5239   26.2227 O.2     1  UNL1       -0.2908
     23 C          -3.6591  -17.5913   19.5311 C.3     1  UNL1        0.0738
     24 N          -4.5448  -18.7812   19.7539 N.3     1  UNL1       -0.2726
     25 C          -3.9393  -20.1268   20.0237 C.3     1  UNL1        0.0721
     26 C          -4.8250  -21.3167   20.2465 C.3     1  UNL1        0.0174
     27 C          -6.3162  -21.1610   20.1996 C.3     1  UNL1        0.0031
     28 C          -6.9216  -19.8154   19.9298 C.3     1  UNL1        0.0204
     29 C          -6.0359  -18.6255   19.7070 C.3     1  UNL1        0.0724
     30 C          -8.4128  -19.6597   19.8829 C.3     1  UNL1        0.0277
     31 C          -9.2053  -19.6405   21.1563 C.ar    1  UNL1       -0.0220
     32 C          -8.5345  -19.9497   22.4619 C.ar    1  UNL1       -0.0020
     33 C          -9.3270  -19.9305   23.7353 C.ar    1  UNL1        0.0293
     34 C         -10.7903  -19.6020   23.7031 C.ar    1  UNL1        0.1401
     35 F         -11.5828  -19.5828   24.9765 F       1  UNL1       -0.2042
     36 C         -11.4610  -19.2928   22.3976 C.ar    1  UNL1        0.0293
     37 C         -10.6685  -19.3120   21.1242 C.ar    1  UNL1       -0.0020
@<TRIPOS>BOND
     1    20    21    1
     2    21    22    2
     3    21    14    1
     4    14    15   ar
     5    15    16   ar
     6    16     8    1
     7     8     9   am
     8     9    10    2
     9     9    11   am
    10     1    11    1
    11     1     2    1
    12     2     3    1
    13     3     4    1
    14     4     5    1
    15     5     6    1
    16     6    23    1
    17    23    24    1
    18    24    25    1
    19    25    26    1
    20    26    27    1
    21    27    28    1
    22    28    30    1
    23    30    31    1
    24    31    32   ar
    25    32    33   ar
    26    33    34   ar
    27    34    35    1
    28    34    36   ar
    29    36    37   ar
    30    28    29    1
    31    16    17   ar
    32    17    18   ar
    33    18    19    1
    34    18    14   ar
    35     6     1    1
    36    29    24    1
    37    37    31   ar
    38     8    12    1
    39    11    13    1
    40     3     7    1
@<TRIPOS>MOLECULE
*****
 37 40 0 0 0
SMALL
GASTEIGER

@<TRIPOS>ATOM
      1 C           7.6210   -4.5189   26.1881 C.3     1  UNL1        0.0901
      2 C           7.0223   -5.8500   26.5341 C.3     1  UNL1        0.0884
      3 N           6.4411   -6.0792   27.8978 N.3     1  UNL1       -0.2961
      4 C           6.4588   -4.9774   28.9155 C.3     1  UNL1        0.0687
      5 C           7.0575   -3.6464   28.5695 C.3     1  UNL1        0.0202
      6 C           7.6386   -3.4171   27.2058 C.3     1  UNL1        0.0367
      7 H           6.9480   -6.8648   28.3056 H       1  UNL1        0.1233
      8 N           7.8768   -3.8249   22.2890 N.am    1  UNL1       -0.2485
      9 C           7.2957   -4.0542   23.6527 C.2     1  UNL1        0.3059
     10 O           5.8080   -4.0481   23.8448 O.2     1  UNL1       -0.2524
     11 N           8.2022   -4.2896   24.8244 N.am    1  UNL1       -0.2889
     12 H           8.8532   -3.8289   22.1630 H       1  UNL1        0.1583
     13 H           9.1786   -4.2936   24.6983 H       1  UNL1        0.1510
     14 C           5.9310   -2.5834   19.1684 C.ar    1  UNL1        0.0803
     15 S           7.0131   -2.4093   20.1925 S.2     1  UNL1       -0.0488
     16 C           6.9702   -3.5895   21.1173 C.ar    1  UNL1        0.1664
     17 N           5.8617   -4.4930   20.6647 N.ar    1  UNL1       -0.2282
     18 C           5.2194   -3.8712   19.4602 C.ar    1  UNL1        0.0701
     19 C           4.0678   -4.4377   18.6838 C.3     1  UNL1        0.0528
     20 C           4.2151   -1.1323   17.8646 C.3     1  UNL1        0.0779
     21 C           5.6159   -1.6359   18.0490 C.2     1  UNL1        0.1807
     22 O           6.7016   -1.1922   17.1140 O.2     1  UNL1       -0.2908
     23 C           8.2374   -2.0860   26.8598 C.3     1  UNL1        0.0738
     24 N           7.4657   -1.1122   26.0194 N.3     1  UNL1       -0.2726
     25 C           8.1800    0.0078   25.3226 C.3     1  UNL1        0.0721
     26 C           7.4084    0.9817   24.4823 C.3     1  UNL1        0.0174
     27 C           5.9224    0.8355   24.3387 C.3     1  UNL1        0.0031
     28 C           5.2081   -0.2845   25.0354 C.3     1  UNL1        0.0204
     29 C           5.9798   -1.2583   25.8758 C.3     1  UNL1        0.0724
     30 C           3.7222   -0.4307   24.8918 C.3     1  UNL1        0.0277
     31 C           3.0987   -0.4488   23.5277 C.ar    1  UNL1       -0.0220
     32 C           2.0394    0.5527   23.1739 C.ar    1  UNL1       -0.0020
     33 C           1.4159    0.5346   21.8097 C.ar    1  UNL1        0.0293
     34 C           1.8517   -0.4848   20.7993 C.ar    1  UNL1        0.1401
     35 F           1.2283   -0.5028   19.4352 F       1  UNL1       -0.2042
     36 C           2.9110   -1.4862   21.1531 C.ar    1  UNL1        0.0293
     37 C           3.5345   -1.4681   22.5173 C.ar    1  UNL1       -0.0020
@<TRIPOS>BOND
     1    20    21    1
     2    21    22    2
     3    21    14    1
     4    14    15   ar
     5    15    16   ar
     6    16     8    1
     7     8     9   am
     8     9    10    2
     9     9    11   am
    10     1    11    1
    11     1     2    1
    12     2     3    1
    13     3     4    1
    14     4     5    1
    15     5     6    1
    16     6    23    1
    17    23    24    1
    18    24    25    1
    19    25    26    1
    20    26    27    1
    21    27    28    1
    22    28    30    1
    23    30    31    1
    24    31    32   ar
    25    32    33   ar
    26    33    34   ar
    27    34    35    1
    28    34    36   ar
    29    36    37   ar
    30    28    29    1
    31    16    17   ar
    32    17    18   ar
    33    18    19    1
    34    18    14   ar
    35     6     1    1
    36    29    24    1
    37    37    31   ar
    38     8    12    1
    39    11    13    1
    40     3     7    1
@<TRIPOS>MOLECULE
*****
 37 40 0 0 0
SMALL
GASTEIGER

@<TRIPOS>ATOM
      1 C           8.4180   -4.7172   26.2184 C.3     1  UNL1        0.0901
      2 C           9.3788   -5.7029   26.8144 C.3     1  UNL1        0.0884
      3 N           9.5343   -7.0631   26.2014 N.3     1  UNL1       -0.2961
      4 C           8.7291   -7.4375   24.9925 C.3     1  UNL1        0.0687
      5 C           7.7683   -6.4517   24.3966 C.3     1  UNL1        0.0202
      6 C           7.6128   -5.0916   25.0096 C.3     1  UNL1        0.0367
      7 H           9.3069   -7.7414   26.9283 H       1  UNL1        0.1233
      8 N           7.0234   -1.7474   28.4513 N.am    1  UNL1       -0.2485
      9 C           7.1790   -3.1076   27.8383 C.2     1  UNL1        0.3059
     10 O           6.2511   -4.2184   28.2323 O.2     1  UNL1       -0.2524
     11 N           8.2624   -3.3570   26.8314 N.am    1  UNL1       -0.2889
     12 H           7.6324   -1.0184   28.1928 H       1  UNL1        0.1583
     13 H           8.8715   -2.6279   26.5729 H       1  UNL1        0.1510
     14 C           4.7017   -1.4154   31.5441 C.ar    1  UNL1        0.0803
     15 S           5.9974   -1.8387   30.9179 S.2     1  UNL1       -0.0488
     16 C           5.9399   -1.4981   29.4582 C.ar    1  UNL1        0.1664
     17 N           4.6087   -0.8642   29.1823 N.ar    1  UNL1       -0.2282
     18 C           3.8434   -0.8131   30.4714 C.ar    1  UNL1        0.0701
     19 C           2.4624   -0.2574   30.6555 C.3     1  UNL1        0.0528
     20 C           4.3695   -0.3790   33.9032 C.3     1  UNL1        0.0779
     21 C           4.3296   -1.5677   32.9892 C.2     1  UNL1        0.1807
     22 O           3.9178   -2.9086   33.5203 O.2     1  UNL1       -0.2908
     23 C           6.6519   -4.1057   24.4137 C.3     1  UNL1        0.0738
     24 N           6.7135   -3.7902   22.9485 N.3     1  UNL1       -0.2726
     25 C           8.0266   -3.4466   22.3099 C.3     1  UNL1        0.0721
     26 C           8.0882   -3.1311   20.8447 C.3     1  UNL1        0.0174
     27 C           6.8367   -3.1590   20.0182 C.3     1  UNL1        0.0031
     28 C           5.5237   -3.5026   20.6569 C.3     1  UNL1        0.0204
     29 C           5.4621   -3.8181   22.1220 C.3     1  UNL1        0.0724
     30 C           4.2722   -3.5306   19.8304 C.3     1  UNL1        0.0277
     31 C           3.6411   -2.2460   19.3813 C.ar    1  UNL1       -0.0220
     32 C           4.0338   -1.6364   18.0681 C.ar    1  UNL1       -0.0020
     33 C           3.4027   -0.3519   17.6190 C.ar    1  UNL1        0.0293
     34 C           2.3790    0.3231   18.4831 C.ar    1  UNL1        0.1401
     35 F           1.7480    1.6077   18.0340 F       1  UNL1       -0.2042
     36 C           1.9865   -0.2865   19.7962 C.ar    1  UNL1        0.0293
     37 C           2.6175   -1.5710   20.2453 C.ar    1  UNL1       -0.0020
@<TRIPOS>BOND
     1    20    21    1
     2    21    22    2
     3    21    14    1
     4    14    15   ar
     5    15    16   ar
     6    16     8    1
     7     8     9   am
     8     9    10    2
     9     9    11   am
    10     1    11    1
    11     1     2    1
    12     2     3    1
    13     3     4    1
    14     4     5    1
    15     5     6    1
    16     6    23    1
    17    23    24    1
    18    24    25    1
    19    25    26    1
    20    26    27    1
    21    27    28    1
    22    28    30    1
    23    30    31    1
    24    31    32   ar
    25    32    33   ar
    26    33    34   ar
    27    34    35    1
    28    34    36   ar
    29    36    37   ar
    30    28    29    1
    31    16    17   ar
    32    17    18   ar
    33    18    19    1
    34    18    14   ar
    35     6     1    1
    36    29    24    1
    37    37    31   ar
    38     8    12    1
    39    11    13    1
    40     3     7    1
@<TRIPOS>MOLECULE
*****
 37 40 0 0 0
SMALL
GASTEIGER

@<TRIPOS>ATOM
      1 C           7.3739   -6.1866   26.6149 C.3     1  UNL1        0.0901
      2 C           6.9163   -7.6001   26.4089 C.3     1  UNL1        0.0884
      3 N           7.6527   -8.7300   27.0654 N.3     1  UNL1       -0.2961
      4 C           8.8467   -8.4463   27.9279 C.3     1  UNL1        0.0687
      5 C           9.3043   -7.0327   28.1339 C.3     1  UNL1        0.0202
      6 C           8.5679   -5.9029   27.4773 C.3     1  UNL1        0.0367
      7 H           7.9692   -9.3485   26.3187 H       1  UNL1        0.1233
      8 N           5.9584   -3.7592   23.8123 N.am    1  UNL1       -0.2485
      9 C           6.6948   -4.8891   24.4688 C.2     1  UNL1        0.3059
     10 O           7.4886   -5.8514   23.6359 O.2     1  UNL1       -0.2524
     11 N           6.6374   -5.0566   25.9583 N.am    1  UNL1       -0.2889
     12 H           5.4375   -3.1276   24.3590 H       1  UNL1        0.1583
     13 H           6.1165   -4.4250   26.5051 H       1  UNL1        0.1510
     14 C           6.6993   -2.8834   20.1042 C.ar    1  UNL1        0.0803
     15 S           7.0126   -2.7645   21.5663 S.2     1  UNL1       -0.0488
     16 C           6.0158   -3.5916   22.3228 C.ar    1  UNL1        0.1664
     17 N           5.0865   -4.2218   21.3282 N.ar    1  UNL1       -0.2282
     18 C           5.5089   -3.7841   19.9571 C.ar    1  UNL1        0.0701
     19 C           4.8556   -4.1780   18.6655 C.3     1  UNL1        0.0528
     20 C           6.7670   -1.1763   18.1470 C.3     1  UNL1        0.0779
     21 C           7.4454   -2.2184   18.9857 C.2     1  UNL1        0.1807
     22 O           8.8700   -2.5956   18.7060 O.2     1  UNL1       -0.2908
     23 C           9.0255   -4.4892   27.6833 C.3     1  UNL1        0.0738
     24 N           8.1319   -3.5055   28.3788 N.3     1  UNL1       -0.2726
     25 C           7.8336   -2.1813   27.7402 C.3     1  UNL1        0.0721
     26 C           6.9401   -1.1976   28.4358 C.3     1  UNL1        0.0174
     27 C           6.3447   -1.5380   29.7699 C.3     1  UNL1        0.0031
     28 C           6.6430   -2.8622   30.4084 C.3     1  UNL1        0.0204
     29 C           7.5365   -3.8459   29.7128 C.3     1  UNL1        0.0724
     30 C           6.0476   -3.2026   31.7425 C.3     1  UNL1        0.0277
     31 C           6.0030   -2.1698   32.8294 C.ar    1  UNL1       -0.0220
     32 C           4.7219   -1.9102   33.5652 C.ar    1  UNL1       -0.0020
     33 C           4.6773   -0.8775   34.6521 C.ar    1  UNL1        0.0293
     34 C           5.9138   -0.1043   35.0032 C.ar    1  UNL1        0.1401
     35 F           5.8692    0.9285   36.0901 F       1  UNL1       -0.2042
     36 C           7.1949   -0.3639   34.2674 C.ar    1  UNL1        0.0293
     37 C           7.2395   -1.3966   33.1805 C.ar    1  UNL1       -0.0020
@<TRIPOS>BOND
     1    20    21    1
     2    21    22    2
     3    21    14    1
     4    14    15   ar
     5    15    16   ar
     6    16     8    1
     7     8     9   am
     8     9    10    2
     9     9    11   am
    10     1    11    1
    11     1     2    1
    12     2     3    1
    13     3     4    1
    14     4     5    1
    15     5     6    1
    16     6    23    1
    17    23    24    1
    18    24    25    1
    19    25    26    1
    20    26    27    1
    21    27    28    1
    22    28    30    1
    23    30    31    1
    24    31    32   ar
    25    32    33   ar
    26    33    34   ar
    27    34    35    1
    28    34    36   ar
    29    36    37   ar
    30    28    29    1
    31    16    17   ar
    32    17    18   ar
    33    18    19    1
    34    18    14   ar
    35     6     1    1
    36    29    24    1
    37    37    31   ar
    38     8    12    1
    39    11    13    1
    40     3     7    1
@<TRIPOS>MOLECULE
*****
 37 40 0 0 0
SMALL
GASTEIGER

@<TRIPOS>ATOM
      1 C           7.1513   -4.4796   26.6071 C.3     1  UNL1        0.0901
      2 C           6.8097   -5.8654   27.0684 C.3     1  UNL1        0.0884
      3 N           7.8024   -6.6554   27.8687 N.3     1  UNL1       -0.2961
      4 C           9.1367   -6.0596   28.2076 C.3     1  UNL1        0.0687
      5 C           9.4782   -4.6738   27.7462 C.3     1  UNL1        0.0202
      6 C           8.4855   -3.8838   26.9460 C.3     1  UNL1        0.0367
      7 H           7.9866   -7.5121   27.3465 H       1  UNL1        0.1233
      8 N           5.1316   -3.0318   23.5127 N.am    1  UNL1       -0.2485
      9 C           6.1243   -3.8218   24.3130 C.2     1  UNL1        0.3059
     10 O           7.0828   -4.7440   23.6195 O.2     1  UNL1       -0.2524
     11 N           6.1585   -3.6896   25.8068 N.am    1  UNL1       -0.2889
     12 H           4.5026   -2.4265   23.9679 H       1  UNL1        0.1583
     13 H           5.5295   -3.0843   26.2620 H       1  UNL1        0.1510
     14 C           5.2741   -2.6566   19.6521 C.ar    1  UNL1        0.0803
     15 S           5.4484   -2.0916   21.0306 S.2     1  UNL1       -0.0488
     16 C           5.0974   -3.1640   22.0190 C.ar    1  UNL1        0.1664
     17 N           4.7061   -4.3918   21.2512 N.ar    1  UNL1       -0.2282
     18 C           4.8153   -4.0782   19.7884 C.ar    1  UNL1        0.0701
     19 C           4.5179   -5.0208   18.6601 C.3     1  UNL1        0.0528
     20 C           4.5718   -0.8487   17.9235 C.3     1  UNL1        0.0779
     21 C           5.5161   -1.9279   18.3635 C.2     1  UNL1        0.1807
     22 O           6.7022   -2.2785   17.5150 O.2     1  UNL1       -0.2908
     23 C           8.8270   -2.4979   26.4846 C.3     1  UNL1        0.0738
     24 N           8.1287   -1.3141   27.0854 N.3     1  UNL1       -0.2726
     25 C           7.4830   -0.2933   26.1960 C.3     1  UNL1        0.0721
     26 C           6.7847    0.8906   26.7968 C.3     1  UNL1        0.0174
     27 C           6.7323    1.0536   28.2871 C.3     1  UNL1        0.0031
     28 C           7.3780    0.0328   29.1764 C.3     1  UNL1        0.0204
     29 C           8.0762   -1.1511   28.5756 C.3     1  UNL1        0.0724
     30 C           7.3256    0.1958   30.6667 C.3     1  UNL1        0.0277
     31 C           6.4278   -0.6832   31.4861 C.ar    1  UNL1       -0.0220
     32 C           5.1592   -0.1289   32.0637 C.ar    1  UNL1       -0.0020
     33 C           4.2615   -1.0078   32.8832 C.ar    1  UNL1        0.0293
     34 C           4.6323   -2.4411   33.1250 C.ar    1  UNL1        0.1401
     35 F           3.7346   -3.3200   33.9445 F       1  UNL1       -0.2042
     36 C           5.9009   -2.9953   32.5474 C.ar    1  UNL1        0.0293
     37 C           6.7986   -2.1163   31.7280 C.ar    1  UNL1       -0.0020
@<TRIPOS>BOND
     1    20    21    1
     2    21    22    2
     3    21    14    1
     4    14    15   ar
     5    15    16   ar
     6    16     8    1
     7     8     9   am
     8     9    10    2
     9     9    11   am
    10     1    11    1
    11     1     2    1
    12     2     3    1
    13     3     4    1
    14     4     5    1
    15     5     6    1
    16     6    23    1
    17    23    24    1
    18    24    25    1
    19    25    26    1
    20    26    27    1
    21    27    28    1
    22    28    30    1
    23    30    31    1
    24    31    32   ar
    25    32    33   ar
    26    33    34   ar
    27    34    35    1
    28    34    36   ar
    29    36    37   ar
    30    28    29    1
    31    16    17   ar
    32    17    18   ar
    33    18    19    1
    34    18    14   ar
    35     6     1    1
    36    29    24    1
    37    37    31   ar
    38     8    12    1
    39    11    13    1
    40     3     7    1
@<TRIPOS>MOLECULE
*****
 37 40 0 0 0
SMALL
GASTEIGER

@<TRIPOS>ATOM
      1 C           3.6453   -0.5600   30.2848 C.3     1  UNL1        0.0901
      2 C           3.6127    0.0836   31.6393 C.3     1  UNL1        0.0884
      3 N           4.8936    0.3620   32.3684 N.3     1  UNL1       -0.2961
      4 C           6.2072   -0.0031   31.7430 C.3     1  UNL1        0.0687
      5 C           6.2398   -0.6467   30.3885 C.3     1  UNL1        0.0202
      6 C           4.9589   -0.9251   29.6594 C.3     1  UNL1        0.0367
      7 H           4.8414   -0.1371   33.2564 H       1  UNL1        0.1233
      8 N           0.4422   -0.0421   27.9997 N.am    1  UNL1       -0.2485
      9 C           1.7231    0.2363   28.7288 C.2     1  UNL1        0.3059
     10 O           2.3629    1.5895   28.6310 O.2     1  UNL1       -0.2524
     11 N           2.3643   -0.8385   29.5557 N.am    1  UNL1       -0.2889
     12 H           0.0223   -0.9303   28.0638 H       1  UNL1        0.1583
     13 H           1.9444   -1.7266   29.6198 H       1  UNL1        0.1510
     14 C          -1.5747    2.9154   26.4993 C.ar    1  UNL1        0.0803
     15 S          -1.2052    2.0347   27.6560 S.2     1  UNL1       -0.0488
     16 C          -0.1990    1.0327   27.1728 C.ar    1  UNL1        0.1664
     17 N           0.0534    1.2941   25.7175 N.ar    1  UNL1       -0.2282
     18 C          -0.7968    2.4577   25.3012 C.ar    1  UNL1        0.0701
     19 C          -0.8582    3.0582   23.9280 C.3     1  UNL1        0.0528
     20 C          -2.0523    5.4685   26.5579 C.3     1  UNL1        0.0779
     21 C          -2.5506    4.0539   26.5346 C.2     1  UNL1        0.1807
     22 O          -4.0249    3.7779   26.5466 O.2     1  UNL1       -0.2908
     23 C           4.9915   -1.5687   28.3048 C.3     1  UNL1        0.0738
     24 N           4.9119   -0.7213   27.0697 N.3     1  UNL1       -0.2726
     25 C           5.9095    0.3767   26.8480 C.3     1  UNL1        0.0721
     26 C           5.8299    1.2242   25.6129 C.3     1  UNL1        0.0174
     27 C           4.7526    0.9736   24.5995 C.3     1  UNL1        0.0031
     28 C           3.7550   -0.1243   24.8213 C.3     1  UNL1        0.0204
     29 C           3.8347   -0.9718   26.0564 C.3     1  UNL1        0.0724
     30 C           2.6778   -0.3749   23.8080 C.3     1  UNL1        0.0277
     31 C           3.0069   -1.0685   22.5194 C.ar    1  UNL1       -0.0220
     32 C           2.2966   -0.6810   21.2563 C.ar    1  UNL1       -0.0020
     33 C           2.6257   -1.3746   19.9677 C.ar    1  UNL1        0.0293
     34 C           3.6652   -2.4558   19.9422 C.ar    1  UNL1        0.1401
     35 F           3.9944   -3.1495   18.6535 F       1  UNL1       -0.2042
     36 C           4.3755   -2.8433   21.2052 C.ar    1  UNL1        0.0293
     37 C           4.0463   -2.1496   22.4938 C.ar    1  UNL1       -0.0020
@<TRIPOS>BOND
     1    20    21    1
     2    21    22    2
     3    21    14    1
     4    14    15   ar
     5    15    16   ar
     6    16     8    1
     7     8     9   am
     8     9    10    2
     9     9    11   am
    10     1    11    1
    11     1     2    1
    12     2     3    1
    13     3     4    1
    14     4     5    1
    15     5     6    1
    16     6    23    1
    17    23    24    1
    18    24    25    1
    19    25    26    1
    20    26    27    1
    21    27    28    1
    22    28    30    1
    23    30    31    1
    24    31    32   ar
    25    32    33   ar
    26    33    34   ar
    27    34    35    1
    28    34    36   ar
    29    36    37   ar
    30    28    29    1
    31    16    17   ar
    32    17    18   ar
    33    18    19    1
    34    18    14   ar
    35     6     1    1
    36    29    24    1
    37    37    31   ar
    38     8    12    1
    39    11    13    1
    40     3     7    1
