@<TRIPOS>MOLECULE
*****
 26 30 0 0 0
SMALL
GASTEIGER

@<TRIPOS>ATOM
      1 C           2.7558   -0.5279   19.8981 C.ar    1  UNL1        0.0152
      2 C           3.1043    0.7345   19.1666 C.ar    1  UNL1        0.0043
      3 C           2.0717    1.8080   18.9895 C.ar    1  UNL1        0.0369
      4 C           0.6907    1.6192   19.5440 C.ar    1  UNL1        0.1384
      5 C           0.3424    0.3569   20.2755 C.ar    1  UNL1        0.0369
      6 C           1.3749   -0.7167   20.4525 C.ar    1  UNL1        0.0043
      7 O           6.8859   -4.8221   20.6065 O.2     1  UNL1       -0.2734
      8 C           5.8534   -3.7486   20.4294 C.2     1  UNL1        0.2410
      9 N           6.1294   -2.3556   20.9123 N.am    1  UNL1       -0.2062
     10 N           5.0969   -1.2820   20.7352 N.2     1  UNL1       -0.1836
     11 C           3.7883   -1.6015   20.0752 C.2     1  UNL1        0.0763
     12 C           3.5123   -2.9946   19.5923 C.3     1  UNL1        0.0509
     13 C           3.2363   -4.3876   19.1093 C.3     1  UNL1        0.0160
     14 C           4.5448   -4.0681   19.7693 C.3     1  UNL1        0.0841
     15 H           6.9882   -2.1459   21.3455 H       1  UNL1        0.1772
     16 O          -0.3418    2.6927   19.3669 O.3     1  UNL1       -0.4791
     17 C          -1.3060    2.9961   20.4752 C.3     1  UNL1        0.1687
     18 C          -2.7731    3.1076   20.1834 C.3     1  UNL1        0.0609
     19 C          -3.7374    3.4109   21.2917 C.3     1  UNL1        0.0758
     20 N          -3.2345    3.6027   22.6918 N.3     1  UNL1       -0.2737
     21 C          -1.7673    3.4911   22.9836 C.3     1  UNL1        0.0758
     22 C          -0.8031    3.1878   21.8753 C.3     1  UNL1        0.0609
     23 C          -4.1987    3.9060   23.8001 C.3     1  UNL1        0.0575
     24 C          -5.6370    4.3259   23.8694 C.3     1  UNL1        0.0160
     25 C          -5.5622    4.3349   25.3675 C.3     1  UNL1        0.0028
     26 C          -4.1239    3.9150   25.2982 C.3     1  UNL1        0.0160
@<TRIPOS>BOND
     1     7     8    2
     2     8     9   am
     3     9    10    1
     4    10    11    2
     5    11     1    1
     6     1     2   ar
     7     2     3   ar
     8     3     4   ar
     9     4    16    1
    10    16    17    1
    11    17    18    1
    12    18    19    1
    13    19    20    1
    14    20    23    1
    15    23    24    1
    16    24    25    1
    17    25    26    1
    18    20    21    1
    19    21    22    1
    20     4     5   ar
    21     5     6   ar
    22    11    12    1
    23    12    13    1
    24    14    13    1
    25    14     8    1
    26     6     1   ar
    27    14    12    1
    28    22    17    1
    29    26    23    1
    30     9    15    1
@<TRIPOS>MOLECULE
*****
 26 30 0 0 0
SMALL
GASTEIGER

@<TRIPOS>ATOM
      1 C          -2.3345    3.3936   21.5501 C.ar    1  UNL1        0.0152
      2 C          -1.9862    3.2856   20.0951 C.ar    1  UNL1        0.0043
      3 C          -0.5638    3.0532   19.6797 C.ar    1  UNL1        0.0369
      4 C           0.5104    2.9288   20.7193 C.ar    1  UNL1        0.1384
      5 C           0.1621    3.0368   22.1743 C.ar    1  UNL1        0.0369
      6 C          -1.2604    3.2692   22.5897 C.ar    1  UNL1        0.0043
      7 O          -8.0244    4.3232   23.2118 O.2     1  UNL1       -0.2734
      8 C          -6.6020    4.0908   22.7964 C.2     1  UNL1        0.2410
      9 N          -6.2350    4.0956   21.3420 N.am    1  UNL1       -0.2062
     10 N          -4.8125    3.8632   20.9266 N.2     1  UNL1       -0.1836
     11 C          -3.7570    3.6260   21.9655 C.2     1  UNL1        0.0763
     12 C          -4.1239    3.6211   23.4200 C.3     1  UNL1        0.0509
     13 C          -4.4909    3.6163   24.8744 C.3     1  UNL1        0.0160
     14 C          -5.5464    3.8535   23.8354 C.3     1  UNL1        0.0841
     15 H          -6.9278    4.2513   20.6600 H       1  UNL1        0.1772
     16 O           1.9329    2.6964   20.3039 O.3     1  UNL1       -0.4791
     17 C           2.4095    1.3056   20.0059 C.3     1  UNL1        0.1687
     18 C           2.4241    0.2694   21.0902 C.3     1  UNL1        0.0609
     19 C           2.9007   -1.1214   20.7923 C.3     1  UNL1        0.0758
     20 N           3.3628   -1.4758   19.4099 N.3     1  UNL1       -0.2737
     21 C           3.3481   -0.4394   18.3255 C.3     1  UNL1        0.0758
     22 C           2.8715    0.9513   18.6235 C.3     1  UNL1        0.0609
     23 C           3.8394   -2.8664   19.1118 C.3     1  UNL1        0.0575
     24 C           3.2466   -4.2392   19.2309 C.3     1  UNL1        0.0160
     25 C           4.5134   -4.8331   18.6904 C.3     1  UNL1        0.0028
     26 C           5.1063   -3.4604   18.5713 C.3     1  UNL1        0.0160
@<TRIPOS>BOND
     1     7     8    2
     2     8     9   am
     3     9    10    1
     4    10    11    2
     5    11     1    1
     6     1     2   ar
     7     2     3   ar
     8     3     4   ar
     9     4    16    1
    10    16    17    1
    11    17    18    1
    12    18    19    1
    13    19    20    1
    14    20    23    1
    15    23    24    1
    16    24    25    1
    17    25    26    1
    18    20    21    1
    19    21    22    1
    20     4     5   ar
    21     5     6   ar
    22    11    12    1
    23    12    13    1
    24    14    13    1
    25    14     8    1
    26     6     1   ar
    27    14    12    1
    28    22    17    1
    29    26    23    1
    30     9    15    1
@<TRIPOS>MOLECULE
*****
 26 30 0 0 0
SMALL
GASTEIGER

@<TRIPOS>ATOM
      1 C         -13.4436   -1.8621   19.1696 C.ar    1  UNL1        0.0152
      2 C         -13.1645   -0.5443   18.5094 C.ar    1  UNL1        0.0043
      3 C         -14.1831    0.5552   18.5695 C.ar    1  UNL1        0.0369
      4 C         -15.4807    0.3369   19.2897 C.ar    1  UNL1        0.1384
      5 C         -15.7597   -0.9808   19.9498 C.ar    1  UNL1        0.0369
      6 C         -14.7411   -2.0803   19.8898 C.ar    1  UNL1        0.0043
      7 O          -9.3693   -6.2601   18.9293 O.2     1  UNL1       -0.2734
      8 C         -10.3879   -5.1606   18.9893 C.2     1  UNL1        0.2410
      9 N          -9.9650   -3.7350   18.7926 N.am    1  UNL1       -0.2062
     10 N         -10.9836   -2.6355   18.8527 N.2     1  UNL1       -0.1836
     11 C         -12.4250   -2.9616   19.1095 C.2     1  UNL1        0.0763
     12 C         -12.8479   -4.3873   19.3062 C.3     1  UNL1        0.0509
     13 C         -13.2707   -5.8129   19.5029 C.3     1  UNL1        0.0160
     14 C         -11.8293   -5.4868   19.2462 C.3     1  UNL1        0.0841
     15 H          -9.0190   -3.5209   18.6241 H       1  UNL1        0.1772
     16 O         -16.4992    1.4364   19.3498 O.3     1  UNL1       -0.4791
     17 C         -16.6581    2.2440   20.6039 C.3     1  UNL1        0.1687
     18 C         -17.4705    1.7063   21.7443 C.3     1  UNL1        0.0609
     19 C         -17.6293    2.5138   22.9984 C.3     1  UNL1        0.0758
     20 N         -16.9756    3.8591   23.1120 N.3     1  UNL1       -0.2737
     21 C         -16.1631    4.3968   21.9715 C.3     1  UNL1        0.0758
     22 C         -16.0043    3.5893   20.7175 C.3     1  UNL1        0.0609
     23 C         -17.1344    4.6666   24.3660 C.3     1  UNL1        0.0575
     24 C         -16.1921    5.2820   25.3577 C.3     1  UNL1        0.0160
     25 C         -17.3589    5.8087   26.1395 C.3     1  UNL1        0.0028
     26 C         -18.3012    5.1933   25.1478 C.3     1  UNL1        0.0160
@<TRIPOS>BOND
     1     7     8    2
     2     8     9   am
     3     9    10    1
     4    10    11    2
     5    11     1    1
     6     1     2   ar
     7     2     3   ar
     8     3     4   ar
     9     4    16    1
    10    16    17    1
    11    17    18    1
    12    18    19    1
    13    19    20    1
    14    20    23    1
    15    23    24    1
    16    24    25    1
    17    25    26    1
    18    20    21    1
    19    21    22    1
    20     4     5   ar
    21     5     6   ar
    22    11    12    1
    23    12    13    1
    24    14    13    1
    25    14     8    1
    26     6     1   ar
    27    14    12    1
    28    22    17    1
    29    26    23    1
    30     9    15    1
@<TRIPOS>MOLECULE
*****
 26 30 0 0 0
SMALL
GASTEIGER

@<TRIPOS>ATOM
      1 C          -2.3845    3.4209   21.6763 C.ar    1  UNL1        0.0152
      2 C          -2.0432    3.2083   20.2311 C.ar    1  UNL1        0.0043
      3 C          -0.6164    2.9937   19.8212 C.ar    1  UNL1        0.0369
      4 C           0.4692    2.9918   20.8564 C.ar    1  UNL1        0.1384
      5 C           0.1279    3.2044   22.3015 C.ar    1  UNL1        0.0369
      6 C          -1.2989    3.4190   22.7114 C.ar    1  UNL1        0.0043
      7 O          -8.0919    4.2790   23.3162 O.2     1  UNL1       -0.2734
      8 C          -6.6650    4.0645   22.9062 C.2     1  UNL1        0.2410
      9 N          -5.6613    3.5792   23.9096 N.am    1  UNL1       -0.2062
     10 N          -4.2344    3.3646   23.4996 N.2     1  UNL1       -0.1836
     11 C          -3.8113    3.6354   22.0863 C.2     1  UNL1        0.0763
     12 C          -4.8151    4.1208   21.0828 C.3     1  UNL1        0.0509
     13 C          -5.8189    4.6061   20.0794 C.3     1  UNL1        0.0160
     14 C          -6.2420    4.3353   21.4928 C.3     1  UNL1        0.0841
     15 H          -5.9389    3.4015   24.8373 H       1  UNL1        0.1772
     16 O           1.8961    2.7773   20.4464 O.3     1  UNL1       -0.4791
     17 C           2.3839    1.3962   20.1227 C.3     1  UNL1        0.1687
     18 C           3.5665    1.2111   19.2189 C.3     1  UNL1        0.0609
     19 C           4.0543   -0.1700   18.8952 C.3     1  UNL1        0.0758
     20 N           3.3594   -1.3660   19.4754 N.3     1  UNL1       -0.2737
     21 C           2.1766   -1.1809   20.3793 C.3     1  UNL1        0.0758
     22 C           1.6889    0.2002   20.7030 C.3     1  UNL1        0.0609
     23 C           3.8471   -2.7470   19.1518 C.3     1  UNL1        0.0575
     24 C           3.2829   -4.1302   19.2879 C.3     1  UNL1        0.0160
     25 C           4.5368   -4.7002   18.6940 C.3     1  UNL1        0.0028
     26 C           5.1011   -3.3170   18.5579 C.3     1  UNL1        0.0160
@<TRIPOS>BOND
     1     7     8    2
     2     8     9   am
     3     9    10    1
     4    10    11    2
     5    11     1    1
     6     1     2   ar
     7     2     3   ar
     8     3     4   ar
     9     4    16    1
    10    16    17    1
    11    17    18    1
    12    18    19    1
    13    19    20    1
    14    20    23    1
    15    23    24    1
    16    24    25    1
    17    25    26    1
    18    20    21    1
    19    21    22    1
    20     4     5   ar
    21     5     6   ar
    22    11    12    1
    23    12    13    1
    24    14    13    1
    25    14     8    1
    26     6     1   ar
    27    14    12    1
    28    22    17    1
    29    26    23    1
    30     9    15    1
@<TRIPOS>MOLECULE
*****
 26 30 0 0 0
SMALL
GASTEIGER

@<TRIPOS>ATOM
      1 C          -1.2299    3.5184   22.9941 C.ar    1  UNL1        0.0152
      2 C          -1.8024    3.1869   21.6478 C.ar    1  UNL1        0.0043
      3 C          -0.8883    2.8716   20.5011 C.ar    1  UNL1        0.0369
      4 C           0.5984    2.8879   20.7007 C.ar    1  UNL1        0.1384
      5 C           1.1708    3.2194   22.0469 C.ar    1  UNL1        0.0369
      6 C           0.2566    3.5347   23.1936 C.ar    1  UNL1        0.0043
      7 O          -4.8865    4.7795   27.5810 O.2     1  UNL1       -0.2734
      8 C          -3.9723    4.4642   26.4342 C.2     1  UNL1        0.2410
      9 N          -2.4987    4.7151   26.5589 N.am    1  UNL1       -0.2062
     10 N          -1.5846    4.3998   25.4122 N.2     1  UNL1       -0.1836
     11 C          -2.1440    3.8337   24.1408 C.2     1  UNL1        0.0763
     12 C          -3.6177    3.5828   24.0161 C.3     1  UNL1        0.0509
     13 C          -5.0913    3.3319   23.8914 C.3     1  UNL1        0.0160
     14 C          -4.5318    3.8981   25.1628 C.3     1  UNL1        0.0841
     15 H          -2.1315    5.0867   27.3934 H       1  UNL1        0.1772
     16 O           1.5125    2.5726   19.5539 O.3     1  UNL1       -0.4791
     17 C           2.0884    1.1949   19.4108 C.3     1  UNL1        0.1687
     18 C           3.0060    0.8808   18.2665 C.3     1  UNL1        0.0609
     19 C           3.5819   -0.4969   18.1233 C.3     1  UNL1        0.0758
     20 N           3.2402   -1.5603   19.1244 N.3     1  UNL1       -0.2737
     21 C           2.3225   -1.2462   20.2687 C.3     1  UNL1        0.0758
     22 C           1.7467    0.1314   20.4119 C.3     1  UNL1        0.0609
     23 C           3.8160   -2.9380   18.9813 C.3     1  UNL1        0.0575
     24 C           3.2862   -4.3315   19.1468 C.3     1  UNL1        0.0160
     25 C           4.6304   -4.8862   18.7789 C.3     1  UNL1        0.0028
     26 C           5.1602   -3.4927   18.6134 C.3     1  UNL1        0.0160
@<TRIPOS>BOND
     1     7     8    2
     2     8     9   am
     3     9    10    1
     4    10    11    2
     5    11     1    1
     6     1     2   ar
     7     2     3   ar
     8     3     4   ar
     9     4    16    1
    10    16    17    1
    11    17    18    1
    12    18    19    1
    13    19    20    1
    14    20    23    1
    15    23    24    1
    16    24    25    1
    17    25    26    1
    18    20    21    1
    19    21    22    1
    20     4     5   ar
    21     5     6   ar
    22    11    12    1
    23    12    13    1
    24    14    13    1
    25    14     8    1
    26     6     1   ar
    27    14    12    1
    28    22    17    1
    29    26    23    1
    30     9    15    1
@<TRIPOS>MOLECULE
*****
 26 30 0 0 0
SMALL
GASTEIGER

@<TRIPOS>ATOM
      1 C           6.4993   -3.6131   21.5760 C.ar    1  UNL1        0.0152
      2 C           7.8113   -4.3366   21.5031 C.ar    1  UNL1        0.0043
      3 C           8.3998   -4.9488   22.7396 C.ar    1  UNL1        0.0369
      4 C           7.6763   -4.8376   24.0489 C.ar    1  UNL1        0.1384
      5 C           6.3643   -4.1142   24.1217 C.ar    1  UNL1        0.0369
      6 C           5.7758   -3.5019   22.8852 C.ar    1  UNL1        0.0043
      7 O           4.1454   -1.1641   16.6301 O.2     1  UNL1       -0.2734
      8 C           4.7338   -1.7763   17.8666 C.2     1  UNL1        0.2410
      9 N           5.9721   -1.1901   18.4774 N.am    1  UNL1       -0.2062
     10 N           6.5605   -1.8024   19.7139 N.2     1  UNL1       -0.1836
     11 C           5.9108   -3.0008   20.3395 C.2     1  UNL1        0.0763
     12 C           4.6725   -3.5871   19.7287 C.3     1  UNL1        0.0509
     13 C           3.4343   -4.1733   19.1179 C.3     1  UNL1        0.0160
     14 C           4.0840   -2.9749   18.4923 C.3     1  UNL1        0.0841
     15 H           6.3985   -0.4035   18.0668 H       1  UNL1        0.1772
     16 O           8.2648   -5.4499   25.2853 O.3     1  UNL1       -0.4791
     17 C           7.8413   -4.9611   26.6388 C.3     1  UNL1        0.1687
     18 C           8.3840   -3.6689   27.1732 C.3     1  UNL1        0.0609
     19 C           7.9605   -3.1801   28.5267 C.3     1  UNL1        0.0758
     20 N           6.9942   -3.9835   29.3457 N.3     1  UNL1       -0.2737
     21 C           6.4515   -5.2758   28.8112 C.3     1  UNL1        0.0758
     22 C           6.8750   -5.7645   27.4578 C.3     1  UNL1        0.0609
     23 C           6.5707   -3.4948   30.6991 C.3     1  UNL1        0.0575
     24 C           5.9075   -2.2539   31.2190 C.3     1  UNL1        0.0160
     25 C           5.9717   -2.8036   32.6131 C.3     1  UNL1        0.0028
     26 C           6.6349   -4.0446   32.0932 C.3     1  UNL1        0.0160
@<TRIPOS>BOND
     1     7     8    2
     2     8     9   am
     3     9    10    1
     4    10    11    2
     5    11     1    1
     6     1     2   ar
     7     2     3   ar
     8     3     4   ar
     9     4    16    1
    10    16    17    1
    11    17    18    1
    12    18    19    1
    13    19    20    1
    14    20    23    1
    15    23    24    1
    16    24    25    1
    17    25    26    1
    18    20    21    1
    19    21    22    1
    20     4     5   ar
    21     5     6   ar
    22    11    12    1
    23    12    13    1
    24    14    13    1
    25    14     8    1
    26     6     1   ar
    27    14    12    1
    28    22    17    1
    29    26    23    1
    30     9    15    1
@<TRIPOS>MOLECULE
*****
 26 30 0 0 0
SMALL
GASTEIGER

@<TRIPOS>ATOM
      1 C           2.3998   -0.4941   19.6529 C.ar    1  UNL1        0.0152
      2 C           2.6562    0.6502   18.7174 C.ar    1  UNL1        0.0043
      3 C           1.6617    1.7679   18.6095 C.ar    1  UNL1        0.0369
      4 C           0.4109    1.7415   19.4372 C.ar    1  UNL1        0.1384
      5 C           0.1546    0.5973   20.3726 C.ar    1  UNL1        0.0369
      6 C           1.1491   -0.5205   20.4805 C.ar    1  UNL1        0.0043
      7 O           6.3776   -4.9652   20.0845 O.2     1  UNL1       -0.2734
      8 C           5.3832   -3.8474   19.9766 C.2     1  UNL1        0.2410
      9 N           4.9325   -3.3721   18.6272 N.am    1  UNL1       -0.2062
     10 N           3.9380   -2.2544   18.5193 N.2     1  UNL1       -0.1836
     11 C           3.3943   -1.6118   19.7608 C.2     1  UNL1        0.0763
     12 C           3.8450   -2.0871   21.1103 C.3     1  UNL1        0.0509
     13 C           4.2957   -2.5623   22.4597 C.3     1  UNL1        0.0160
     14 C           4.8394   -3.2049   21.2182 C.3     1  UNL1        0.0841
     15 H           5.2894   -3.7939   17.8123 H       1  UNL1        0.1772
     16 O          -0.5835    2.8593   19.3293 O.3     1  UNL1       -0.4791
     17 C          -1.4514    3.2068   20.5024 C.3     1  UNL1        0.1687
     18 C          -0.8259    3.5820   21.8130 C.3     1  UNL1        0.0609
     19 C          -1.6938    3.9296   22.9861 C.3     1  UNL1        0.0758
     20 N          -3.1872    3.9019   22.8484 N.3     1  UNL1       -0.2737
     21 C          -3.8127    3.5267   21.5377 C.3     1  UNL1        0.0758
     22 C          -2.9448    3.1791   20.3647 C.3     1  UNL1        0.0609
     23 C          -4.0551    4.2494   24.0214 C.3     1  UNL1        0.0575
     24 C          -5.0150    3.4934   24.8915 C.3     1  UNL1        0.0160
     25 C          -5.2825    4.7409   25.6803 C.3     1  UNL1        0.0028
     26 C          -4.3225    5.4969   24.8103 C.3     1  UNL1        0.0160
@<TRIPOS>BOND
     1     7     8    2
     2     8     9   am
     3     9    10    1
     4    10    11    2
     5    11     1    1
     6     1     2   ar
     7     2     3   ar
     8     3     4   ar
     9     4    16    1
    10    16    17    1
    11    17    18    1
    12    18    19    1
    13    19    20    1
    14    20    23    1
    15    23    24    1
    16    24    25    1
    17    25    26    1
    18    20    21    1
    19    21    22    1
    20     4     5   ar
    21     5     6   ar
    22    11    12    1
    23    12    13    1
    24    14    13    1
    25    14     8    1
    26     6     1   ar
    27    14    12    1
    28    22    17    1
    29    26    23    1
    30     9    15    1
@<TRIPOS>MOLECULE
*****
 26 30 0 0 0
SMALL
GASTEIGER

@<TRIPOS>ATOM
      1 C           7.2925   -5.1132   25.8043 C.ar    1  UNL1        0.0152
      2 C           6.4432   -3.9900   25.2872 C.ar    1  UNL1        0.0043
      3 C           6.3737   -3.7194   23.8135 C.ar    1  UNL1        0.0369
      4 C           7.1535   -4.5719   22.8568 C.ar    1  UNL1        0.1384
      5 C           8.0028   -5.6949   23.3739 C.ar    1  UNL1        0.0369
      6 C           8.0723   -5.9656   24.8476 C.ar    1  UNL1        0.0043
      7 O           7.5705   -6.1957   31.6993 O.2     1  UNL1       -0.2734
      8 C           7.5010   -5.9250   30.2255 C.2     1  UNL1        0.2410
      9 N           6.5848   -4.8595   29.7010 N.am    1  UNL1       -0.2062
     10 N           6.5153   -4.5889   28.2273 N.2     1  UNL1       -0.1836
     11 C           7.3620   -5.3838   27.2780 C.2     1  UNL1        0.0763
     12 C           8.2783   -6.4494   27.8025 C.3     1  UNL1        0.0509
     13 C           9.1946   -7.5149   28.3270 C.3     1  UNL1        0.0160
     14 C           8.3478   -6.7200   29.2762 C.3     1  UNL1        0.0841
     15 H           6.0290   -4.3378   30.3240 H       1  UNL1        0.1772
     16 O           7.0841   -4.3013   21.3830 O.3     1  UNL1       -0.4791
     17 C           6.0299   -3.3838   20.8379 C.3     1  UNL1        0.1687
     18 C           6.3196   -1.9210   20.6759 C.3     1  UNL1        0.0609
     19 C           5.2655   -1.0035   20.1307 C.3     1  UNL1        0.0758
     20 N           3.9217   -1.5489   19.7475 N.3     1  UNL1       -0.2737
     21 C           3.6321   -3.0118   19.9095 C.3     1  UNL1        0.0758
     22 C           4.6862   -3.9292   20.4546 C.3     1  UNL1        0.0609
     23 C           2.8676   -0.6315   19.2024 C.3     1  UNL1        0.0575
     24 C           2.7646    0.2783   18.0143 C.3     1  UNL1        0.0160
     25 C           1.3769    0.6659   18.4314 C.3     1  UNL1        0.0028
     26 C           1.4799   -0.2439   19.6195 C.3     1  UNL1        0.0160
@<TRIPOS>BOND
     1     7     8    2
     2     8     9   am
     3     9    10    1
     4    10    11    2
     5    11     1    1
     6     1     2   ar
     7     2     3   ar
     8     3     4   ar
     9     4    16    1
    10    16    17    1
    11    17    18    1
    12    18    19    1
    13    19    20    1
    14    20    23    1
    15    23    24    1
    16    24    25    1
    17    25    26    1
    18    20    21    1
    19    21    22    1
    20     4     5   ar
    21     5     6   ar
    22    11    12    1
    23    12    13    1
    24    14    13    1
    25    14     8    1
    26     6     1   ar
    27    14    12    1
    28    22    17    1
    29    26    23    1
    30     9    15    1
@<TRIPOS>MOLECULE
*****
 26 30 0 0 0
SMALL
GASTEIGER

@<TRIPOS>ATOM
      1 C           6.4718   -2.0036   31.0997 C.ar    1  UNL1        0.0152
      2 C           5.6351   -2.1460   32.3366 C.ar    1  UNL1        0.0043
      3 C           5.6653   -1.0781   33.3895 C.ar    1  UNL1        0.0369
      4 C           6.5320    0.1323   33.2056 C.ar    1  UNL1        0.1384
      5 C           7.3686    0.2747   31.9687 C.ar    1  UNL1        0.0369
      6 C           7.3385   -0.7932   30.9158 C.ar    1  UNL1        0.0043
      7 O           6.3514   -6.2753   26.8881 O.2     1  UNL1       -0.2734
      8 C           6.3815   -5.2074   27.9410 C.2     1  UNL1        0.2410
      9 N           5.9630   -3.8075   27.6016 N.am    1  UNL1       -0.2062
     10 N           5.9931   -2.7396   28.6545 N.2     1  UNL1       -0.1836
     11 C           6.4417   -3.0715   30.0468 C.2     1  UNL1        0.0763
     12 C           6.8602   -4.4714   30.3863 C.3     1  UNL1        0.0509
     13 C           7.2787   -5.8713   30.7257 C.3     1  UNL1        0.0160
     14 C           6.8301   -5.5393   29.3334 C.3     1  UNL1        0.0841
     15 H           5.6686   -3.5896   26.6878 H       1  UNL1        0.1772
     16 O           6.5621    1.2002   34.2585 O.3     1  UNL1       -0.4791
     17 C           5.4619    1.2827   35.2748 C.3     1  UNL1        0.1687
     18 C           5.6136    0.5995   36.6015 C.3     1  UNL1        0.0609
     19 C           4.5133    0.6820   37.6177 C.3     1  UNL1        0.0758
     20 N           3.2614    1.4476   37.3072 N.3     1  UNL1       -0.2737
     21 C           3.1097    2.1308   35.9804 C.3     1  UNL1        0.0758
     22 C           4.2099    2.0483   34.9642 C.3     1  UNL1        0.0609
     23 C           2.1612    1.5301   38.3234 C.3     1  UNL1        0.0575
     24 C           1.2709    2.6229   38.8364 C.3     1  UNL1        0.0160
     25 C           0.6052    1.6468   39.7605 C.3     1  UNL1        0.0028
     26 C           1.4955    0.5540   39.2475 C.3     1  UNL1        0.0160
@<TRIPOS>BOND
     1     7     8    2
     2     8     9   am
     3     9    10    1
     4    10    11    2
     5    11     1    1
     6     1     2   ar
     7     2     3   ar
     8     3     4   ar
     9     4    16    1
    10    16    17    1
    11    17    18    1
    12    18    19    1
    13    19    20    1
    14    20    23    1
    15    23    24    1
    16    24    25    1
    17    25    26    1
    18    20    21    1
    19    21    22    1
    20     4     5   ar
    21     5     6   ar
    22    11    12    1
    23    12    13    1
    24    14    13    1
    25    14     8    1
    26     6     1   ar
    27    14    12    1
    28    22    17    1
    29    26    23    1
    30     9    15    1
