@<TRIPOS>MOLECULE
*****
 34 37 0 0 0
SMALL
GASTEIGER

@<TRIPOS>ATOM
      1 C           2.9472    1.3282   18.3508 C.ar    1  UNL1        0.1432
      2 C           2.7847    2.7995   18.5931 C.ar    1  UNL1        0.0384
      3 C           3.9318    3.7325   18.3409 C.ar    1  UNL1        0.0215
      4 C           5.2416    3.1942   17.8463 C.ar    1  UNL1        0.1061
      5 C           5.4042    1.7228   17.6040 C.ar    1  UNL1        0.0259
      6 C           4.2570    0.7898   17.8562 C.ar    1  UNL1        0.0888
      7 C           4.4197   -0.6815   17.6138 C.2     1  UNL1        0.2525
      8 O           3.9259   -1.2900   16.3348 O.2     1  UNL1       -0.2698
      9 N           5.0761   -1.5443   18.6504 N.am    1  UNL1       -0.2660
     10 C           5.6167   -1.0801   19.9703 C.3     1  UNL1        0.1236
     11 C           6.1819   -2.2718   20.6847 C.ar    1  UNL1        0.0338
     12 C           6.8653   -2.7213   21.9420 C.ar    1  UNL1        0.0991
     13 N           7.0965   -4.2000   21.8407 N.ar    1  UNL1       -0.2265
     14 N           6.5559   -4.6642   20.5207 N.ar    1  UNL1       -0.1679
     15 C           5.9907   -3.4725   19.8063 C.ar    1  UNL1        0.0981
     16 C           5.3073   -3.0230   18.5490 C.3     1  UNL1        0.1414
     17 C           7.7530   -5.0628   22.8773 C.ar    1  UNL1        0.1102
     18 C           8.8764   -5.9779   22.4894 C.ar    1  UNL1        0.0214
     19 C           9.5329   -6.8408   23.5260 C.ar    1  UNL1        0.0017
     20 C           9.0659   -6.7885   24.9505 C.ar    1  UNL1        0.0024
     21 C           7.9424   -5.8734   25.3384 C.ar    1  UNL1        0.0312
     22 C           7.2860   -5.0106   24.3018 C.ar    1  UNL1        0.1577
     23 F           6.1625   -4.0955   24.6897 F       1  UNL1       -0.2026
     24 S           6.3888    4.1271   17.5941 S.O2    1  UNL1        0.0105
     25 C           7.5359    5.0601   17.3419 C.3     1  UNL1        0.1816
     26 O           6.3142    4.6028   19.0147 O.2     1  UNL1       -0.1686
     27 O           6.4633    3.6514   16.1735 O.2     1  UNL1       -0.1686
     28 O           1.8001    0.3953   18.6030 O.3     1  UNL1       -0.4702
     29 C           0.1327    0.7309   20.5670 C.3     1  UNL1        0.0566
     30 C           1.3719    0.0960   20.0091 C.3     1  UNL1        0.2599
     31 C           2.1830   -0.8382   20.8572 C.3     1  UNL1        0.4340
     32 F           2.9941   -1.7725   21.7052 F       1  UNL1       -0.1664
     33 F           2.1451   -1.8641   19.7634 F       1  UNL1       -0.1664
     34 F           2.2209    0.1875   21.9510 F       1  UNL1       -0.1664
@<TRIPOS>BOND
     1    30    29    1
     2    30    28    1
     3    28     1    1
     4     1     2   ar
     5     2     3   ar
     6     3     4   ar
     7     4    24    1
     8    24    25    1
     9    24    26    2
    10    24    27    2
    11     4     5   ar
    12     5     6   ar
    13     6     7    1
    14     7     8    2
    15     7     9   am
    16     9    10    1
    17    10    11    1
    18    11    12   ar
    19    12    13   ar
    20    13    17    1
    21    17    18   ar
    22    18    19   ar
    23    19    20   ar
    24    20    21   ar
    25    21    22   ar
    26    22    23    1
    27    13    14   ar
    28    14    15   ar
    29    15    16    1
    30    30    31    1
    31    31    32    1
    32    31    33    1
    33    31    34    1
    34     6     1   ar
    35    16     9    1
    36    15    11   ar
    37    22    17   ar
@<TRIPOS>MOLECULE
*****
 34 37 0 0 0
SMALL
GASTEIGER

@<TRIPOS>ATOM
      1 C           4.0643   -1.2036   18.8341 C.ar    1  UNL1        0.1432
      2 C           5.4377   -1.5053   18.3120 C.ar    1  UNL1        0.0384
      3 C           6.2256   -0.4375   17.6128 C.ar    1  UNL1        0.0215
      4 C           5.6401    0.9321   17.4357 C.ar    1  UNL1        0.1061
      5 C           4.2666    1.2338   17.9579 C.ar    1  UNL1        0.0259
      6 C           3.4787    0.1660   18.6571 C.ar    1  UNL1        0.0888
      7 C           2.1052    0.4678   19.1792 C.2     1  UNL1        0.2525
      8 O           0.9437    0.5455   18.2333 O.2     1  UNL1       -0.2698
      9 N           1.8934    0.6918   20.6471 N.am    1  UNL1       -0.2660
     10 C           2.9529    0.6463   21.7079 C.3     1  UNL1        0.1236
     11 C           2.2991    0.9271   23.0284 C.ar    1  UNL1        0.0338
     12 C           2.5499    1.0725   24.5001 C.ar    1  UNL1        0.0991
     13 N           1.2413    1.3815   25.1651 N.ar    1  UNL1       -0.2265
     14 N           0.1817    1.4270   24.1042 N.ar    1  UNL1       -0.1679
     15 C           0.8355    1.1462   22.7837 C.ar    1  UNL1        0.0981
     16 C           0.5848    1.0008   21.3120 C.3     1  UNL1        0.1414
     17 C           1.0294    1.6056   26.6329 C.ar    1  UNL1        0.1102
     18 C          -0.0912    0.9069   27.3442 C.ar    1  UNL1        0.0214
     19 C          -0.3032    1.1309   28.8122 C.ar    1  UNL1        0.0017
     20 C           0.6056    2.0537   29.5689 C.ar    1  UNL1        0.0024
     21 C           1.7263    2.7525   28.8576 C.ar    1  UNL1        0.0312
     22 C           1.9382    2.5284   27.3897 C.ar    1  UNL1        0.1577
     23 F           3.0588    3.2271   26.6784 F       1  UNL1       -0.2026
     24 S           6.4280    2.0000   16.7365 S.O2    1  UNL1        0.0105
     25 C           7.2159    3.0678   16.0373 C.3     1  UNL1        0.1816
     26 O           7.2588    0.9471   16.0648 O.2     1  UNL1       -0.1686
     27 O           5.5971    3.0528   17.4083 O.2     1  UNL1       -0.1686
     28 O           3.2763   -2.2715   19.5333 O.3     1  UNL1       -0.4702
     29 C           4.3203   -3.4744   21.5859 C.3     1  UNL1        0.0566
     30 C           3.9799   -3.4567   20.1252 C.3     1  UNL1        0.2599
     31 C           4.3431   -4.6241   19.2562 C.3     1  UNL1        0.4340
     32 F           4.7064   -5.7915   18.3872 F       1  UNL1       -0.1664
     33 F           5.7466   -4.5804   19.7841 F       1  UNL1       -0.1664
     34 F           2.9398   -4.6678   18.7282 F       1  UNL1       -0.1664
@<TRIPOS>BOND
     1    30    29    1
     2    30    28    1
     3    28     1    1
     4     1     2   ar
     5     2     3   ar
     6     3     4   ar
     7     4    24    1
     8    24    25    1
     9    24    26    2
    10    24    27    2
    11     4     5   ar
    12     5     6   ar
    13     6     7    1
    14     7     8    2
    15     7     9   am
    16     9    10    1
    17    10    11    1
    18    11    12   ar
    19    12    13   ar
    20    13    17    1
    21    17    18   ar
    22    18    19   ar
    23    19    20   ar
    24    20    21   ar
    25    21    22   ar
    26    22    23    1
    27    13    14   ar
    28    14    15   ar
    29    15    16    1
    30    30    31    1
    31    31    32    1
    32    31    33    1
    33    31    34    1
    34     6     1   ar
    35    16     9    1
    36    15    11   ar
    37    22    17   ar
@<TRIPOS>MOLECULE
*****
 34 37 0 0 0
SMALL
GASTEIGER

@<TRIPOS>ATOM
      1 C           2.6739   -1.0087   20.7487 C.ar    1  UNL1        0.1432
      2 C           1.2778   -0.9497   20.2034 C.ar    1  UNL1        0.0384
      3 C           0.4198    0.2521   20.4670 C.ar    1  UNL1        0.0215
      4 C           0.9579    1.3949   21.2760 C.ar    1  UNL1        0.1061
      5 C           2.3540    1.3358   21.8214 C.ar    1  UNL1        0.0259
      6 C           3.2120    0.1341   21.5578 C.ar    1  UNL1        0.0888
      7 C           4.6081    0.0751   22.1032 C.2     1  UNL1        0.2525
      8 O           5.7701    0.4498   21.2318 O.2     1  UNL1       -0.2698
      9 N           4.8422   -0.3586   23.5199 N.am    1  UNL1       -0.2660
     10 C           3.7849   -0.7610   24.5049 C.3     1  UNL1        0.1236
     11 C           4.4639   -1.1171   25.7941 C.ar    1  UNL1        0.0338
     12 C           4.2301   -1.5859   27.1996 C.ar    1  UNL1        0.0991
     13 N           5.5626   -1.6933   27.8802 N.ar    1  UNL1       -0.2265
     14 N           6.6199   -1.2909   26.8951 N.ar    1  UNL1       -0.1679
     15 C           5.9408   -0.9348   25.6059 C.ar    1  UNL1        0.0981
     16 C           6.1746   -0.4660   24.2003 C.3     1  UNL1        0.1414
     17 C           5.7966   -2.1270   29.2968 C.ar    1  UNL1        0.1102
     18 C           5.2706   -1.2988   30.4314 C.ar    1  UNL1        0.0214
     19 C           5.5046   -1.7324   31.8482 C.ar    1  UNL1        0.0017
     20 C           6.2648   -2.9944   32.1303 C.ar    1  UNL1        0.0024
     21 C           6.7909   -3.8227   30.9957 C.ar    1  UNL1        0.0312
     22 C           6.5568   -3.3890   29.5791 C.ar    1  UNL1        0.1577
     23 F           7.0829   -4.2172   28.4445 F       1  UNL1       -0.2026
     24 S           0.0998    2.5967   21.5396 S.O2    1  UNL1        0.0105
     25 C          -0.7582    3.7985   21.8032 C.3     1  UNL1        0.1816
     26 O           1.2319    3.2420   22.2825 O.2     1  UNL1       -0.1686
     27 O          -1.0323    1.9513   20.7966 O.2     1  UNL1       -0.1686
     28 O           3.5319   -2.2105   20.4851 O.3     1  UNL1       -0.4702
     29 C           4.1603   -1.3739   18.1070 C.3     1  UNL1        0.0566
     30 C           4.0195   -2.4937   19.0951 C.3     1  UNL1        0.2599
     31 C           4.3661   -3.8966   18.6933 C.3     1  UNL1        0.4340
     32 F           4.7129   -5.2995   18.2914 F       1  UNL1       -0.1664
     33 F           5.7578   -3.4544   18.3500 F       1  UNL1       -0.1664
     34 F           2.9745   -4.3389   19.0365 F       1  UNL1       -0.1664
@<TRIPOS>BOND
     1    30    29    1
     2    30    28    1
     3    28     1    1
     4     1     2   ar
     5     2     3   ar
     6     3     4   ar
     7     4    24    1
     8    24    25    1
     9    24    26    2
    10    24    27    2
    11     4     5   ar
    12     5     6   ar
    13     6     7    1
    14     7     8    2
    15     7     9   am
    16     9    10    1
    17    10    11    1
    18    11    12   ar
    19    12    13   ar
    20    13    17    1
    21    17    18   ar
    22    18    19   ar
    23    19    20   ar
    24    20    21   ar
    25    21    22   ar
    26    22    23    1
    27    13    14   ar
    28    14    15   ar
    29    15    16    1
    30    30    31    1
    31    31    32    1
    32    31    33    1
    33    31    34    1
    34     6     1   ar
    35    16     9    1
    36    15    11   ar
    37    22    17   ar
@<TRIPOS>MOLECULE
*****
 34 37 0 0 0
SMALL
GASTEIGER

@<TRIPOS>ATOM
      1 C          -3.9941    3.4571   20.8425 C.ar    1  UNL1        0.1432
      2 C          -5.1943    3.1724   21.6958 C.ar    1  UNL1        0.0384
      3 C          -5.1066    3.3183   23.1861 C.ar    1  UNL1        0.0215
      4 C          -3.8187    3.7489   23.8231 C.ar    1  UNL1        0.1061
      5 C          -2.6184    4.0336   22.9697 C.ar    1  UNL1        0.0259
      6 C          -2.7060    3.8877   21.4794 C.ar    1  UNL1        0.0888
      7 C          -1.5057    4.1724   20.6261 C.2     1  UNL1        0.2525
      8 O          -1.2922    5.5479   20.0670 O.2     1  UNL1       -0.2698
      9 N          -0.5189    3.0817   20.3318 N.am    1  UNL1       -0.2660
     10 C          -0.5993    1.6651   20.8185 C.3     1  UNL1        0.1236
     11 C           0.5914    0.9241   20.2866 C.ar    1  UNL1        0.0338
     12 C           1.2777   -0.4095   20.2587 C.ar    1  UNL1        0.0991
     13 N           2.5181   -0.2752   19.4261 N.ar    1  UNL1       -0.2265
     14 N           2.5985    1.1415   18.9393 N.ar    1  UNL1       -0.1679
     15 C           1.4077    1.8826   19.4712 C.ar    1  UNL1        0.0981
     16 C           0.7215    3.2161   19.4991 C.3     1  UNL1        0.1414
     17 C           3.5049   -1.3658   19.1318 C.ar    1  UNL1        0.1102
     18 C           3.5090   -2.6168   19.9594 C.ar    1  UNL1        0.0214
     19 C           4.4958   -3.7076   19.6651 C.ar    1  UNL1        0.0017
     20 C           5.4785   -3.5473   18.5432 C.ar    1  UNL1        0.0024
     21 C           5.4743   -2.2962   17.7155 C.ar    1  UNL1        0.0312
     22 C           4.4875   -1.2056   18.0098 C.ar    1  UNL1        0.1577
     23 F           4.4833    0.0454   17.1822 F       1  UNL1       -0.2026
     24 S          -3.7310    3.8947   25.3134 S.O2    1  UNL1        0.0105
     25 C          -3.6434    4.0406   26.8038 C.3     1  UNL1        0.1816
     26 O          -2.3169    4.3775   25.1830 O.2     1  UNL1       -0.1686
     27 O          -5.1453    3.4119   25.4438 O.2     1  UNL1       -0.1686
     28 O          -4.0817    3.3113   19.3522 O.3     1  UNL1       -0.4702
     29 C          -4.1005    5.3193   17.7037 C.3     1  UNL1        0.0566
     30 C          -4.8409    4.3207   18.5431 C.3     1  UNL1        0.2599
     31 C          -6.3405    4.3315   18.5735 C.3     1  UNL1        0.4340
     32 F          -7.8402    4.3423   18.6039 F       1  UNL1       -0.1664
     33 F          -6.3517    2.8316   18.5555 F       1  UNL1       -0.1664
     34 F          -6.3295    5.8314   18.5915 F       1  UNL1       -0.1664
@<TRIPOS>BOND
     1    30    29    1
     2    30    28    1
     3    28     1    1
     4     1     2   ar
     5     2     3   ar
     6     3     4   ar
     7     4    24    1
     8    24    25    1
     9    24    26    2
    10    24    27    2
    11     4     5   ar
    12     5     6   ar
    13     6     7    1
    14     7     8    2
    15     7     9   am
    16     9    10    1
    17    10    11    1
    18    11    12   ar
    19    12    13   ar
    20    13    17    1
    21    17    18   ar
    22    18    19   ar
    23    19    20   ar
    24    20    21   ar
    25    21    22   ar
    26    22    23    1
    27    13    14   ar
    28    14    15   ar
    29    15    16    1
    30    30    31    1
    31    31    32    1
    32    31    33    1
    33    31    34    1
    34     6     1   ar
    35    16     9    1
    36    15    11   ar
    37    22    17   ar
@<TRIPOS>MOLECULE
*****
 34 37 0 0 0
SMALL
GASTEIGER

@<TRIPOS>ATOM
      1 C         -13.0579   -6.0358   17.8141 C.ar    1  UNL1        0.1432
      2 C         -12.9908   -7.2361   16.9171 C.ar    1  UNL1        0.0384
      3 C         -13.9755   -8.3549   17.0864 C.ar    1  UNL1        0.0215
      4 C         -15.0274   -8.2734   18.1527 C.ar    1  UNL1        0.1061
      5 C         -15.0944   -7.0730   19.0497 C.ar    1  UNL1        0.0259
      6 C         -14.1097   -5.9542   18.8805 C.ar    1  UNL1        0.0888
      7 C         -14.1769   -4.7538   19.7775 C.2     1  UNL1        0.2525
      8 O         -13.6489   -4.8346   21.1792 O.2     1  UNL1       -0.2698
      9 N         -14.7720   -3.4728   19.2729 N.am    1  UNL1       -0.2660
     10 C         -15.3371   -3.2427   17.9026 C.3     1  UNL1        0.1236
     11 C         -15.8209   -1.8246   17.8328 C.ar    1  UNL1        0.0338
     12 C         -16.4691   -0.8059   16.9428 C.ar    1  UNL1        0.0991
     13 N         -16.6037    0.4700   17.7198 N.ar    1  UNL1       -0.2265
     14 N         -16.0386    0.2399   19.0902 N.ar    1  UNL1       -0.1679
     15 C         -15.5548   -1.1782   19.1600 C.ar    1  UNL1        0.0981
     16 C         -14.9066   -2.1968   20.0500 C.3     1  UNL1        0.1414
     17 C         -17.1988    1.7511   17.2153 C.ar    1  UNL1        0.1102
     18 C         -18.6411    1.7980   16.8060 C.ar    1  UNL1        0.0214
     19 C         -19.2363    3.0791   16.3014 C.ar    1  UNL1        0.0017
     20 C         -18.3892    4.3132   16.2061 C.ar    1  UNL1        0.0024
     21 C         -16.9468    4.2663   16.6154 C.ar    1  UNL1        0.0312
     22 C         -16.3517    2.9853   17.1200 C.ar    1  UNL1        0.1577
     23 F         -14.9094    2.9384   17.5293 F       1  UNL1       -0.2026
     24 S         -16.0120   -9.3922   18.3220 S.O2    1  UNL1        0.0105
     25 C         -16.9967  -10.5110   18.4913 C.3     1  UNL1        0.1816
     26 O         -17.1239   -8.3939   18.4524 O.2     1  UNL1       -0.1686
     27 O         -14.9001  -10.3905   18.1916 O.2     1  UNL1       -0.1686
     28 O         -12.0732   -4.9170   17.6448 O.3     1  UNL1       -0.4702
     29 C          -9.8467   -4.7372   16.3180 C.3     1  UNL1        0.0566
     30 C         -10.6096   -5.2191   17.5162 C.3     1  UNL1        0.2599
     31 C          -9.9089   -6.0030   18.5860 C.3     1  UNL1        0.4340
     32 F          -9.2082   -6.7869   19.6558 F       1  UNL1       -0.1664
     33 F         -10.0030   -4.8256   19.5106 F       1  UNL1       -0.1664
     34 F          -9.8147   -7.1805   17.6615 F       1  UNL1       -0.1664
@<TRIPOS>BOND
     1    30    29    1
     2    30    28    1
     3    28     1    1
     4     1     2   ar
     5     2     3   ar
     6     3     4   ar
     7     4    24    1
     8    24    25    1
     9    24    26    2
    10    24    27    2
    11     4     5   ar
    12     5     6   ar
    13     6     7    1
    14     7     8    2
    15     7     9   am
    16     9    10    1
    17    10    11    1
    18    11    12   ar
    19    12    13   ar
    20    13    17    1
    21    17    18   ar
    22    18    19   ar
    23    19    20   ar
    24    20    21   ar
    25    21    22   ar
    26    22    23    1
    27    13    14   ar
    28    14    15   ar
    29    15    16    1
    30    30    31    1
    31    31    32    1
    32    31    33    1
    33    31    34    1
    34     6     1   ar
    35    16     9    1
    36    15    11   ar
    37    22    17   ar
@<TRIPOS>MOLECULE
*****
 34 37 0 0 0
SMALL
GASTEIGER

@<TRIPOS>ATOM
      1 C          -2.0848    4.4582   25.9992 C.ar    1  UNL1        0.1432
      2 C          -3.3608    4.0824   26.6923 C.ar    1  UNL1        0.0384
      3 C          -4.6482    4.0418   25.9234 C.ar    1  UNL1        0.0215
      4 C          -4.6595    4.3769   24.4614 C.ar    1  UNL1        0.1061
      5 C          -3.3833    4.7528   23.7683 C.ar    1  UNL1        0.0259
      6 C          -2.0960    4.7934   24.5371 C.ar    1  UNL1        0.0888
      7 C          -0.8200    5.1692   23.8439 C.2     1  UNL1        0.2525
      8 O          -0.2573    6.5502   24.0056 O.2     1  UNL1       -0.2698
      9 N          -0.1067    4.1640   22.9890 N.am    1  UNL1       -0.2660
     10 C          -0.5464    2.7526   22.7347 C.3     1  UNL1        0.1236
     11 C           0.4601    2.1102   21.8268 C.ar    1  UNL1        0.0338
     12 C           0.8104    0.8408   21.1085 C.ar    1  UNL1        0.0991
     13 N           2.0885    1.0705   20.3578 N.ar    1  UNL1       -0.2265
     14 N           2.5281    2.4820   20.6121 N.ar    1  UNL1       -0.1679
     15 C           1.5217    3.1245   21.5200 C.ar    1  UNL1        0.0981
     16 C           1.1714    4.3939   22.2382 C.3     1  UNL1        0.1414
     17 C           2.8018    0.0654   19.5029 C.ar    1  UNL1        0.1102
     18 C           3.0796    0.3700   18.0607 C.ar    1  UNL1        0.0214
     19 C           3.7929   -0.6351   17.2057 C.ar    1  UNL1        0.0017
     20 C           4.2284   -1.9449   17.7930 C.ar    1  UNL1        0.0024
     21 C           3.9505   -2.2495   19.2353 C.ar    1  UNL1        0.0312
     22 C           3.2372   -1.2444   20.0902 C.ar    1  UNL1        0.1577
     23 F           2.9593   -1.5490   21.5324 F       1  UNL1       -0.2026
     24 S          -5.9468    4.3363   23.6925 S.O2    1  UNL1        0.0105
     25 C          -7.2341    4.2957   22.9237 C.3     1  UNL1        0.1816
     26 O          -5.3948    3.2434   22.8260 O.2     1  UNL1       -0.1686
     27 O          -6.4988    5.4292   24.5592 O.2     1  UNL1       -0.1686
     28 O          -0.7975    4.4989   26.7680 O.3     1  UNL1       -0.4702
     29 C           0.4099    3.1634   28.6412 C.3     1  UNL1        0.0566
     30 C          -0.1790    3.2251   27.2630 C.3     1  UNL1        0.2599
     31 C          -0.1493    2.0131   26.3797 C.3     1  UNL1        0.4340
     32 F          -0.1197    0.8012   25.4963 F       1  UNL1       -0.1664
     33 F           0.9516    2.6306   25.5693 F       1  UNL1       -0.1664
     34 F          -1.2502    1.3956   27.1900 F       1  UNL1       -0.1664
@<TRIPOS>BOND
     1    30    29    1
     2    30    28    1
     3    28     1    1
     4     1     2   ar
     5     2     3   ar
     6     3     4   ar
     7     4    24    1
     8    24    25    1
     9    24    26    2
    10    24    27    2
    11     4     5   ar
    12     5     6   ar
    13     6     7    1
    14     7     8    2
    15     7     9   am
    16     9    10    1
    17    10    11    1
    18    11    12   ar
    19    12    13   ar
    20    13    17    1
    21    17    18   ar
    22    18    19   ar
    23    19    20   ar
    24    20    21   ar
    25    21    22   ar
    26    22    23    1
    27    13    14   ar
    28    14    15   ar
    29    15    16    1
    30    30    31    1
    31    31    32    1
    32    31    33    1
    33    31    34    1
    34     6     1   ar
    35    16     9    1
    36    15    11   ar
    37    22    17   ar
@<TRIPOS>MOLECULE
*****
 34 37 0 0 0
SMALL
GASTEIGER

@<TRIPOS>ATOM
      1 C           3.6853   -0.6127   18.2100 C.ar    1  UNL1        0.1432
      2 C           3.2636    0.7389   17.7148 C.ar    1  UNL1        0.0384
      3 C           2.1640    1.4837   18.4121 C.ar    1  UNL1        0.0215
      4 C           1.4860    0.8769   19.6046 C.ar    1  UNL1        0.1061
      5 C           1.9077   -0.4748   20.0998 C.ar    1  UNL1        0.0259
      6 C           3.0073   -1.2196   19.4025 C.ar    1  UNL1        0.0888
      7 C           3.4290   -2.5712   19.8978 C.2     1  UNL1        0.2525
      8 O           3.0215   -3.8052   19.1486 O.2     1  UNL1       -0.2698
      9 N           4.2581   -2.6889   21.1423 N.am    1  UNL1       -0.2660
     10 C           4.7388   -1.5504   21.9924 C.3     1  UNL1        0.1236
     11 C           5.5298   -2.1237   23.1306 C.ar    1  UNL1        0.0338
     12 C           6.3158   -1.7743   24.3595 C.ar    1  UNL1        0.0991
     13 N           6.8098   -3.0512   24.9724 N.ar    1  UNL1       -0.2265
     14 N           6.3290   -4.1898   24.1223 N.ar    1  UNL1       -0.1679
     15 C           5.5380   -3.6165   22.9840 C.ar    1  UNL1        0.0981
     16 C           4.7520   -3.9658   21.7551 C.3     1  UNL1        0.1414
     17 C           7.6389   -3.1689   26.2168 C.ar    1  UNL1        0.1102
     18 C           8.7064   -2.1555   26.5055 C.ar    1  UNL1        0.0214
     19 C           9.5355   -2.2731   27.7500 C.ar    1  UNL1        0.0017
     20 C           9.2971   -3.4043   28.7058 C.ar    1  UNL1        0.0024
     21 C           8.2296   -4.4179   28.4171 C.ar    1  UNL1        0.0312
     22 C           7.4005   -4.3001   27.1727 C.ar    1  UNL1        0.1577
     23 F           6.3330   -5.3136   26.8840 F       1  UNL1       -0.2026
     24 S           0.3864    1.6217   20.3018 S.O2    1  UNL1        0.0105
     25 C          -0.7132    2.3664   20.9991 C.3     1  UNL1        0.1816
     26 O          -0.3578    0.3349   20.5026 O.2     1  UNL1       -0.1686
     27 O           1.1307    2.9085   20.1010 O.2     1  UNL1       -0.1686
     28 O           4.7849   -1.3574   17.5128 O.3     1  UNL1       -0.4702
     29 C           6.9426    0.0894   17.4849 C.3     1  UNL1        0.0566
     30 C           6.2120   -1.1451   17.9231 C.3     1  UNL1        0.2599
     31 C           6.9083   -2.1674   18.7715 C.3     1  UNL1        0.4340
     32 F           7.6047   -3.1896   19.6201 F       1  UNL1       -0.1664
     33 F           7.6844   -1.0768   19.4486 F       1  UNL1       -0.1664
     34 F           6.1323   -3.2580   18.0946 F       1  UNL1       -0.1664
@<TRIPOS>BOND
     1    30    29    1
     2    30    28    1
     3    28     1    1
     4     1     2   ar
     5     2     3   ar
     6     3     4   ar
     7     4    24    1
     8    24    25    1
     9    24    26    2
    10    24    27    2
    11     4     5   ar
    12     5     6   ar
    13     6     7    1
    14     7     8    2
    15     7     9   am
    16     9    10    1
    17    10    11    1
    18    11    12   ar
    19    12    13   ar
    20    13    17    1
    21    17    18   ar
    22    18    19   ar
    23    19    20   ar
    24    20    21   ar
    25    21    22   ar
    26    22    23    1
    27    13    14   ar
    28    14    15   ar
    29    15    16    1
    30    30    31    1
    31    31    32    1
    32    31    33    1
    33    31    34    1
    34     6     1   ar
    35    16     9    1
    36    15    11   ar
    37    22    17   ar
@<TRIPOS>MOLECULE
*****
 34 37 0 0 0
SMALL
GASTEIGER

@<TRIPOS>ATOM
      1 C         -12.5882   -5.5387   18.6160 C.ar    1  UNL1        0.1432
      2 C         -12.8872   -6.9623   18.9820 C.ar    1  UNL1        0.0384
      3 C         -14.2009   -7.5756   18.5972 C.ar    1  UNL1        0.0215
      4 C         -15.2157   -6.7652   17.8464 C.ar    1  UNL1        0.1061
      5 C         -14.9166   -5.3416   17.4804 C.ar    1  UNL1        0.0259
      6 C         -13.6028   -4.7283   17.8652 C.ar    1  UNL1        0.0888
      7 C         -13.3039   -3.3048   17.4991 C.2     1  UNL1        0.2525
      8 O         -12.2605   -2.9994   16.4656 O.2     1  UNL1       -0.2698
      9 N         -14.0482   -2.1865   18.1666 N.am    1  UNL1       -0.2660
     10 C         -15.1127   -2.3368   19.2127 C.3     1  UNL1        0.1236
     11 C         -15.5811   -0.9648   19.5978 C.ar    1  UNL1        0.0338
     12 C         -16.5284   -0.2098   20.4823 C.ar    1  UNL1        0.0991
     13 N         -16.3390    1.2551   20.2209 N.ar    1  UNL1       -0.2265
     14 N         -15.2744    1.4053   19.1748 N.ar    1  UNL1       -0.1679
     15 C         -14.8061    0.0334   18.7897 C.ar    1  UNL1        0.0981
     16 C         -13.8587   -0.7217   17.9052 C.3     1  UNL1        0.1414
     17 C         -17.0833    2.3733   20.8883 C.ar    1  UNL1        0.1102
     18 C         -17.2958    2.3517   22.3730 C.ar    1  UNL1        0.0214
     19 C         -18.0401    3.4699   23.0406 C.ar    1  UNL1        0.0017
     20 C         -18.5719    4.6098   22.2233 C.ar    1  UNL1        0.0024
     21 C         -18.3594    4.6314   20.7385 C.ar    1  UNL1        0.0312
     22 C         -17.6151    3.5132   20.0711 C.ar    1  UNL1        0.1577
     23 F         -17.4026    3.5348   18.5864 F       1  UNL1       -0.2026
     24 S         -16.5294   -7.3785   17.4616 S.O2    1  UNL1        0.0105
     25 C         -17.8431   -7.9917   17.0769 C.3     1  UNL1        0.1816
     26 O         -15.9872   -8.7402   17.7808 O.2     1  UNL1       -0.1686
     27 O         -17.0715   -6.0167   17.1425 O.2     1  UNL1       -0.1686
     28 O         -11.2745   -4.9255   19.0008 O.3     1  UNL1       -0.4702
     29 C          -9.3081   -4.6631   17.3231 C.3     1  UNL1        0.0566
     30 C         -10.0008   -5.4431   18.4010 C.3     1  UNL1        0.2599
     31 C          -9.4199   -6.7408   18.8790 C.3     1  UNL1        0.4340
     32 F          -8.8390   -8.0385   19.3570 F       1  UNL1       -0.1664
     33 F          -9.9948   -7.4390   17.6823 F       1  UNL1       -0.1664
     34 F          -8.8449   -6.0427   20.0757 F       1  UNL1       -0.1664
@<TRIPOS>BOND
     1    30    29    1
     2    30    28    1
     3    28     1    1
     4     1     2   ar
     5     2     3   ar
     6     3     4   ar
     7     4    24    1
     8    24    25    1
     9    24    26    2
    10    24    27    2
    11     4     5   ar
    12     5     6   ar
    13     6     7    1
    14     7     8    2
    15     7     9   am
    16     9    10    1
    17    10    11    1
    18    11    12   ar
    19    12    13   ar
    20    13    17    1
    21    17    18   ar
    22    18    19   ar
    23    19    20   ar
    24    20    21   ar
    25    21    22   ar
    26    22    23    1
    27    13    14   ar
    28    14    15   ar
    29    15    16    1
    30    30    31    1
    31    31    32    1
    32    31    33    1
    33    31    34    1
    34     6     1   ar
    35    16     9    1
    36    15    11   ar
    37    22    17   ar
@<TRIPOS>MOLECULE
*****
 34 37 0 0 0
SMALL
GASTEIGER

@<TRIPOS>ATOM
      1 C           3.0138    1.6268   18.2185 C.ar    1  UNL1        0.1432
      2 C           2.8902    3.1034   18.4515 C.ar    1  UNL1        0.0384
      3 C           4.0956    3.9867   18.3222 C.ar    1  UNL1        0.0215
      4 C           5.4248    3.3933   17.9599 C.ar    1  UNL1        0.1061
      5 C           5.5484    1.9166   17.7269 C.ar    1  UNL1        0.0259
      6 C           4.3430    1.0334   17.8562 C.ar    1  UNL1        0.0888
      7 C           4.4667   -0.4432   17.6232 C.2     1  UNL1        0.2525
      8 O           3.9745   -1.0438   16.3398 O.2     1  UNL1       -0.2698
      9 N           5.0827   -1.3192   18.6735 N.am    1  UNL1       -0.2660
     10 C           5.6168   -0.8639   19.9992 C.3     1  UNL1        0.1236
     11 C           6.1369   -2.0677   20.7275 C.ar    1  UNL1        0.0338
     12 C           6.7884   -2.5302   21.9970 C.ar    1  UNL1        0.0991
     13 N           6.9784   -4.0154   21.9061 N.ar    1  UNL1       -0.2265
     14 N           6.4442   -4.4707   20.5804 N.ar    1  UNL1       -0.1679
     15 C           5.9241   -3.2670   19.8520 C.ar    1  UNL1        0.0981
     16 C           5.2726   -2.8044   18.5826 C.3     1  UNL1        0.1414
     17 C           7.5943   -4.8914   22.9564 C.ar    1  UNL1        0.1102
     18 C           7.1371   -4.7887   24.3813 C.ar    1  UNL1        0.0214
     19 C           7.7530   -5.6647   25.4317 C.ar    1  UNL1        0.0017
     20 C           8.8262   -6.6435   25.0571 C.ar    1  UNL1        0.0024
     21 C           9.2834   -6.7462   23.6321 C.ar    1  UNL1        0.0312
     22 C           8.6675   -5.8702   22.5818 C.ar    1  UNL1        0.1577
     23 F           9.1247   -5.9729   21.1569 F       1  UNL1       -0.2026
     24 S           6.6302    4.2766   17.8306 S.O2    1  UNL1        0.0105
     25 C           7.8357    5.1599   17.7013 C.3     1  UNL1        0.1816
     26 O           7.0344    3.5428   16.5863 O.2     1  UNL1       -0.1686
     27 O           6.2260    5.0103   19.0749 O.2     1  UNL1       -0.1686
     28 O           1.8084    0.7435   18.3478 O.3     1  UNL1       -0.4702
     29 C           1.8390   -0.7874   20.4466 C.3     1  UNL1        0.0566
     30 C           1.2792    0.3909   19.7063 C.3     1  UNL1        0.2599
     31 C           0.1902    1.2167   20.3244 C.3     1  UNL1        0.4340
     32 F          -0.8989    2.0424   20.9426 F       1  UNL1       -0.1664
     33 F           0.3891    0.5028   21.6287 F       1  UNL1       -0.1664
     34 F          -0.0089    1.9306   19.0203 F       1  UNL1       -0.1664
@<TRIPOS>BOND
     1    30    29    1
     2    30    28    1
     3    28     1    1
     4     1     2   ar
     5     2     3   ar
     6     3     4   ar
     7     4    24    1
     8    24    25    1
     9    24    26    2
    10    24    27    2
    11     4     5   ar
    12     5     6   ar
    13     6     7    1
    14     7     8    2
    15     7     9   am
    16     9    10    1
    17    10    11    1
    18    11    12   ar
    19    12    13   ar
    20    13    17    1
    21    17    18   ar
    22    18    19   ar
    23    19    20   ar
    24    20    21   ar
    25    21    22   ar
    26    22    23    1
    27    13    14   ar
    28    14    15   ar
    29    15    16    1
    30    30    31    1
    31    31    32    1
    32    31    33    1
    33    31    34    1
    34     6     1   ar
    35    16     9    1
    36    15    11   ar
    37    22    17   ar
