@<TRIPOS>MOLECULE
*****
 32 35 0 0 0
SMALL
GASTEIGER

@<TRIPOS>ATOM
      1 C          -7.1002  -17.2837   23.3929 C.3     1  UNL1        0.1024
      2 C          -6.2294  -18.2232   22.6124 C.2     1  UNL1       -0.0217
      3 C          -6.8423  -19.3782   21.8775 C.2     1  UNL1       -0.0050
      4 C          -5.9714  -20.3177   21.0970 C.2     1  UNL1        0.0201
      5 C          -4.4877  -20.1020   21.0515 C.2     1  UNL1        0.1007
      6 N          -3.3843  -20.8564   20.3709 N.2     1  UNL1       -0.1482
      7 N          -2.0894  -20.1675   20.6851 N.2     1  UNL1       -0.1467
      8 C          -2.3926  -18.9874   21.5600 C.2     1  UNL1        0.1197
      9 C          -3.8749  -18.9469   21.7865 C.2     1  UNL1        0.0216
     10 C          -4.7457  -18.0075   22.5669 C.3     1  UNL1        0.0466
     11 C          -4.1329  -16.8524   23.3018 C.3     1  UNL1        0.0245
     12 C          -5.0037  -15.9130   24.0823 C.3     1  UNL1        0.0589
     13 C          -4.3907  -14.7579   24.8172 C.3     1  UNL1        0.0174
     14 N          -6.4874  -16.1286   24.1278 N.3     1  UNL1       -0.2637
     15 C          -9.4607  -16.9086   22.3743 C.ar    1  UNL1        0.1363
     16 C         -10.9445  -17.1243   22.4198 C.ar    1  UNL1        0.0366
     17 C         -11.5514  -17.9307   23.5293 C.ar    1  UNL1        0.0030
     18 C         -10.6747  -18.5215   24.5935 C.ar    1  UNL1       -0.0001
     19 C          -9.1910  -18.3058   24.5480 C.ar    1  UNL1        0.0004
     20 C          -8.5839  -17.4994   23.4384 C.ar    1  UNL1        0.0301
     21 C          -8.5152  -14.6577   21.4857 C.3     1  UNL1        0.2525
     22 O          -8.8537  -16.1022   21.2646 O.3     1  UNL1       -0.4717
     23 C         -13.0351  -18.1464   23.5748 C.2     1  UNL1        0.0013
     24 C         -13.7132  -18.4211   24.8842 C.2     1  UNL1        0.0151
     25 C         -15.1969  -18.6368   24.9297 C.2     1  UNL1        0.0729
     26 O         -15.9649  -18.8387   23.6571 O.co2   1  UNL1       -0.5446
     27 O         -15.9127  -18.6506   26.2480 O.co2   1  UNL1       -0.5446
     28 C          -7.3582  -15.1891   24.9083 C.3     1  UNL1        0.1398
     29 C          -7.8935  -15.6005   26.2477 C.3     1  UNL1        0.2786
     30 C          -8.4288  -16.0119   27.5872 C.3     1  UNL1        0.0737
     31 F          -6.5131  -16.0015   26.6762 F       1  UNL1       -0.2028
     32 F          -9.2739  -15.1996   25.8192 F       1  UNL1       -0.2028
@<TRIPOS>UNITY_ATOM_ATTR
26 1
charge -1
@<TRIPOS>BOND
     1    21    22    1
     2    22    15    1
     3    15    16   ar
     4    16    17   ar
     5    17    23    1
     6    23    24    2
     7    24    25    1
     8    25    26   ar
     9    25    27   ar
    10    17    18   ar
    11    18    19   ar
    12    19    20   ar
    13     1    20    1
    14     1     2    1
    15     2     3    2
    16     3     4    1
    17     4     5    2
    18     5     6    1
    19     6     7    2
    20     7     8    1
    21     8     9    2
    22     9    10    1
    23    10    11    1
    24    11    12    1
    25    12    13    1
    26    12    14    1
    27    14    28    1
    28    28    29    1
    29    29    30    1
    30    29    31    1
    31    29    32    1
    32    20    15   ar
    33    14     1    1
    34    10     2    1
    35     9     5    1
@<TRIPOS>MOLECULE
*****
 32 35 0 0 0
SMALL
GASTEIGER

@<TRIPOS>ATOM
      1 C           5.6974   -1.9181   30.9004 C.3     1  UNL1        0.1024
      2 C           6.4002   -3.2031   30.5763 C.2     1  UNL1       -0.0217
      3 C           7.0003   -4.0278   31.6760 C.2     1  UNL1       -0.0050
      4 C           7.7032   -5.3128   31.3519 C.2     1  UNL1        0.0201
      5 C           7.8058   -5.7729   29.9279 C.2     1  UNL1        0.1007
      6 N           8.4335   -6.9860   29.3080 N.2     1  UNL1       -0.1482
      7 N           8.2213   -6.9109   27.8250 N.2     1  UNL1       -0.1467
      8 C           7.4624   -5.6515   27.5284 C.2     1  UNL1        0.1197
      9 C           7.2056   -4.9482   28.8281 C.2     1  UNL1        0.0216
     10 C           6.5028   -3.6633   29.1523 C.3     1  UNL1        0.0466
     11 C           5.9026   -2.8385   28.0525 C.3     1  UNL1        0.0245
     12 C           5.1998   -1.5536   28.3766 C.3     1  UNL1        0.0589
     13 C           4.5997   -0.7289   27.2767 C.3     1  UNL1        0.0174
     14 N           5.0972   -1.0935   29.8006 N.3     1  UNL1       -0.2637
     15 C           6.6489   -0.5594   32.9000 C.ar    1  UNL1        0.1363
     16 C           6.5463   -0.0992   34.3240 C.ar    1  UNL1        0.0366
     17 C           5.3896   -0.5376   35.1723 C.ar    1  UNL1        0.0030
     18 C           4.3354   -1.4362   34.5968 C.ar    1  UNL1       -0.0001
     19 C           4.4380   -1.8963   33.1728 C.ar    1  UNL1        0.0004
     20 C           5.5948   -1.4580   32.3243 C.ar    1  UNL1        0.0301
     21 C           9.1032   -0.8717   32.1068 C.3     1  UNL1        0.2525
     22 O           7.8057   -0.1210   32.0516 O.3     1  UNL1       -0.4717
     23 C           5.2870   -0.0774   36.5963 C.2     1  UNL1        0.0013
     24 C           4.1411    0.7913   37.0230 C.2     1  UNL1        0.0151
     25 C           4.0385    1.2515   38.4470 C.2     1  UNL1        0.0729
     26 O           5.0995    2.1394   39.0265 O.co2   1  UNL1       -0.5446
     27 O           2.8748    0.8236   39.2914 O.co2   1  UNL1       -0.5446
     28 C           4.3944    0.1915   30.1247 C.3     1  UNL1        0.1398
     29 C           2.9164    0.3150   29.9011 C.3     1  UNL1        0.2786
     30 C           1.4383    0.4386   29.6775 C.3     1  UNL1        0.0737
     31 F           3.1284    1.6402   29.2312 F       1  UNL1       -0.2028
     32 F           2.7042   -1.0101   30.5711 F       1  UNL1       -0.2028
@<TRIPOS>UNITY_ATOM_ATTR
26 1
charge -1
@<TRIPOS>BOND
     1    21    22    1
     2    22    15    1
     3    15    16   ar
     4    16    17   ar
     5    17    23    1
     6    23    24    2
     7    24    25    1
     8    25    26   ar
     9    25    27   ar
    10    17    18   ar
    11    18    19   ar
    12    19    20   ar
    13     1    20    1
    14     1     2    1
    15     2     3    2
    16     3     4    1
    17     4     5    2
    18     5     6    1
    19     6     7    2
    20     7     8    1
    21     8     9    2
    22     9    10    1
    23    10    11    1
    24    11    12    1
    25    12    13    1
    26    12    14    1
    27    14    28    1
    28    28    29    1
    29    29    30    1
    30    29    31    1
    31    29    32    1
    32    20    15   ar
    33    14     1    1
    34    10     2    1
    35     9     5    1
@<TRIPOS>MOLECULE
*****
 32 35 0 0 0
SMALL
GASTEIGER

@<TRIPOS>ATOM
      1 C           3.8381   -0.8843   20.7462 C.3     1  UNL1        0.1024
      2 C           2.7170    0.0340   21.1337 C.2     1  UNL1       -0.0217
      3 C           2.4280    0.2951   22.5822 C.2     1  UNL1       -0.0050
      4 C           1.3069    1.2134   22.9696 C.2     1  UNL1        0.0201
      5 C           0.4749    1.8704   21.9085 C.2     1  UNL1        0.1007
      6 N          -0.6868    2.8161   21.9862 N.2     1  UNL1       -0.1482
      7 N          -1.1158    3.1394   20.5857 N.2     1  UNL1       -0.1467
      8 C          -0.2192    2.3935   19.6424 C.2     1  UNL1        0.1197
      9 C           0.7639    1.6092   20.4600 C.2     1  UNL1        0.0216
     10 C           1.8850    0.6910   20.0726 C.3     1  UNL1        0.0466
     11 C           2.1740    0.4298   18.6240 C.3     1  UNL1        0.0245
     12 C           3.2951   -0.4884   18.2366 C.3     1  UNL1        0.0589
     13 C           3.5841   -0.7495   16.7880 C.3     1  UNL1        0.0174
     14 N           4.1271   -1.1454   19.2978 N.3     1  UNL1       -0.2637
     15 C           5.9001   -0.8576   22.3264 C.ar    1  UNL1        0.1363
     16 C           6.7322   -1.5147   23.3876 C.ar    1  UNL1        0.0366
     17 C           6.3342   -2.8554   23.9297 C.ar    1  UNL1        0.0030
     18 C           5.1041   -3.5392   23.4106 C.ar    1  UNL1       -0.0001
     19 C           4.2721   -2.8822   22.3495 C.ar    1  UNL1        0.0004
     20 C           4.6701   -1.5413   21.8074 C.ar    1  UNL1        0.0301
     21 C           7.3067    0.5756   20.6779 C.3     1  UNL1        0.2525
     22 O           6.2982    0.4832   21.7844 O.3     1  UNL1       -0.4717
     23 C           7.1662   -3.5124   24.9908 C.2     1  UNL1        0.0013
     24 C           6.8884   -4.9313   25.3902 C.2     1  UNL1        0.0151
     25 C           7.7204   -5.5884   26.4514 C.2     1  UNL1        0.0729
     26 O           7.0916   -6.0005   27.7494 O.co2   1  UNL1       -0.5446
     27 O           9.1812   -5.8332   26.2144 O.co2   1  UNL1       -0.5446
     28 C           5.2482   -2.0637   18.9103 C.3     1  UNL1        0.1398
     29 C           5.0458   -3.5495   18.9425 C.3     1  UNL1        0.2786
     30 C           4.8435   -5.0355   18.9747 C.3     1  UNL1        0.0737
     31 F           6.4877   -3.7380   19.3107 F       1  UNL1       -0.2028
     32 F           3.6040   -3.3613   18.5743 F       1  UNL1       -0.2028
@<TRIPOS>UNITY_ATOM_ATTR
26 1
charge -1
@<TRIPOS>BOND
     1    21    22    1
     2    22    15    1
     3    15    16   ar
     4    16    17   ar
     5    17    23    1
     6    23    24    2
     7    24    25    1
     8    25    26   ar
     9    25    27   ar
    10    17    18   ar
    11    18    19   ar
    12    19    20   ar
    13     1    20    1
    14     1     2    1
    15     2     3    2
    16     3     4    1
    17     4     5    2
    18     5     6    1
    19     6     7    2
    20     7     8    1
    21     8     9    2
    22     9    10    1
    23    10    11    1
    24    11    12    1
    25    12    13    1
    26    12    14    1
    27    14    28    1
    28    28    29    1
    29    29    30    1
    30    29    31    1
    31    29    32    1
    32    20    15   ar
    33    14     1    1
    34    10     2    1
    35     9     5    1
@<TRIPOS>MOLECULE
*****
 32 35 0 0 0
SMALL
GASTEIGER

@<TRIPOS>ATOM
      1 C           3.8584   -1.0957   22.3233 C.3     1  UNL1        0.1024
      2 C           3.6492   -0.8028   23.7796 C.2     1  UNL1       -0.0217
      3 C           2.6518    0.2355   24.2001 C.2     1  UNL1       -0.0050
      4 C           2.4426    0.5284   25.6563 C.2     1  UNL1        0.0201
      5 C           3.2309   -0.2172   26.6920 C.2     1  UNL1        0.1007
      6 N           3.2407   -0.1449   28.1902 N.2     1  UNL1       -0.1482
      7 N           4.2442   -1.1387   28.6956 N.2     1  UNL1       -0.1467
      8 C           4.8547   -1.8251   27.5098 C.2     1  UNL1        0.1197
      9 C           4.2284   -1.2556   26.2714 C.2     1  UNL1        0.0216
     10 C           4.4375   -1.5484   24.8152 C.3     1  UNL1        0.0466
     11 C           5.4350   -2.5868   24.3947 C.3     1  UNL1        0.0245
     12 C           5.6441   -2.8796   22.9385 C.3     1  UNL1        0.0589
     13 C           6.6416   -3.9180   22.5180 C.3     1  UNL1        0.0174
     14 N           4.8557   -2.1340   21.9028 N.3     1  UNL1       -0.2637
     15 C           3.5957    0.9391   20.7294 C.ar    1  UNL1        0.1363
     16 C           2.8073    1.6847   19.6937 C.ar    1  UNL1        0.0366
     17 C           1.4934    1.1412   19.2163 C.ar    1  UNL1        0.0030
     18 C           0.9676   -0.1480   19.7746 C.ar    1  UNL1       -0.0001
     19 C           1.7559   -0.8936   20.8103 C.ar    1  UNL1        0.0004
     20 C           3.0700   -0.3501   21.2877 C.ar    1  UNL1        0.0301
     21 C           6.1580    1.2312   20.4139 C.3     1  UNL1        0.2525
     22 O           4.9097    1.4826   21.2068 O.3     1  UNL1       -0.4717
     23 C           0.7050    1.8868   18.1807 C.2     1  UNL1        0.0013
     24 C           0.0281    3.1767   18.5383 C.2     1  UNL1        0.0151
     25 C          -0.7602    3.9223   17.5027 C.2     1  UNL1        0.0729
     26 O          -0.0497    4.7247   16.4533 O.co2   1  UNL1       -0.5446
     27 O          -2.2592    3.8654   17.5165 O.co2   1  UNL1       -0.5446
     28 C           5.0649   -2.4269   20.4466 C.3     1  UNL1        0.1398
     29 C           4.1510   -3.3793   19.7343 C.3     1  UNL1        0.2786
     30 C           3.2371   -4.3318   19.0219 C.3     1  UNL1        0.0737
     31 F           4.3270   -2.5992   18.4653 F       1  UNL1       -0.2028
     32 F           3.9750   -4.1595   21.0032 F       1  UNL1       -0.2028
@<TRIPOS>UNITY_ATOM_ATTR
26 1
charge -1
@<TRIPOS>BOND
     1    21    22    1
     2    22    15    1
     3    15    16   ar
     4    16    17   ar
     5    17    23    1
     6    23    24    2
     7    24    25    1
     8    25    26   ar
     9    25    27   ar
    10    17    18   ar
    11    18    19   ar
    12    19    20   ar
    13     1    20    1
    14     1     2    1
    15     2     3    2
    16     3     4    1
    17     4     5    2
    18     5     6    1
    19     6     7    2
    20     7     8    1
    21     8     9    2
    22     9    10    1
    23    10    11    1
    24    11    12    1
    25    12    13    1
    26    12    14    1
    27    14    28    1
    28    28    29    1
    29    29    30    1
    30    29    31    1
    31    29    32    1
    32    20    15   ar
    33    14     1    1
    34    10     2    1
    35     9     5    1
@<TRIPOS>MOLECULE
*****
 32 35 0 0 0
SMALL
GASTEIGER

@<TRIPOS>ATOM
      1 C           6.6408   -3.4633   24.8191 C.3     1  UNL1        0.1024
      2 C           7.1766   -4.7997   25.2400 C.2     1  UNL1       -0.0217
      3 C           7.5148   -5.8317   24.2054 C.2     1  UNL1       -0.0050
      4 C           8.0506   -7.1681   24.6263 C.2     1  UNL1        0.0201
      5 C           8.2483   -7.4723   26.0817 C.2     1  UNL1        0.1007
      6 N           8.7555   -8.6921   26.7923 N.2     1  UNL1       -0.1482
      7 N           8.7309   -8.4138   28.2660 N.2     1  UNL1       -0.1467
      8 C           8.2084   -7.0220   28.4663 C.2     1  UNL1        0.1197
      9 C           7.9101   -6.4402   27.1163 C.2     1  UNL1        0.0216
     10 C           7.3743   -5.1038   26.6954 C.3     1  UNL1        0.0466
     11 C           7.0362   -4.0717   27.7300 C.3     1  UNL1        0.0245
     12 C           6.5004   -2.7354   27.3091 C.3     1  UNL1        0.0589
     13 C           6.1622   -1.7033   28.3438 C.3     1  UNL1        0.0174
     14 N           6.3027   -2.4312   25.8537 N.3     1  UNL1       -0.2637
     15 C           7.4998   -2.4145   22.6029 C.ar    1  UNL1        0.1363
     16 C           7.3022   -2.1103   21.1473 C.ar    1  UNL1        0.0366
     17 C           6.0479   -2.5507   20.4527 C.ar    1  UNL1        0.0030
     18 C           4.9911   -3.2954   21.2135 C.ar    1  UNL1       -0.0001
     19 C           5.1888   -3.5996   22.6689 C.ar    1  UNL1        0.0004
     20 C           6.4431   -3.1591   23.3637 C.ar    1  UNL1        0.0301
     21 C           8.9471   -0.5294   23.6526 C.3     1  UNL1        0.2525
     22 O           8.7542   -1.9740   23.2975 O.3     1  UNL1       -0.4717
     23 C           5.8502   -2.2466   18.9972 C.2     1  UNL1        0.0013
     24 C           5.6287   -0.8320   18.5500 C.2     1  UNL1        0.0151
     25 C           5.4310   -0.5279   17.0945 C.2     1  UNL1        0.0729
     26 O           4.1569   -0.9274   16.4111 O.co2   1  UNL1       -0.5446
     27 O           6.5075    0.1758   16.3225 O.co2   1  UNL1       -0.5446
     28 C           5.7668   -1.0948   25.4328 C.3     1  UNL1        0.1398
     29 C           4.4241   -0.9997   24.7712 C.3     1  UNL1        0.2786
     30 C           3.0813   -0.9045   24.1095 C.3     1  UNL1        0.0737
     31 F           5.0360   -0.2272   23.6403 F       1  UNL1       -0.2028
     32 F           3.8121   -1.7721   25.9020 F       1  UNL1       -0.2028
@<TRIPOS>UNITY_ATOM_ATTR
26 1
charge -1
@<TRIPOS>BOND
     1    21    22    1
     2    22    15    1
     3    15    16   ar
     4    16    17   ar
     5    17    23    1
     6    23    24    2
     7    24    25    1
     8    25    26   ar
     9    25    27   ar
    10    17    18   ar
    11    18    19   ar
    12    19    20   ar
    13     1    20    1
    14     1     2    1
    15     2     3    2
    16     3     4    1
    17     4     5    2
    18     5     6    1
    19     6     7    2
    20     7     8    1
    21     8     9    2
    22     9    10    1
    23    10    11    1
    24    11    12    1
    25    12    13    1
    26    12    14    1
    27    14    28    1
    28    28    29    1
    29    29    30    1
    30    29    31    1
    31    29    32    1
    32    20    15   ar
    33    14     1    1
    34    10     2    1
    35     9     5    1
@<TRIPOS>MOLECULE
*****
 32 35 0 0 0
SMALL
GASTEIGER

@<TRIPOS>ATOM
      1 C          -0.4163    3.2140   26.0713 C.3     1  UNL1        0.1024
      2 C          -1.8632    3.4657   25.7660 C.2     1  UNL1       -0.0217
      3 C          -2.8317    3.7220   26.8822 C.2     1  UNL1       -0.0050
      4 C          -4.2787    3.9737   26.5769 C.2     1  UNL1        0.0201
      5 C          -4.7570    3.9689   25.1552 C.2     1  UNL1        0.1007
      6 N          -6.1134    4.1837   24.5519 N.2     1  UNL1       -0.1482
      7 N          -5.9831    4.0601   23.0627 N.2     1  UNL1       -0.1467
      8 C          -4.5462    3.7689   22.7457 C.2     1  UNL1        0.1197
      9 C          -3.7884    3.7126   24.0389 C.2     1  UNL1        0.0216
     10 C          -2.3415    3.4609   24.3443 C.3     1  UNL1        0.0466
     11 C          -1.3729    3.2046   23.2280 C.3     1  UNL1        0.0245
     12 C           0.0739    2.9529   23.5334 C.3     1  UNL1        0.0589
     13 C           1.0424    2.6966   22.4170 C.3     1  UNL1        0.0174
     14 N           0.5522    2.9577   24.9550 N.3     1  UNL1       -0.2637
     15 C          -0.0473    1.9756   28.3252 C.ar    1  UNL1        0.1363
     16 C           0.4310    1.9803   29.7470 C.ar    1  UNL1        0.0366
     17 C           1.0185    3.2281   30.3364 C.ar    1  UNL1        0.0030
     18 C           1.1278    4.4714   29.5043 C.ar    1  UNL1       -0.0001
     19 C           0.6496    4.4667   28.0826 C.ar    1  UNL1        0.0004
     20 C           0.0620    3.2188   27.4930 C.ar    1  UNL1        0.0301
     21 C          -1.1134   -0.3734   28.6350 C.3     1  UNL1        0.2525
     22 O          -0.6348    0.7277   27.7357 O.3     1  UNL1       -0.4717
     23 C           1.4968    3.2329   31.7581 C.2     1  UNL1        0.0013
     24 C           1.9668    1.9590   32.3955 C.2     1  UNL1        0.0151
     25 C           2.4451    1.9637   33.8172 C.2     1  UNL1        0.0729
     26 O           3.5560    1.0478   34.2379 O.co2   1  UNL1       -0.5446
     27 O           1.8124    2.8844   34.8183 O.co2   1  UNL1       -0.5446
     28 C           1.9991    2.7060   25.2604 C.3     1  UNL1        0.1398
     29 C           2.4074    1.4542   25.9787 C.3     1  UNL1        0.2786
     30 C           2.8157    0.2023   26.6971 C.3     1  UNL1        0.0737
     31 F           3.1829    2.2740   26.9668 F       1  UNL1       -0.2028
     32 F           1.6319    0.6342   24.9906 F       1  UNL1       -0.2028
@<TRIPOS>UNITY_ATOM_ATTR
26 1
charge -1
@<TRIPOS>BOND
     1    21    22    1
     2    22    15    1
     3    15    16   ar
     4    16    17   ar
     5    17    23    1
     6    23    24    2
     7    24    25    1
     8    25    26   ar
     9    25    27   ar
    10    17    18   ar
    11    18    19   ar
    12    19    20   ar
    13     1    20    1
    14     1     2    1
    15     2     3    2
    16     3     4    1
    17     4     5    2
    18     5     6    1
    19     6     7    2
    20     7     8    1
    21     8     9    2
    22     9    10    1
    23    10    11    1
    24    11    12    1
    25    12    13    1
    26    12    14    1
    27    14    28    1
    28    28    29    1
    29    29    30    1
    30    29    31    1
    31    29    32    1
    32    20    15   ar
    33    14     1    1
    34    10     2    1
    35     9     5    1
@<TRIPOS>MOLECULE
*****
 32 35 0 0 0
SMALL
GASTEIGER

@<TRIPOS>ATOM
      1 C           1.8196    2.6978   19.7203 C.3     1  UNL1        0.1024
      2 C           2.3162    1.2948   19.5325 C.2     1  UNL1       -0.0217
      3 C           1.6094    0.1533   20.2013 C.2     1  UNL1       -0.0050
      4 C           2.1060   -1.2497   20.0136 C.2     1  UNL1        0.0201
      5 C           3.3093   -1.5110   19.1571 C.2     1  UNL1        0.1007
      6 N           4.0243   -2.7776   18.7904 N.2     1  UNL1       -0.1482
      7 N           5.1730   -2.4188   17.8950 N.2     1  UNL1       -0.1467
      8 C           5.1680   -0.9305   17.7083 C.2     1  UNL1        0.1197
      9 C           4.0161   -0.3694   18.4883 C.2     1  UNL1        0.0216
     10 C           3.5195    1.0335   18.6760 C.3     1  UNL1        0.0466
     11 C           4.2263    2.1751   18.0073 C.3     1  UNL1        0.0245
     12 C           3.7297    3.5780   18.1950 C.3     1  UNL1        0.0589
     13 C           4.4366    4.7195   17.5262 C.3     1  UNL1        0.0174
     14 N           2.5264    3.8393   19.0515 N.3     1  UNL1       -0.2637
     15 C           0.7844    3.2418   22.0402 C.ar    1  UNL1        0.1363
     16 C          -0.4190    3.5031   22.8968 C.ar    1  UNL1        0.0366
     17 C          -1.7905    3.4817   22.2899 C.ar    1  UNL1        0.0030
     18 C          -1.9587    3.1990   20.8264 C.ar    1  UNL1       -0.0001
     19 C          -0.7554    2.9377   19.9699 C.ar    1  UNL1        0.0004
     20 C           0.6162    2.9591   20.5768 C.ar    1  UNL1        0.0301
     21 C           2.7037    2.0321   23.3064 C.3     1  UNL1        0.2525
     22 O           2.1560    3.2632   22.6472 O.3     1  UNL1       -0.4717
     23 C          -2.9938    3.7430   23.1464 C.2     1  UNL1        0.0013
     24 C          -4.3671    3.4458   22.6212 C.2     1  UNL1        0.0151
     25 C          -5.5704    3.7071   23.4777 C.2     1  UNL1        0.0729
     26 O          -6.8936    4.0106   22.8396 O.co2   1  UNL1       -0.5446
     27 O          -5.4506    3.6648   24.9723 O.co2   1  UNL1       -0.5446
     28 C           2.0298    5.2423   19.2392 C.3     1  UNL1        0.1398
     29 C           0.7366    5.6704   18.6115 C.3     1  UNL1        0.2786
     30 C          -0.5568    6.0986   17.9839 C.3     1  UNL1        0.0737
     31 F           0.2836    6.2308   19.9271 F       1  UNL1       -0.2028
     32 F           1.1895    5.1101   17.2960 F       1  UNL1       -0.2028
@<TRIPOS>UNITY_ATOM_ATTR
26 1
charge -1
@<TRIPOS>BOND
     1    21    22    1
     2    22    15    1
     3    15    16   ar
     4    16    17   ar
     5    17    23    1
     6    23    24    2
     7    24    25    1
     8    25    26   ar
     9    25    27   ar
    10    17    18   ar
    11    18    19   ar
    12    19    20   ar
    13     1    20    1
    14     1     2    1
    15     2     3    2
    16     3     4    1
    17     4     5    2
    18     5     6    1
    19     6     7    2
    20     7     8    1
    21     8     9    2
    22     9    10    1
    23    10    11    1
    24    11    12    1
    25    12    13    1
    26    12    14    1
    27    14    28    1
    28    28    29    1
    29    29    30    1
    30    29    31    1
    31    29    32    1
    32    20    15   ar
    33    14     1    1
    34    10     2    1
    35     9     5    1
@<TRIPOS>MOLECULE
*****
 32 35 0 0 0
SMALL
GASTEIGER

@<TRIPOS>ATOM
      1 C          -0.9972    3.1171   25.3287 C.3     1  UNL1        0.1024
      2 C          -2.4338    3.4658   25.0737 C.2     1  UNL1       -0.0217
      3 C          -3.3830    3.6229   26.2243 C.2     1  UNL1       -0.0050
      4 C          -4.8196    3.9715   25.9694 C.2     1  UNL1        0.0201
      5 C          -5.3067    4.1630   24.5636 C.2     1  UNL1        0.1007
      6 N          -6.6563    4.5081   24.0074 N.2     1  UNL1       -0.1482
      7 N          -6.5410    4.5643   22.5129 N.2     1  UNL1       -0.1467
      8 C          -5.1202    4.2539   22.1455 C.2     1  UNL1        0.1197
      9 C          -4.3573    4.0059   23.4130 C.2     1  UNL1        0.0216
     10 C          -2.9209    3.6572   23.6680 C.3     1  UNL1        0.0466
     11 C          -1.9715    3.5001   22.5173 C.3     1  UNL1        0.0245
     12 C          -0.5350    3.1515   22.7724 C.3     1  UNL1        0.0589
     13 C           0.4143    2.9943   21.6216 C.3     1  UNL1        0.0174
     14 N          -0.0480    2.9600   24.1781 N.3     1  UNL1       -0.2637
     15 C           0.0495    4.0884   27.4991 C.ar    1  UNL1        0.1363
     16 C           0.5367    3.8969   28.9049 C.ar    1  UNL1        0.0366
     17 C           0.4641    2.5428   29.5459 C.ar    1  UNL1        0.0030
     18 C          -0.0955    1.3800   28.7812 C.ar    1  UNL1       -0.0001
     19 C          -0.5826    1.5715   27.3755 C.ar    1  UNL1        0.0004
     20 C          -0.5101    2.9257   26.7344 C.ar    1  UNL1        0.0301
     21 C          -0.1055    6.6754   27.6818 C.3     1  UNL1        0.2525
     22 O           0.1221    5.4426   26.8581 O.3     1  UNL1       -0.4717
     23 C           0.9512    2.3513   30.9516 C.2     1  UNL1        0.0013
     24 C           0.9188    3.4971   31.9192 C.2     1  UNL1        0.0151
     25 C           1.4059    3.3056   33.3249 C.2     1  UNL1        0.0729
     26 O           1.1921    4.3833   34.3461 O.co2   1  UNL1       -0.5446
     27 O           2.1068    2.0363   33.7094 O.co2   1  UNL1       -0.5446
     28 C           1.3886    2.6114   24.4331 C.3     1  UNL1        0.1398
     29 C           1.9137    1.2619   24.0418 C.3     1  UNL1        0.2786
     30 C           2.4389   -0.0876   23.6505 C.3     1  UNL1        0.0737
     31 F           3.1971    1.8926   23.5890 F       1  UNL1       -0.2028
     32 F           0.6304    0.6312   24.4946 F       1  UNL1       -0.2028
@<TRIPOS>UNITY_ATOM_ATTR
26 1
charge -1
@<TRIPOS>BOND
     1    21    22    1
     2    22    15    1
     3    15    16   ar
     4    16    17   ar
     5    17    23    1
     6    23    24    2
     7    24    25    1
     8    25    26   ar
     9    25    27   ar
    10    17    18   ar
    11    18    19   ar
    12    19    20   ar
    13     1    20    1
    14     1     2    1
    15     2     3    2
    16     3     4    1
    17     4     5    2
    18     5     6    1
    19     6     7    2
    20     7     8    1
    21     8     9    2
    22     9    10    1
    23    10    11    1
    24    11    12    1
    25    12    13    1
    26    12    14    1
    27    14    28    1
    28    28    29    1
    29    29    30    1
    30    29    31    1
    31    29    32    1
    32    20    15   ar
    33    14     1    1
    34    10     2    1
    35     9     5    1
@<TRIPOS>MOLECULE
*****
 32 35 0 0 0
SMALL
GASTEIGER

@<TRIPOS>ATOM
      1 C           1.7492    1.5020   27.4601 C.3     1  UNL1        0.1024
      2 C           0.9706    1.9717   26.2670 C.2     1  UNL1       -0.0217
      3 C          -0.0752    3.0351   26.4252 C.2     1  UNL1       -0.0050
      4 C          -0.8537    3.5049   25.2321 C.2     1  UNL1        0.0201
      5 C          -0.5862    2.9110   23.8809 C.2     1  UNL1        0.1007
      6 N          -1.1900    3.1715   22.5327 N.2     1  UNL1       -0.1482
      7 N          -0.5173    2.2690   21.5414 N.2     1  UNL1       -0.1467
      8 C           0.5023    1.4507   22.2768 C.2     1  UNL1        0.1197
      9 C           0.4597    1.8475   23.7227 C.2     1  UNL1        0.0216
     10 C           1.2381    1.3778   24.9158 C.3     1  UNL1        0.0466
     11 C           2.2841    0.3143   24.7577 C.3     1  UNL1        0.0245
     12 C           3.0625   -0.1553   25.9508 C.3     1  UNL1        0.0589
     13 C           4.1084   -1.2189   25.7925 C.3     1  UNL1        0.0174
     14 N           2.7950    0.4385   27.3020 N.3     1  UNL1       -0.2637
     15 C           0.6039    1.3715   29.7885 C.ar    1  UNL1        0.1363
     16 C           0.3364    1.9653   31.1397 C.ar    1  UNL1        0.0366
     17 C           0.9466    3.2834   31.5138 C.ar    1  UNL1        0.0030
     18 C           1.8244    4.0079   30.5367 C.ar    1  UNL1       -0.0001
     19 C           2.0919    3.4140   29.1855 C.ar    1  UNL1        0.0004
     20 C           1.4817    2.0958   28.8113 C.ar    1  UNL1        0.0301
     21 C          -1.3766    0.0069   28.8058 C.3     1  UNL1        0.2525
     22 O          -0.0064    0.0533   29.4144 O.3     1  UNL1       -0.4717
     23 C           0.6791    3.8773   32.8650 C.2     1  UNL1        0.0013
     24 C           1.7593    3.8904   33.9057 C.2     1  UNL1        0.0151
     25 C           1.4918    4.4843   35.2569 C.2     1  UNL1        0.0729
     26 O           1.5992    3.6309   36.4858 O.co2   1  UNL1       -0.5446
     27 O           1.1170    5.9316   35.3791 O.co2   1  UNL1       -0.5446
     28 C           3.5735   -0.0312   28.4951 C.3     1  UNL1        0.1398
     29 C           4.5524    0.8892   29.1617 C.3     1  UNL1        0.2786
     30 C           5.5313    1.8097   29.8284 C.3     1  UNL1        0.0737
     31 F           3.9123    0.6087   30.4889 F       1  UNL1       -0.2028
     32 F           5.1925    1.1698   27.8345 F       1  UNL1       -0.2028
@<TRIPOS>UNITY_ATOM_ATTR
26 1
charge -1
@<TRIPOS>BOND
     1    21    22    1
     2    22    15    1
     3    15    16   ar
     4    16    17   ar
     5    17    23    1
     6    23    24    2
     7    24    25    1
     8    25    26   ar
     9    25    27   ar
    10    17    18   ar
    11    18    19   ar
    12    19    20   ar
    13     1    20    1
    14     1     2    1
    15     2     3    2
    16     3     4    1
    17     4     5    2
    18     5     6    1
    19     6     7    2
    20     7     8    1
    21     8     9    2
    22     9    10    1
    23    10    11    1
    24    11    12    1
    25    12    13    1
    26    12    14    1
    27    14    28    1
    28    28    29    1
    29    29    30    1
    30    29    31    1
    31    29    32    1
    32    20    15   ar
    33    14     1    1
    34    10     2    1
    35     9     5    1
