@<TRIPOS>MOLECULE
*****
 33 36 0 0 0
SMALL
GASTEIGER

@<TRIPOS>ATOM
      1 C           2.5741   -0.9056   20.7212 C.ar    1  UNL1        0.1679
      2 C           1.4396   -0.1519   20.0929 C.ar    1  UNL1        0.0733
      3 C           0.5991    0.7699   20.9258 C.ar    1  UNL1        0.1390
      4 N           0.8931    0.9380   22.3871 N.ar    1  UNL1       -0.2088
      5 C           2.0275    0.1843   23.0154 C.ar    1  UNL1        0.2001
      6 N           2.8680   -0.7375   22.1825 N.ar    1  UNL1       -0.2047
      7 C           4.6918   -5.2787   18.6543 C.3     1  UNL1        0.0540
      8 C           4.3881   -3.8375   18.9382 C.ar    1  UNL1        0.0805
      9 C           5.0283   -2.6542   18.2747 C.ar    1  UNL1        0.0312
     10 C           4.4266   -1.4119   18.8619 C.ar    1  UNL1        0.0637
     11 C           4.7757   -0.0018   18.4884 C.3     1  UNL1        0.0522
     12 N           3.4146   -1.8274   19.8882 N.ar    1  UNL1       -0.2164
     13 N           3.3908   -3.3264   19.9354 N.ar    1  UNL1       -0.1684
     14 C           2.3215    0.3523   24.4767 C.ar    1  UNL1        0.1805
     15 C           3.3949   -0.3574   25.2475 C.ar    1  UNL1        0.0434
     16 C           3.3305    0.1113   26.6709 C.ar    1  UNL1        0.0362
     17 C           2.2173    1.1107   26.7799 C.ar    1  UNL1        0.1234
     18 C           1.8008    1.8342   28.0261 C.3     1  UNL1        0.0725
     19 O           1.5938    1.2597   25.4238 O.2     1  UNL1       -0.4546
     20 N          -0.5355    1.5236   20.2975 N.am    1  UNL1       -0.2681
     21 C          -0.3979    2.9911   20.0191 C.2     1  UNL1        0.2435
     22 O           0.8742    3.7049   20.3690 O.2     1  UNL1       -0.2732
     23 H          -1.3704    1.0552   20.0679 H       1  UNL1        0.1563
     24 C          -1.5324    3.7449   19.3908 C.3     1  UNL1        0.1588
     25 N          -2.9067    3.6655   19.9866 N.3     1  UNL1       -0.2650
     26 C          -4.1992    3.6674   19.2253 C.3     1  UNL1        0.0726
     27 C          -5.3212    3.5734   20.2164 C.3     1  UNL1        0.0201
     28 C          -4.7221    3.5133   21.5903 C.3     1  UNL1        0.0334
     29 C          -3.2300    3.5703   21.4482 C.3     1  UNL1        0.0739
     30 C          -5.4818    3.4138   22.8798 C.3     1  UNL1        0.0736
     31 N          -6.2672    4.5897   23.3802 N.3     1  UNL1       -0.2703
     32 C          -7.7511    4.4756   23.5675 C.3     1  UNL1        0.0897
     33 C          -5.5688    5.8797   23.6935 C.3     1  UNL1        0.0897
@<TRIPOS>BOND
     1     7     8    1
     2     8     9   ar
     3     9    10   ar
     4    10    11    1
     5    10    12   ar
     6    12     1    1
     7     1     2   ar
     8     2     3   ar
     9     3    20    1
    10    20    21   am
    11    21    22    2
    12    21    24    1
    13    24    25    1
    14    25    26    1
    15    26    27    1
    16    27    28    1
    17    28    30    1
    18    30    31    1
    19    31    32    1
    20    31    33    1
    21    28    29    1
    22     3     4   ar
    23     4     5   ar
    24     5    14    1
    25    14    15   ar
    26    15    16   ar
    27    16    17   ar
    28    17    18    1
    29    17    19   ar
    30     5     6   ar
    31    12    13   ar
    32    13     8   ar
    33     6     1   ar
    34    29    25    1
    35    19    14   ar
    36    20    23    1
@<TRIPOS>MOLECULE
*****
 33 36 0 0 0
SMALL
GASTEIGER

@<TRIPOS>ATOM
      1 C           2.2106    0.5323   30.1319 C.ar    1  UNL1        0.1679
      2 C           2.9509   -0.7418   30.4124 C.ar    1  UNL1        0.0733
      3 C           3.4716   -1.0185   31.7916 C.ar    1  UNL1        0.1390
      4 N           3.2521   -0.0212   32.8903 N.ar    1  UNL1       -0.2088
      5 C           2.5118    1.2529   32.6098 C.ar    1  UNL1        0.2001
      6 N           1.9910    1.5296   31.2306 N.ar    1  UNL1       -0.2047
      7 C           1.9529    1.9489   25.0518 C.3     1  UNL1        0.0540
      8 C           1.5713    1.4602   26.4176 C.ar    1  UNL1        0.0805
      9 C           0.2052    1.0097   26.8431 C.ar    1  UNL1        0.0312
     10 C           0.2785    0.6073   28.2862 C.ar    1  UNL1        0.0637
     11 C          -0.8598    0.0933   29.1170 C.3     1  UNL1        0.0522
     12 N           1.6898    0.8091   28.7527 N.ar    1  UNL1       -0.2164
     13 N           2.4888    1.3362   27.5978 N.ar    1  UNL1       -0.1684
     14 C           2.2923    2.2502   33.7085 C.ar    1  UNL1        0.1805
     15 C           1.6202    3.5838   33.5674 C.ar    1  UNL1        0.0434
     16 C           1.6188    4.2468   34.9129 C.ar    1  UNL1        0.0362
     17 C           2.2900    3.3230   35.8856 C.ar    1  UNL1        0.1234
     18 C           2.5070    3.5869   37.3462 C.3     1  UNL1        0.0725
     19 O           2.7062    2.0891   35.1412 O.2     1  UNL1       -0.4546
     20 N           4.2119   -2.2926   32.0721 N.am    1  UNL1       -0.2681
     21 C           5.7035   -2.3423   31.9207 C.2     1  UNL1        0.2435
     22 O           6.4546   -1.1178   31.4887 O.2     1  UNL1       -0.2732
     23 H           3.7189   -3.0962   32.3556 H       1  UNL1        0.1563
     24 C           6.4438   -3.6163   32.2012 C.3     1  UNL1        0.1588
     25 N           7.2642   -4.2600   31.1230 N.3     1  UNL1       -0.2650
     26 C           8.5966   -3.7832   30.6255 C.3     1  UNL1        0.0726
     27 C           9.0521   -4.7220   29.5480 C.3     1  UNL1        0.0201
     28 C           8.0013   -5.7791   29.3795 C.3     1  UNL1        0.0334
     29 C           6.8964   -5.4935   30.3529 C.3     1  UNL1        0.0739
     30 C           8.0474   -6.9212   28.4082 C.3     1  UNL1        0.0736
     31 N           7.4709   -6.7598   27.0329 N.3     1  UNL1       -0.2703
     32 C           7.5825   -7.8760   26.0371 C.3     1  UNL1        0.0897
     33 C           6.7827   -5.4822   26.6532 C.3     1  UNL1        0.0897
@<TRIPOS>BOND
     1     7     8    1
     2     8     9   ar
     3     9    10   ar
     4    10    11    1
     5    10    12   ar
     6    12     1    1
     7     1     2   ar
     8     2     3   ar
     9     3    20    1
    10    20    21   am
    11    21    22    2
    12    21    24    1
    13    24    25    1
    14    25    26    1
    15    26    27    1
    16    27    28    1
    17    28    30    1
    18    30    31    1
    19    31    32    1
    20    31    33    1
    21    28    29    1
    22     3     4   ar
    23     4     5   ar
    24     5    14    1
    25    14    15   ar
    26    15    16   ar
    27    16    17   ar
    28    17    18    1
    29    17    19   ar
    30     5     6   ar
    31    12    13   ar
    32    13     8   ar
    33     6     1   ar
    34    29    25    1
    35    19    14   ar
    36    20    23    1
@<TRIPOS>MOLECULE
*****
 33 36 0 0 0
SMALL
GASTEIGER

@<TRIPOS>ATOM
      1 C           2.3703    1.4961   31.7091 C.ar    1  UNL1        0.1679
      2 C           3.5188    0.5363   31.6115 C.ar    1  UNL1        0.0733
      3 C           4.3626    0.2512   32.8184 C.ar    1  UNL1        0.1390
      4 N           4.0578    0.9259   34.1230 N.ar    1  UNL1       -0.2088
      5 C           2.9093    1.8857   34.2206 C.ar    1  UNL1        0.2001
      6 N           2.0655    2.1708   33.0136 N.ar    1  UNL1       -0.2047
      7 C          -1.1057    0.9582   27.7709 C.3     1  UNL1        0.0540
      8 C          -0.0712    1.5340   28.6919 C.ar    1  UNL1        0.0805
      9 C           0.5273    2.9063   28.5977 C.ar    1  UNL1        0.0312
     10 C           1.5147    3.0590   29.7164 C.ar    1  UNL1        0.0637
     11 C           2.3447    4.2759   29.9998 C.3     1  UNL1        0.0522
     12 N           1.5265    1.7813   30.5021 N.ar    1  UNL1       -0.2164
     13 N           0.5463    0.8388   29.8689 N.ar    1  UNL1       -0.1684
     14 C           2.6045    2.5604   35.5251 C.ar    1  UNL1        0.1805
     15 C           1.9540    3.9015   35.6934 C.ar    1  UNL1        0.0434
     16 C           1.8441    4.1824   37.1627 C.ar    1  UNL1        0.0362
     17 C           2.4268    3.0149   37.9027 C.ar    1  UNL1        0.1234
     18 C           2.5227    2.8745   39.3930 C.3     1  UNL1        0.0725
     19 O           2.8967    2.0125   36.8906 O.2     1  UNL1       -0.4546
     20 N           5.5112   -0.7087   32.7208 N.am    1  UNL1       -0.2681
     21 C           5.2696   -2.1832   32.8528 C.2     1  UNL1        0.2435
     22 O           3.8794   -2.6979   33.0824 O.2     1  UNL1       -0.2732
     23 H           6.4236   -0.3709   32.5701 H       1  UNL1        0.1563
     24 C           6.4181   -3.1431   32.7552 C.3     1  UNL1        0.1588
     25 N           6.6250   -3.9401   31.5015 N.3     1  UNL1       -0.2650
     26 C           7.0096   -5.3882   31.4306 C.3     1  UNL1        0.0726
     27 C           7.1060   -5.7721   29.9838 C.3     1  UNL1        0.0201
     28 C           6.7810   -4.5611   29.1604 C.3     1  UNL1        0.0334
     29 C           6.4837   -3.4289   30.0983 C.3     1  UNL1        0.0739
     30 C           6.7573   -4.4941   27.6620 C.3     1  UNL1        0.0736
     31 N           7.5637   -5.4679   26.8550 N.3     1  UNL1       -0.2703
     32 C           6.9609   -6.7765   26.4376 C.3     1  UNL1        0.0897
     33 C           8.9730   -5.1332   26.4651 C.3     1  UNL1        0.0897
@<TRIPOS>BOND
     1     7     8    1
     2     8     9   ar
     3     9    10   ar
     4    10    11    1
     5    10    12   ar
     6    12     1    1
     7     1     2   ar
     8     2     3   ar
     9     3    20    1
    10    20    21   am
    11    21    22    2
    12    21    24    1
    13    24    25    1
    14    25    26    1
    15    26    27    1
    16    27    28    1
    17    28    30    1
    18    30    31    1
    19    31    32    1
    20    31    33    1
    21    28    29    1
    22     3     4   ar
    23     4     5   ar
    24     5    14    1
    25    14    15   ar
    26    15    16   ar
    27    16    17   ar
    28    17    18    1
    29    17    19   ar
    30     5     6   ar
    31    12    13   ar
    32    13     8   ar
    33     6     1   ar
    34    29    25    1
    35    19    14   ar
    36    20    23    1
@<TRIPOS>MOLECULE
*****
 33 36 0 0 0
SMALL
GASTEIGER

@<TRIPOS>ATOM
      1 C          -2.3405    3.4463   24.3476 C.ar    1  UNL1        0.1679
      2 C          -1.4061    3.5589   23.1797 C.ar    1  UNL1        0.0733
      3 C          -0.0486    2.9238   23.2416 C.ar    1  UNL1        0.1390
      4 N           0.3745    2.1763   24.4713 N.ar    1  UNL1       -0.2088
      5 C          -0.5600    2.0638   25.6392 C.ar    1  UNL1        0.2001
      6 N          -1.9175    2.6988   25.5774 N.ar    1  UNL1       -0.2047
      7 C          -7.4063    4.3649   23.1748 C.3     1  UNL1        0.0540
      8 C          -6.0266    4.5036   23.7468 C.ar    1  UNL1        0.0805
      9 C          -5.5478    5.6136   24.6349 C.ar    1  UNL1        0.0312
     10 C          -4.1087    5.3527   24.9680 C.ar    1  UNL1        0.0637
     11 C          -3.2338    6.2121   25.8317 C.3     1  UNL1        0.0522
     12 N          -3.6981    4.0814   24.2859 N.ar    1  UNL1       -0.2164
     13 N          -4.8835    3.5566   23.5311 N.ar    1  UNL1       -0.1684
     14 C          -0.1370    1.3162   26.8689 C.ar    1  UNL1        0.1805
     15 C          -1.0248    0.9284   28.0141 C.ar    1  UNL1        0.0434
     16 C          -0.1884    0.1977   29.0223 C.ar    1  UNL1        0.0362
     17 C           1.2164    0.1340   28.5003 C.ar    1  UNL1        0.1234
     18 C           2.3844   -0.5083   29.1883 C.3     1  UNL1        0.0725
     19 O           1.2481    0.8252   27.1694 O.2     1  UNL1       -0.4546
     20 N           0.8860    3.0364   22.0736 N.am    1  UNL1       -0.2681
     21 C           0.9431    1.9409   21.0506 C.2     1  UNL1        0.2435
     22 O           0.0656    0.7329   21.1954 O.2     1  UNL1       -0.2732
     23 H           1.4619    3.8292   21.9786 H       1  UNL1        0.1563
     24 C           1.8776    2.0533   19.8827 C.3     1  UNL1        0.1588
     25 N           2.6634    0.8574   19.4330 N.3     1  UNL1       -0.2650
     26 C           2.7512    0.3372   18.0288 C.3     1  UNL1        0.0726
     27 C           3.6414   -0.8701   18.0365 C.3     1  UNL1        0.0201
     28 C           4.1038   -1.0961   19.4454 C.3     1  UNL1        0.0334
     29 C           3.4993   -0.0285   20.3085 C.3     1  UNL1        0.0739
     30 C           5.0112   -2.1964   19.9098 C.3     1  UNL1        0.0736
     31 N           4.4307   -3.4749   20.4373 N.3     1  UNL1       -0.2703
     32 C           3.7419   -4.4268   19.5048 C.3     1  UNL1        0.0897
     33 C           4.5389   -3.8017   21.8973 C.3     1  UNL1        0.0897
@<TRIPOS>BOND
     1     7     8    1
     2     8     9   ar
     3     9    10   ar
     4    10    11    1
     5    10    12   ar
     6    12     1    1
     7     1     2   ar
     8     2     3   ar
     9     3    20    1
    10    20    21   am
    11    21    22    2
    12    21    24    1
    13    24    25    1
    14    25    26    1
    15    26    27    1
    16    27    28    1
    17    28    30    1
    18    30    31    1
    19    31    32    1
    20    31    33    1
    21    28    29    1
    22     3     4   ar
    23     4     5   ar
    24     5    14    1
    25    14    15   ar
    26    15    16   ar
    27    16    17   ar
    28    17    18    1
    29    17    19   ar
    30     5     6   ar
    31    12    13   ar
    32    13     8   ar
    33     6     1   ar
    34    29    25    1
    35    19    14   ar
    36    20    23    1
@<TRIPOS>MOLECULE
*****
 33 36 0 0 0
SMALL
GASTEIGER

@<TRIPOS>ATOM
      1 C           0.6564    1.6407   26.2938 C.ar    1  UNL1        0.1679
      2 C           1.4151    1.7944   25.0090 C.ar    1  UNL1        0.0733
      3 C           0.7765    2.4814   23.8385 C.ar    1  UNL1        0.1390
      4 N          -0.6208    3.0148   23.9528 N.ar    1  UNL1       -0.2088
      5 C          -1.3795    2.8612   25.2376 C.ar    1  UNL1        0.2001
      6 N          -0.7409    2.1741   26.4081 N.ar    1  UNL1       -0.2047
      7 C           4.2532   -0.0961   29.7474 C.3     1  UNL1        0.0540
      8 C           2.9482    0.1553   29.0518 C.ar    1  UNL1        0.0805
      9 C           1.6069   -0.3626   29.4795 C.ar    1  UNL1        0.0312
     10 C           0.5852    0.1309   28.4984 C.ar    1  UNL1        0.0637
     11 C          -0.8877   -0.1494   28.5435 C.3     1  UNL1        0.0522
     12 N           1.2950    0.9537   27.4644 N.ar    1  UNL1       -0.2164
     13 N           2.7554    0.9688   27.8064 N.ar    1  UNL1       -0.1684
     14 C          -2.7768    3.3946   25.3518 C.ar    1  UNL1        0.1805
     15 C          -3.4097    3.9501   26.5931 C.ar    1  UNL1        0.0434
     16 C          -4.8106    4.3650   26.2534 C.ar    1  UNL1        0.0362
     17 C          -5.0435    4.0658   24.8021 C.ar    1  UNL1        0.1234
     18 C          -6.3108    4.3215   24.0415 C.3     1  UNL1        0.0725
     19 O          -3.7865    3.4661   24.2449 O.2     1  UNL1       -0.4546
     20 N           1.5352    2.6351   22.5536 N.am    1  UNL1       -0.2681
     21 C           1.1905    1.7779   21.3719 C.2     1  UNL1        0.2435
     22 O           0.0871    0.7669   21.4752 O.2     1  UNL1       -0.2732
     23 H           2.2594    3.2986   22.4859 H       1  UNL1        0.1563
     24 C           1.9491    1.9315   20.0871 C.3     1  UNL1        0.1588
     25 N           2.7037    0.7668   19.5178 N.3     1  UNL1       -0.2650
     26 C           2.7687    0.3812   18.0697 C.3     1  UNL1        0.0726
     27 C           3.6310   -0.8406   17.9536 C.3     1  UNL1        0.0201
     28 C           4.0990   -1.2102   19.3300 C.3     1  UNL1        0.0334
     29 C           3.5259   -0.2167   20.2967 C.3     1  UNL1        0.0739
     30 C           4.9846   -2.3696   19.6784 C.3     1  UNL1        0.0736
     31 N           4.4030   -3.5875   20.3329 N.3     1  UNL1       -0.2703
     32 C           3.6515   -4.5933   19.5122 C.3     1  UNL1        0.0897
     33 C           4.5728   -3.7997   21.8081 C.3     1  UNL1        0.0897
@<TRIPOS>BOND
     1     7     8    1
     2     8     9   ar
     3     9    10   ar
     4    10    11    1
     5    10    12   ar
     6    12     1    1
     7     1     2   ar
     8     2     3   ar
     9     3    20    1
    10    20    21   am
    11    21    22    2
    12    21    24    1
    13    24    25    1
    14    25    26    1
    15    26    27    1
    16    27    28    1
    17    28    30    1
    18    30    31    1
    19    31    32    1
    20    31    33    1
    21    28    29    1
    22     3     4   ar
    23     4     5   ar
    24     5    14    1
    25    14    15   ar
    26    15    16   ar
    27    16    17   ar
    28    17    18    1
    29    17    19   ar
    30     5     6   ar
    31    12    13   ar
    32    13     8   ar
    33     6     1   ar
    34    29    25    1
    35    19    14   ar
    36    20    23    1
@<TRIPOS>MOLECULE
*****
 33 36 0 0 0
SMALL
GASTEIGER

@<TRIPOS>ATOM
      1 C           5.6017   -1.1267   29.8737 C.ar    1  UNL1        0.1679
      2 C           6.1337   -2.0872   28.8518 C.ar    1  UNL1        0.0733
      3 C           5.3129   -2.4271   27.6432 C.ar    1  UNL1        0.1390
      4 N           3.9602   -1.8064   27.4565 N.ar    1  UNL1       -0.2088
      5 C           3.4282   -0.8458   28.4784 C.ar    1  UNL1        0.2001
      6 N           4.2490   -0.5060   29.6870 N.ar    1  UNL1       -0.2047
      7 C           8.6546    1.4883   33.2976 C.3     1  UNL1        0.0540
      8 C           7.8257    0.4152   32.6562 C.ar    1  UNL1        0.0805
      9 C           7.5452   -0.9427   33.2285 C.ar    1  UNL1        0.0312
     10 C           6.6780   -1.6855   32.2559 C.ar    1  UNL1        0.0637
     11 C           6.1575   -3.0819   32.4267 C.3     1  UNL1        0.0522
     12 N           6.4225   -0.7867   31.0824 N.ar    1  UNL1       -0.2164
     13 N           7.1319    0.5115   31.3298 N.ar    1  UNL1       -0.1684
     14 C           2.0755   -0.2251   28.2916 C.ar    1  UNL1        0.1805
     15 C           1.7216    0.8326   27.2887 C.ar    1  UNL1        0.0434
     16 C           0.2665    1.1583   27.4523 C.ar    1  UNL1        0.0362
     17 C          -0.2789    0.3018   28.5563 C.ar    1  UNL1        0.1234
     18 C          -1.6938    0.3005   29.0542 C.3     1  UNL1        0.0725
     19 O           0.8391   -0.5532   29.0751 O.2     1  UNL1       -0.4546
     20 N           5.8449   -3.3877   26.6213 N.am    1  UNL1       -0.2681
     21 C           6.2748   -2.8875   25.2741 C.2     1  UNL1        0.2435
     22 O           6.1729   -1.4267   24.9489 O.2     1  UNL1       -0.2732
     23 H           5.9118   -4.3465   26.8347 H       1  UNL1        0.1563
     24 C           6.8068   -3.8480   24.2521 C.3     1  UNL1        0.1588
     25 N           6.3499   -3.7554   22.8264 N.3     1  UNL1       -0.2650
     26 C           7.2318   -3.7939   21.6137 C.3     1  UNL1        0.0726
     27 C           6.3578   -3.6703   20.4008 C.3     1  UNL1        0.0201
     28 C           4.9358   -3.5554   20.8640 C.3     1  UNL1        0.0334
     29 C           4.9309   -3.6080   22.3631 C.3     1  UNL1        0.0739
     30 C           3.7302   -3.4130   19.9829 C.3     1  UNL1        0.0736
     31 N           3.3762   -2.0740   19.4071 N.3     1  UNL1       -0.2703
     32 C           2.3206   -1.2320   20.0604 C.3     1  UNL1        0.0897
     33 C           4.0776   -1.5768   18.1779 C.3     1  UNL1        0.0897
@<TRIPOS>BOND
     1     7     8    1
     2     8     9   ar
     3     9    10   ar
     4    10    11    1
     5    10    12   ar
     6    12     1    1
     7     1     2   ar
     8     2     3   ar
     9     3    20    1
    10    20    21   am
    11    21    22    2
    12    21    24    1
    13    24    25    1
    14    25    26    1
    15    26    27    1
    16    27    28    1
    17    28    30    1
    18    30    31    1
    19    31    32    1
    20    31    33    1
    21    28    29    1
    22     3     4   ar
    23     4     5   ar
    24     5    14    1
    25    14    15   ar
    26    15    16   ar
    27    16    17   ar
    28    17    18    1
    29    17    19   ar
    30     5     6   ar
    31    12    13   ar
    32    13     8   ar
    33     6     1   ar
    34    29    25    1
    35    19    14   ar
    36    20    23    1
@<TRIPOS>MOLECULE
*****
 33 36 0 0 0
SMALL
GASTEIGER

@<TRIPOS>ATOM
      1 C           5.9443   -3.4743   23.7174 C.ar    1  UNL1        0.1679
      2 C           5.6519   -2.2037   24.4591 C.ar    1  UNL1        0.0733
      3 C           5.9550   -2.1041   25.9248 C.ar    1  UNL1        0.1390
      4 N           6.5506   -3.2751   26.6487 N.ar    1  UNL1       -0.2088
      5 C           6.8430   -4.5457   25.9070 C.ar    1  UNL1        0.2001
      6 N           6.5398   -4.6452   24.4414 N.ar    1  UNL1       -0.2047
      7 C           3.5735   -4.6503   19.1482 C.3     1  UNL1        0.0540
      8 C           4.5514   -4.1144   20.1515 C.ar    1  UNL1        0.0805
      9 C           5.7979   -3.3398   19.8411 C.ar    1  UNL1        0.0312
     10 C           6.4713   -3.0057   21.1391 C.ar    1  UNL1        0.0637
     11 C           7.7504   -2.2383   21.2967 C.3     1  UNL1        0.0522
     12 N           5.6411   -3.5739   22.2517 N.ar    1  UNL1       -0.2164
     13 N           4.4546   -4.2591   21.6414 N.ar    1  UNL1       -0.1684
     14 C           7.4385   -5.7166   26.6310 C.ar    1  UNL1        0.1805
     15 C           7.3337   -7.1548   26.2179 C.ar    1  UNL1        0.0434
     16 C           8.0739   -7.9821   27.2267 C.ar    1  UNL1        0.0362
     17 C           8.6362   -7.0552   28.2634 C.ar    1  UNL1        0.1234
     18 C           9.4486   -7.4577   29.4584 C.3     1  UNL1        0.0725
     19 O           8.2436   -5.6551   27.8951 O.2     1  UNL1       -0.4546
     20 N           5.6626   -0.8335   26.6665 N.am    1  UNL1       -0.2681
     21 C           4.3874   -0.6956   27.4443 C.2     1  UNL1        0.2435
     22 O           3.4047   -1.8283   27.4803 O.2     1  UNL1       -0.2732
     23 H           6.3076   -0.0901   26.6429 H       1  UNL1        0.1563
     24 C           4.0950    0.5749   28.1860 C.3     1  UNL1        0.1588
     25 N           2.6749    0.9793   28.4502 N.3     1  UNL1       -0.2650
     26 C           2.0935    1.3350   29.7864 C.3     1  UNL1        0.0726
     27 C           0.6461    1.6745   29.5866 C.3     1  UNL1        0.0201
     28 C           0.3330    1.5286   28.1269 C.3     1  UNL1        0.0334
     29 C           1.5869    1.0989   27.4246 C.3     1  UNL1        0.0739
     30 C          -0.9999    1.7699   27.4826 C.3     1  UNL1        0.0736
     31 N          -1.1564    2.8661   26.4709 N.3     1  UNL1       -0.2703
     32 C          -0.9083    2.5869   25.0181 C.3     1  UNL1        0.0897
     33 C          -1.5610    4.2416   26.9118 C.3     1  UNL1        0.0897
@<TRIPOS>BOND
     1     7     8    1
     2     8     9   ar
     3     9    10   ar
     4    10    11    1
     5    10    12   ar
     6    12     1    1
     7     1     2   ar
     8     2     3   ar
     9     3    20    1
    10    20    21   am
    11    21    22    2
    12    21    24    1
    13    24    25    1
    14    25    26    1
    15    26    27    1
    16    27    28    1
    17    28    30    1
    18    30    31    1
    19    31    32    1
    20    31    33    1
    21    28    29    1
    22     3     4   ar
    23     4     5   ar
    24     5    14    1
    25    14    15   ar
    26    15    16   ar
    27    16    17   ar
    28    17    18    1
    29    17    19   ar
    30     5     6   ar
    31    12    13   ar
    32    13     8   ar
    33     6     1   ar
    34    29    25    1
    35    19    14   ar
    36    20    23    1
@<TRIPOS>MOLECULE
*****
 33 36 0 0 0
SMALL
GASTEIGER

@<TRIPOS>ATOM
      1 C           6.2227   -2.0760   30.4175 C.ar    1  UNL1        0.1679
      2 C           5.4330   -1.6355   29.2206 C.ar    1  UNL1        0.0733
      3 C           5.4224   -2.4762   27.9784 C.ar    1  UNL1        0.1390
      4 N           6.2013   -3.7573   27.9330 N.ar    1  UNL1       -0.2088
      5 C           6.9910   -4.1977   29.1299 C.ar    1  UNL1        0.2001
      6 N           7.0016   -3.3571   30.3721 N.ar    1  UNL1       -0.2047
      7 C           7.3051    1.7708   33.8688 C.3     1  UNL1        0.0540
      8 C           6.7309    0.5328   33.2462 C.ar    1  UNL1        0.0805
      9 C           5.7687   -0.4164   33.8968 C.ar    1  UNL1        0.0312
     10 C           5.4612   -1.5092   32.9163 C.ar    1  UNL1        0.0637
     11 C           4.5429   -2.6717   33.1512 C.3     1  UNL1        0.0522
     12 N           6.2334   -1.2353   31.6598 N.ar    1  UNL1       -0.2164
     13 N           7.0180    0.0267   31.8637 N.ar    1  UNL1       -0.1684
     14 C           7.7699   -5.4788   29.0845 C.ar    1  UNL1        0.1805
     15 C           8.8102   -5.9137   30.0738 C.ar    1  UNL1        0.0434
     16 C           9.3285   -7.2536   29.6426 C.ar    1  UNL1        0.0362
     17 C           8.6087   -7.6468   28.3867 C.ar    1  UNL1        0.1234
     18 C           8.8157   -8.9144   27.6118 C.3     1  UNL1        0.0725
     19 O           7.6454   -6.5499   28.0418 O.2     1  UNL1       -0.4546
     20 N           4.6327   -2.0358   26.7815 N.am    1  UNL1       -0.2681
     21 C           5.3360   -1.4492   25.5935 C.2     1  UNL1        0.2435
     22 O           6.8289   -1.3030   25.6024 O.2     1  UNL1       -0.2732
     23 H           3.6529   -2.1317   26.7757 H       1  UNL1        0.1563
     24 C           4.5464   -1.0088   24.3966 C.3     1  UNL1        0.1588
     25 N           4.4373   -1.9051   23.1988 N.3     1  UNL1       -0.2650
     26 C           4.8433   -3.3478   23.1373 C.3     1  UNL1        0.0726
     27 C           4.5600   -3.8504   21.7527 C.3     1  UNL1        0.0201
     28 C           3.9789   -2.7184   20.9585 C.3     1  UNL1        0.0334
     29 C           3.9030   -1.5161   21.8523 C.3     1  UNL1        0.0739
     30 C           3.5490   -2.7781   19.5226 C.3     1  UNL1        0.0736
     31 N           4.3266   -2.0374   18.4756 N.3     1  UNL1       -0.2703
     32 C           3.7658   -0.7843   17.8711 C.3     1  UNL1        0.0897
     33 C           5.6651   -2.5495   18.0328 C.3     1  UNL1        0.0897
@<TRIPOS>BOND
     1     7     8    1
     2     8     9   ar
     3     9    10   ar
     4    10    11    1
     5    10    12   ar
     6    12     1    1
     7     1     2   ar
     8     2     3   ar
     9     3    20    1
    10    20    21   am
    11    21    22    2
    12    21    24    1
    13    24    25    1
    14    25    26    1
    15    26    27    1
    16    27    28    1
    17    28    30    1
    18    30    31    1
    19    31    32    1
    20    31    33    1
    21    28    29    1
    22     3     4   ar
    23     4     5   ar
    24     5    14    1
    25    14    15   ar
    26    15    16   ar
    27    16    17   ar
    28    17    18    1
    29    17    19   ar
    30     5     6   ar
    31    12    13   ar
    32    13     8   ar
    33     6     1   ar
    34    29    25    1
    35    19    14   ar
    36    20    23    1
@<TRIPOS>MOLECULE
*****
 33 36 0 0 0
SMALL
GASTEIGER

@<TRIPOS>ATOM
      1 C           5.9864   -3.5152   23.8876 C.ar    1  UNL1        0.1679
      2 C           5.6760   -2.2057   24.5501 C.ar    1  UNL1        0.0733
      3 C           5.9272   -2.0300   26.0184 C.ar    1  UNL1        0.1390
      4 N           6.4888   -3.1637   26.8242 N.ar    1  UNL1       -0.2088
      5 C           6.7992   -4.4731   26.1617 C.ar    1  UNL1        0.2001
      6 N           6.5480   -4.6489   24.6934 N.ar    1  UNL1       -0.2047
      7 C           3.6231   -4.5965   19.2912 C.3     1  UNL1        0.0540
      8 C           4.6489   -4.1880   20.3065 C.ar    1  UNL1        0.0805
      9 C           6.0485   -3.7349   20.0129 C.ar    1  UNL1        0.0312
     10 C           6.7198   -3.4277   21.3186 C.ar    1  UNL1        0.0637
     11 C           8.1283   -2.9425   21.4931 C.3     1  UNL1        0.0522
     12 N           5.7352   -3.6910   22.4192 N.ar    1  UNL1       -0.2164
     13 N           4.4554   -4.1608   21.7937 N.ar    1  UNL1       -0.1684
     14 C           7.3608   -5.6068   26.9675 C.ar    1  UNL1        0.1805
     15 C           7.8537   -5.5240   28.3818 C.ar    1  UNL1        0.0434
     16 C           8.3256   -6.8884   28.7889 C.ar    1  UNL1        0.0362
     17 C           8.1244   -7.8145   27.6262 C.ar    1  UNL1        0.1234
     18 C           8.4605   -9.2760   27.5947 C.3     1  UNL1        0.0725
     19 O           7.5282   -7.0224   26.5006 O.2     1  UNL1       -0.4546
     20 N           5.6168   -0.7204   26.6810 N.am    1  UNL1       -0.2681
     21 C           4.3442   -0.5560   27.4578 C.2     1  UNL1        0.2435
     22 O           3.3820   -1.7012   27.5721 O.2     1  UNL1       -0.2732
     23 H           6.2484    0.0311   26.6060 H       1  UNL1        0.1563
     24 C           4.0338    0.7534   28.1204 C.3     1  UNL1        0.1588
     25 N           3.6765    0.7909   29.5767 N.3     1  UNL1       -0.2650
     26 C           2.2891    0.8608   30.1426 C.3     1  UNL1        0.0726
     27 C           2.3989    0.8783   31.6385 C.3     1  UNL1        0.0201
     28 C           3.8542    0.8192   31.9971 C.3     1  UNL1        0.0334
     29 C           4.6438    0.7652   30.7229 C.3     1  UNL1        0.0739
     30 C           4.4205    0.8148   33.3861 C.3     1  UNL1        0.0736
     31 N           4.6183   -0.4832   34.1113 N.3     1  UNL1       -0.2703
     32 C           5.0394   -0.4813   35.5510 C.3     1  UNL1        0.0897
     33 C           4.3950   -1.7831   33.3970 C.3     1  UNL1        0.0897
@<TRIPOS>BOND
     1     7     8    1
     2     8     9   ar
     3     9    10   ar
     4    10    11    1
     5    10    12   ar
     6    12     1    1
     7     1     2   ar
     8     2     3   ar
     9     3    20    1
    10    20    21   am
    11    21    22    2
    12    21    24    1
    13    24    25    1
    14    25    26    1
    15    26    27    1
    16    27    28    1
    17    28    30    1
    18    30    31    1
    19    31    32    1
    20    31    33    1
    21    28    29    1
    22     3     4   ar
    23     4     5   ar
    24     5    14    1
    25    14    15   ar
    26    15    16   ar
    27    16    17   ar
    28    17    18    1
    29    17    19   ar
    30     5     6   ar
    31    12    13   ar
    32    13     8   ar
    33     6     1   ar
    34    29    25    1
    35    19    14   ar
    36    20    23    1
