@<TRIPOS>MOLECULE
*****
 16 17 0 0 0
SMALL
GASTEIGER

@<TRIPOS>ATOM
      1 CL         -5.2117  -15.1615   26.2343 Cl      1  UNL1       -0.0814
      2 C          -6.3944  -15.5025   25.3772 C.ar    1  UNL1        0.0682
      3 C          -6.2121  -15.7391   23.9072 C.ar    1  UNL1        0.0119
      4 C          -7.3950  -16.0801   23.0501 C.ar    1  UNL1       -0.0033
      5 C          -8.7601  -16.1846   23.6629 C.ar    1  UNL1       -0.0199
      6 C          -8.9423  -15.9481   25.1329 C.ar    1  UNL1        0.0080
      7 C          -7.7596  -15.6071   25.9901 C.ar    1  UNL1        0.0679
      8 CL         -7.9418  -15.3705   27.4600 Cl      1  UNL1       -0.0814
      9 C          -9.9429  -16.5257   22.8059 C.3     1  UNL1        0.0424
     10 C         -10.9820  -17.3967   23.4476 C.3     1  UNL1        0.0315
     11 C         -12.2651  -17.9079   22.8624 C.2     1  UNL1       -0.0289
     12 C         -12.8260  -17.6742   21.4910 C.2     1  UNL1       -0.0136
     13 C         -12.2424  -16.8717   20.3661 C.3     1  UNL1        0.0950
     14 N         -10.9538  -16.1046   20.3347 N.3     1  UNL1       -0.2935
     15 C          -9.9304  -15.9507   21.4206 C.3     1  UNL1        0.0735
     16 H         -11.2303  -15.1496   20.1070 H       1  UNL1        0.1236
@<TRIPOS>BOND
     1     1     2    1
     2     2     3   ar
     3     3     4   ar
     4     4     5   ar
     5     9     5    1
     6     9    10    1
     7    10    11    1
     8    11    12    2
     9    12    13    1
    10    13    14    1
    11    14    15    1
    12     5     6   ar
    13     6     7   ar
    14     7     8    1
    15     7     2   ar
    16    15     9    1
    17    14    16    1
@<TRIPOS>MOLECULE
*****
 16 17 0 0 0
SMALL
GASTEIGER

@<TRIPOS>ATOM
      1 CL         -1.8656  -19.6365   20.9937 Cl      1  UNL1       -0.0814
      2 C          -3.3624  -19.6313   21.0914 C.ar    1  UNL1        0.0682
      3 C          -4.1785  -20.4633   20.1471 C.ar    1  UNL1        0.0119
      4 C          -5.6754  -20.4581   20.2448 C.ar    1  UNL1       -0.0033
      5 C          -6.3560  -19.6209   21.2868 C.ar    1  UNL1       -0.0199
      6 C          -5.5399  -18.7889   22.2311 C.ar    1  UNL1        0.0080
      7 C          -4.0431  -18.7941   22.1334 C.ar    1  UNL1        0.0679
      8 CL         -3.2270  -17.9621   23.0778 Cl      1  UNL1       -0.0814
      9 C          -7.8528  -19.6156   21.3845 C.3     1  UNL1        0.0424
     10 C          -8.5893  -19.4731   20.0854 C.3     1  UNL1        0.0315
     11 C         -10.0701  -19.4334   19.8494 C.2     1  UNL1       -0.0289
     12 C         -11.1800  -19.5263   20.8539 C.2     1  UNL1       -0.0136
     13 C         -11.0835  -19.6819   22.3427 C.3     1  UNL1        0.0950
     14 N          -9.8530  -19.7831   23.1946 N.3     1  UNL1       -0.2935
     15 C          -8.4153  -19.7536   22.7681 C.3     1  UNL1        0.0735
     16 H          -9.9554  -20.6705   23.6869 H       1  UNL1        0.1236
@<TRIPOS>BOND
     1     1     2    1
     2     2     3   ar
     3     3     4   ar
     4     4     5   ar
     5     9     5    1
     6     9    10    1
     7    10    11    1
     8    11    12    2
     9    12    13    1
    10    13    14    1
    11    14    15    1
    12     5     6   ar
    13     6     7   ar
    14     7     8    1
    15     7     2   ar
    16    15     9    1
    17    14    16    1
@<TRIPOS>MOLECULE
*****
 16 17 0 0 0
SMALL
GASTEIGER

@<TRIPOS>ATOM
      1 CL        -11.4858  -18.4447   20.0198 Cl      1  UNL1       -0.0814
      2 C         -10.6106  -17.9043   21.1114 C.ar    1  UNL1        0.0682
      3 C          -9.1805  -18.3451   21.2136 C.ar    1  UNL1        0.0119
      4 C          -8.3052  -17.8045   22.3053 C.ar    1  UNL1       -0.0033
      5 C          -8.8601  -16.8232   23.2948 C.ar    1  UNL1       -0.0199
      6 C         -10.2901  -16.3824   23.1926 C.ar    1  UNL1        0.0080
      7 C         -11.1655  -16.9229   22.1009 C.ar    1  UNL1        0.0679
      8 CL        -12.5956  -16.4820   21.9987 Cl      1  UNL1       -0.0814
      9 C          -7.9848  -16.2827   24.3865 C.3     1  UNL1        0.0424
     10 C          -8.5660  -16.3273   25.7686 C.3     1  UNL1        0.0315
     11 C          -7.9501  -15.8692   27.0574 C.2     1  UNL1       -0.0289
     12 C          -6.6010  -15.2535   27.2823 C.2     1  UNL1       -0.0136
     13 C          -5.5345  -14.9436   26.2740 C.3     1  UNL1        0.0950
     14 N          -5.5538  -15.1731   24.7918 N.3     1  UNL1       -0.2935
     15 C          -6.6443  -15.7690   23.9518 C.3     1  UNL1        0.0735
     16 H          -4.7422  -15.7649   24.6142 H       1  UNL1        0.1236
@<TRIPOS>BOND
     1     1     2    1
     2     2     3   ar
     3     3     4   ar
     4     4     5   ar
     5     9     5    1
     6     9    10    1
     7    10    11    1
     8    11    12    2
     9    12    13    1
    10    13    14    1
    11    14    15    1
    12     5     6   ar
    13     6     7   ar
    14     7     8    1
    15     7     2   ar
    16    15     9    1
    17    14    16    1
@<TRIPOS>MOLECULE
*****
 16 17 0 0 0
SMALL
GASTEIGER

@<TRIPOS>ATOM
      1 CL         -3.2108  -20.0414   21.1598 Cl      1  UNL1       -0.0814
      2 C          -4.6351  -19.5855   21.2763 C.ar    1  UNL1        0.0682
      3 C          -5.6666  -20.0944   20.3136 C.ar    1  UNL1        0.0119
      4 C          -7.0910  -19.6385   20.4302 C.ar    1  UNL1       -0.0033
      5 C          -7.4836  -18.6737   21.5095 C.ar    1  UNL1       -0.0199
      6 C          -6.4521  -18.1648   22.4722 C.ar    1  UNL1        0.0080
      7 C          -5.0277  -18.6207   22.3557 C.ar    1  UNL1        0.0679
      8 CL         -3.9962  -18.1118   23.3184 Cl      1  UNL1       -0.0814
      9 C          -8.9079  -18.2177   21.6261 C.3     1  UNL1        0.0424
     10 C          -9.9496  -19.2510   21.3142 C.3     1  UNL1        0.0315
     11 C         -11.4429  -19.1106   21.3384 C.2     1  UNL1       -0.0289
     12 C         -12.2631  -17.9023   21.6803 C.2     1  UNL1       -0.0136
     13 C         -11.7928  -16.5358   22.0826 C.3     1  UNL1        0.0950
     14 N         -10.3861  -16.0404   22.2423 N.3     1  UNL1       -0.2935
     15 C          -9.1022  -16.7889   22.0391 C.3     1  UNL1        0.0735
     16 H         -10.3394  -15.7099   23.2062 H       1  UNL1        0.1236
@<TRIPOS>BOND
     1     1     2    1
     2     2     3   ar
     3     3     4   ar
     4     4     5   ar
     5     9     5    1
     6     9    10    1
     7    10    11    1
     8    11    12    2
     9    12    13    1
    10    13    14    1
    11    14    15    1
    12     5     6   ar
    13     6     7   ar
    14     7     8    1
    15     7     2   ar
    16    15     9    1
    17    14    16    1
@<TRIPOS>MOLECULE
*****
 16 17 0 0 0
SMALL
GASTEIGER

@<TRIPOS>ATOM
      1 CL        -12.3685  -18.4206   23.9697 Cl      1  UNL1       -0.0814
      2 C         -10.9766  -18.6271   23.4503 C.ar    1  UNL1        0.0682
      3 C         -10.2503  -19.9073   23.7397 C.ar    1  UNL1        0.0119
      4 C          -8.8583  -20.1138   23.2204 C.ar    1  UNL1       -0.0033
      5 C          -8.1925  -19.0402   22.4117 C.ar    1  UNL1       -0.0199
      6 C          -8.9188  -17.7600   22.1223 C.ar    1  UNL1        0.0080
      7 C         -10.3108  -17.5535   22.6416 C.ar    1  UNL1        0.0679
      8 CL        -11.0370  -16.2733   22.3522 Cl      1  UNL1       -0.0814
      9 C          -6.8006  -19.2466   21.8923 C.3     1  UNL1        0.0424
     10 C          -6.6327  -20.3657   20.9075 C.3     1  UNL1        0.0315
     11 C          -5.3833  -20.8213   20.2136 C.2     1  UNL1       -0.0289
     12 C          -3.9933  -20.2704   20.3330 C.2     1  UNL1       -0.0136
     13 C          -3.5093  -19.1278   21.1758 C.3     1  UNL1        0.0950
     14 N          -4.2958  -18.2540   22.1074 N.3     1  UNL1       -0.2935
     15 C          -5.7606  -18.3069   22.4262 C.3     1  UNL1        0.0735
     16 H          -4.1442  -17.3074   21.7589 H       1  UNL1        0.1236
@<TRIPOS>BOND
     1     1     2    1
     2     2     3   ar
     3     3     4   ar
     4     4     5   ar
     5     9     5    1
     6     9    10    1
     7    10    11    1
     8    11    12    2
     9    12    13    1
    10    13    14    1
    11    14    15    1
    12     5     6   ar
    13     6     7   ar
    14     7     8    1
    15     7     2   ar
    16    15     9    1
    17    14    16    1
@<TRIPOS>MOLECULE
*****
 16 17 0 0 0
SMALL
GASTEIGER

@<TRIPOS>ATOM
      1 CL        -11.6884  -19.1762   20.7930 Cl      1  UNL1       -0.0814
      2 C         -10.1940  -19.2046   20.9189 C.ar    1  UNL1        0.0682
      3 C          -9.3430  -19.4269   19.7039 C.ar    1  UNL1        0.0119
      4 C          -7.8485  -19.4553   19.8299 C.ar    1  UNL1       -0.0033
      5 C          -7.2051  -19.2613   21.1709 C.ar    1  UNL1       -0.0199
      6 C          -8.0561  -19.0390   22.3860 C.ar    1  UNL1        0.0080
      7 C          -9.5506  -19.0106   22.2601 C.ar    1  UNL1        0.0679
      8 CL        -10.4016  -18.7883   23.4751 Cl      1  UNL1       -0.0814
      9 C          -5.7107  -19.2897   21.2970 C.3     1  UNL1        0.0424
     10 C          -4.9822  -20.0551   20.2322 C.3     1  UNL1        0.0315
     11 C          -3.5054  -20.2688   20.0787 C.2     1  UNL1       -0.0289
     12 C          -2.3926  -19.7699   20.9518 C.2     1  UNL1       -0.0136
     13 C          -2.4814  -18.9341   22.1942 C.3     1  UNL1        0.0950
     14 N          -3.7052  -18.3907   22.8703 N.3     1  UNL1       -0.2935
     15 C          -5.1423  -18.5491   22.4709 C.3     1  UNL1        0.0735
     16 H          -3.5566  -17.3819   22.8954 H       1  UNL1        0.1236
@<TRIPOS>BOND
     1     1     2    1
     2     2     3   ar
     3     3     4   ar
     4     4     5   ar
     5     9     5    1
     6     9    10    1
     7    10    11    1
     8    11    12    2
     9    12    13    1
    10    13    14    1
    11    14    15    1
    12     5     6   ar
    13     6     7   ar
    14     7     8    1
    15     7     2   ar
    16    15     9    1
    17    14    16    1
@<TRIPOS>MOLECULE
*****
 16 17 0 0 0
SMALL
GASTEIGER

@<TRIPOS>ATOM
      1 CL         -1.6653  -18.4818   21.5448 Cl      1  UNL1       -0.0814
      2 C          -3.1482  -18.7016   21.4940 C.ar    1  UNL1        0.0682
      3 C          -3.9738  -18.5367   22.7354 C.ar    1  UNL1        0.0119
      4 C          -5.4568  -18.7566   22.6845 C.ar    1  UNL1       -0.0033
      5 C          -6.1141  -19.1413   21.3923 C.ar    1  UNL1       -0.0199
      6 C          -5.2885  -19.3061   20.1509 C.ar    1  UNL1        0.0080
      7 C          -3.8055  -19.0863   20.2016 C.ar    1  UNL1        0.0679
      8 CL         -2.9799  -19.2512   18.9602 Cl      1  UNL1       -0.0814
      9 C          -7.5970  -19.3611   21.3414 C.3     1  UNL1        0.0424
     10 C          -8.2659  -19.5952   22.6635 C.3     1  UNL1        0.0315
     11 C          -9.7181  -19.8438   22.9459 C.2     1  UNL1       -0.0289
     12 C         -10.8597  -19.9197   21.9760 C.2     1  UNL1       -0.0136
     13 C         -10.8314  -19.7657   20.4842 C.3     1  UNL1        0.0950
     14 N          -9.6544  -19.4979   19.5938 N.3     1  UNL1       -0.2935
     15 C          -8.2149  -19.3178   19.9754 C.3     1  UNL1        0.0735
     16 H          -9.8974  -18.6388   19.1005 H       1  UNL1        0.1236
@<TRIPOS>BOND
     1     1     2    1
     2     2     3   ar
     3     3     4   ar
     4     4     5   ar
     5     9     5    1
     6     9    10    1
     7    10    11    1
     8    11    12    2
     9    12    13    1
    10    13    14    1
    11    14    15    1
    12     5     6   ar
    13     6     7   ar
    14     7     8    1
    15     7     2   ar
    16    15     9    1
    17    14    16    1
@<TRIPOS>MOLECULE
*****
 16 17 0 0 0
SMALL
GASTEIGER

@<TRIPOS>ATOM
      1 CL        -11.4294  -17.8859   23.4731 Cl      1  UNL1       -0.0814
      2 C          -9.9924  -18.1290   23.1186 C.ar    1  UNL1        0.0682
      3 C          -9.6053  -19.3653   22.3625 C.ar    1  UNL1        0.0119
      4 C          -8.1681  -19.6084   22.0079 C.ar    1  UNL1       -0.0033
      5 C          -7.1182  -18.6152   22.4094 C.ar    1  UNL1       -0.0199
      6 C          -7.5054  -17.3789   23.1655 C.ar    1  UNL1        0.0080
      7 C          -8.9425  -17.1358   23.5201 C.ar    1  UNL1        0.0679
      8 CL         -9.3296  -15.8995   24.2762 Cl      1  UNL1       -0.0814
      9 C          -5.6811  -18.8582   22.0548 C.3     1  UNL1        0.0424
     10 C          -4.6727  -18.1144   22.8794 C.3     1  UNL1        0.0315
     11 C          -3.1765  -18.1415   22.7754 C.2     1  UNL1       -0.0289
     12 C          -2.3194  -18.9192   21.8213 C.2     1  UNL1       -0.0136
     13 C          -2.7465  -19.8618   20.7354 C.3     1  UNL1        0.0950
     14 N          -4.1365  -20.2595   20.3355 N.3     1  UNL1       -0.2935
     15 C          -5.4425  -19.8128   20.9228 C.3     1  UNL1        0.0735
     16 H          -4.1484  -21.2751   20.4288 H       1  UNL1        0.1236
@<TRIPOS>BOND
     1     1     2    1
     2     2     3   ar
     3     3     4   ar
     4     4     5   ar
     5     9     5    1
     6     9    10    1
     7    10    11    1
     8    11    12    2
     9    12    13    1
    10    13    14    1
    11    14    15    1
    12     5     6   ar
    13     6     7   ar
    14     7     8    1
    15     7     2   ar
    16    15     9    1
    17    14    16    1
@<TRIPOS>MOLECULE
*****
 16 17 0 0 0
SMALL
GASTEIGER

@<TRIPOS>ATOM
      1 CL        -13.1812  -18.1532   21.6137 Cl      1  UNL1       -0.0814
      2 C         -11.7050  -18.0785   21.8688 C.ar    1  UNL1        0.0682
      3 C         -10.8372  -19.2735   21.6065 C.ar    1  UNL1        0.0119
      4 C          -9.3609  -19.1988   21.8616 C.ar    1  UNL1       -0.0033
      5 C          -8.7525  -17.9291   22.3789 C.ar    1  UNL1       -0.0199
      6 C          -9.6203  -16.7341   22.6412 C.ar    1  UNL1        0.0080
      7 C         -11.0966  -16.8088   22.3861 C.ar    1  UNL1        0.0679
      8 CL        -11.9644  -15.6138   22.6484 Cl      1  UNL1       -0.0814
      9 C          -7.2762  -17.8544   22.6340 C.3     1  UNL1        0.0424
     10 C          -6.8054  -16.6415   23.3806 C.3     1  UNL1        0.0315
     11 C          -5.4080  -16.2770   23.7864 C.2     1  UNL1       -0.0289
     12 C          -4.1365  -17.0353   23.5458 C.2     1  UNL1       -0.0136
     13 C          -3.9481  -18.3454   22.8400 C.3     1  UNL1        0.0950
     14 N          -4.9848  -19.2208   22.2005 N.3     1  UNL1       -0.2935
     15 C          -6.4660  -19.0022   22.1088 C.3     1  UNL1        0.0735
     16 H          -4.8879  -20.1191   22.6737 H       1  UNL1        0.1236
@<TRIPOS>BOND
     1     1     2    1
     2     2     3   ar
     3     3     4   ar
     4     4     5   ar
     5     9     5    1
     6     9    10    1
     7    10    11    1
     8    11    12    2
     9    12    13    1
    10    13    14    1
    11    14    15    1
    12     5     6   ar
    13     6     7   ar
    14     7     8    1
    15     7     2   ar
    16    15     9    1
    17    14    16    1
