@<TRIPOS>MOLECULE
*****
 30 33 0 0 0
SMALL
GASTEIGER

@<TRIPOS>ATOM
      1 C           0.4282    1.9564   19.0452 C.ar    1  UNL1        0.1232
      2 C          -0.6467    2.3821   20.0009 C.ar    1  UNL1        0.1181
      3 N          -1.4506    3.4638   19.3425 N.ar    1  UNL1       -0.2208
      4 N          -0.8724    3.7067   17.9798 N.ar    1  UNL1       -0.0633
      5 N           0.2887    2.7750   17.7961 N.ar    1  UNL1       -0.1287
      6 C           3.5273   -1.2192   19.7942 C.ar    1  UNL1        0.0651
      7 C           2.3452   -1.0944   20.7090 C.ar    1  UNL1        0.0176
      8 C           1.3122   -0.0359   20.4593 C.ar    1  UNL1        0.0031
      9 C           1.4613    0.8978   19.2948 C.ar    1  UNL1        0.0211
     10 C           2.6435    0.7730   18.3800 C.ar    1  UNL1        0.0031
     11 C           3.6765   -0.2856   18.6297 C.ar    1  UNL1        0.0176
     12 C           3.2240   -4.3953   19.1084 C.3     1  UNL1        0.0722
     13 C           4.4210   -3.7377   19.7286 C.ar    1  UNL1        0.1247
     14 N           5.6887   -4.4244   20.1425 N.ar    1  UNL1       -0.2290
     15 C           6.6117   -3.3890   20.7135 C.ar    1  UNL1        0.1192
     16 C           5.9143   -2.0623   20.6525 C.ar    1  UNL1        0.1019
     17 N           4.5604   -2.2778   20.0438 N.ar    1  UNL1       -0.2923
     18 C          -2.6261    4.1774   19.9415 C.3     1  UNL1        0.2139
     19 C          -3.0373    3.8900   21.3551 C.2     1  UNL1        0.2511
     20 O          -4.0029    2.7790   21.6442 O.2     1  UNL1       -0.2726
     21 N          -2.4829    4.7134   22.4796 N.am    1  UNL1       -0.2816
     22 H          -1.8492    5.4426   22.2899 H       1  UNL1        0.1549
     23 C          -2.8941    4.4260   23.8932 C.ar    1  UNL1        0.0619
     24 C          -4.1981    4.9513   24.4165 C.ar    1  UNL1        0.0156
     25 C          -4.6093    4.6638   25.8301 C.ar    1  UNL1        0.0022
     26 C          -3.7164    3.8511   26.7204 C.ar    1  UNL1        0.0123
     27 C          -2.4126    3.3259   26.1971 C.ar    1  UNL1        0.0694
     28 CL         -1.5198    2.5132   27.0874 Cl      1  UNL1       -0.0813
     29 C          -2.0014    3.6133   24.7835 C.ar    1  UNL1        0.0816
     30 CL         -0.6974    3.0881   24.2601 Cl      1  UNL1       -0.0801
@<TRIPOS>BOND
     1    12    13    1
     2    13    14   ar
     3    14    15   ar
     4    15    16   ar
     5    16    17   ar
     6    17     6    1
     7     6     7   ar
     8     7     8   ar
     9     8     9   ar
    10     9     1    1
    11     1     2   ar
    12     2     3   ar
    13     3    18    1
    14    18    19    1
    15    19    20    2
    16    19    21   am
    17    21    23    1
    18    23    24   ar
    19    24    25   ar
    20    25    26   ar
    21    26    27   ar
    22    27    28    1
    23    27    29   ar
    24    29    30    1
    25     3     4   ar
    26     4     5   ar
    27     9    10   ar
    28    10    11   ar
    29    17    13   ar
    30    11     6   ar
    31     5     1   ar
    32    29    23   ar
    33    21    22    1
@<TRIPOS>MOLECULE
*****
 30 33 0 0 0
SMALL
GASTEIGER

@<TRIPOS>ATOM
      1 C          -0.0716    2.0015   22.6389 C.ar    1  UNL1        0.1232
      2 C           0.8361    1.2329   21.7249 C.ar    1  UNL1        0.1181
      3 N           0.4205    1.5176   20.3121 N.ar    1  UNL1       -0.2208
      4 N          -0.7440    2.4622   20.3529 N.ar    1  UNL1       -0.0633
      5 N          -1.0481    2.7613   21.7909 N.ar    1  UNL1       -0.1287
      6 C           0.1042    2.0241   27.1354 C.ar    1  UNL1        0.0651
      7 C          -0.9799    2.7776   26.4235 C.ar    1  UNL1        0.0176
      8 C          -1.0385    2.7701   24.9247 C.ar    1  UNL1        0.0031
      9 C          -0.0129    2.0090   24.1378 C.ar    1  UNL1        0.0211
     10 C           1.0712    1.2556   24.8498 C.ar    1  UNL1        0.0031
     11 C           1.1297    1.2631   26.3486 C.ar    1  UNL1        0.0176
     12 C          -1.1273   -0.2595   29.1148 C.3     1  UNL1        0.0722
     13 C          -0.4032    0.9820   29.5441 C.ar    1  UNL1        0.1247
     14 N          -0.1181    1.3918   30.9586 N.ar    1  UNL1       -0.2290
     15 C           0.6243    2.6948   30.9230 C.ar    1  UNL1        0.1192
     16 C           0.7979    3.0902   29.4865 C.ar    1  UNL1        0.1019
     17 N           0.1629    2.0317   28.6343 N.ar    1  UNL1       -0.2923
     18 C           1.0576    0.9562   19.0755 C.3     1  UNL1        0.2139
     19 C           2.2708    0.0814   19.1879 C.2     1  UNL1        0.2511
     20 O           3.6055    0.5871   18.7264 O.2     1  UNL1       -0.2726
     21 N           2.1494   -1.2992   19.7617 N.am    1  UNL1       -0.2816
     22 H           1.2734   -1.6311   20.0646 H       1  UNL1        0.1549
     23 C           3.3627   -2.1741   19.8741 C.ar    1  UNL1        0.0619
     24 C           3.8937   -2.8792   18.6614 C.ar    1  UNL1        0.0156
     25 C           5.1070   -3.7541   18.7738 C.ar    1  UNL1        0.0022
     26 C           5.7892   -3.9237   20.0989 C.ar    1  UNL1        0.0123
     27 C           5.2581   -3.2186   21.3116 C.ar    1  UNL1        0.0694
     28 CL          5.9403   -3.3883   22.6367 Cl      1  UNL1       -0.0813
     29 C           4.0448   -2.3437   21.1992 C.ar    1  UNL1        0.0816
     30 CL          3.5137   -1.6385   22.4119 Cl      1  UNL1       -0.0801
@<TRIPOS>BOND
     1    12    13    1
     2    13    14   ar
     3    14    15   ar
     4    15    16   ar
     5    16    17   ar
     6    17     6    1
     7     6     7   ar
     8     7     8   ar
     9     8     9   ar
    10     9     1    1
    11     1     2   ar
    12     2     3   ar
    13     3    18    1
    14    18    19    1
    15    19    20    2
    16    19    21   am
    17    21    23    1
    18    23    24   ar
    19    24    25   ar
    20    25    26   ar
    21    26    27   ar
    22    27    28    1
    23    27    29   ar
    24    29    30    1
    25     3     4   ar
    26     4     5   ar
    27     9    10   ar
    28    10    11   ar
    29    17    13   ar
    30    11     6   ar
    31     5     1   ar
    32    29    23   ar
    33    21    22    1
@<TRIPOS>MOLECULE
*****
 30 33 0 0 0
SMALL
GASTEIGER

@<TRIPOS>ATOM
      1 C           6.5797   -2.1938   32.7388 C.ar    1  UNL1        0.1232
      2 C           6.0835   -3.5093   32.2158 C.ar    1  UNL1        0.1181
      3 N           7.2575   -4.2601   31.6609 N.ar    1  UNL1       -0.2208
      4 N           8.4793   -3.4087   31.8410 N.ar    1  UNL1       -0.0633
      5 N           8.0604   -2.1317   32.5071 N.ar    1  UNL1       -0.1287
      6 C           4.0672    1.0044   34.6646 C.ar    1  UNL1        0.0651
      7 C           3.5291    0.2280   33.4994 C.ar    1  UNL1        0.0176
      8 C           4.3666   -0.8380   32.8575 C.ar    1  UNL1        0.0031
      9 C           5.7422   -1.1277   33.3808 C.ar    1  UNL1        0.0211
     10 C           6.2803   -0.3514   34.5460 C.ar    1  UNL1        0.0031
     11 C           5.4428    0.7146   35.1879 C.ar    1  UNL1        0.0176
     12 C           3.1428    1.0934   37.7931 C.3     1  UNL1        0.0722
     13 C           2.8048    2.1114   36.7446 C.ar    1  UNL1        0.1247
     14 N           1.9826    3.3490   36.9499 N.ar    1  UNL1       -0.2290
     15 C           1.8992    4.0730   35.6388 C.ar    1  UNL1        0.1192
     16 C           2.6700    3.2828   34.6232 C.ar    1  UNL1        0.1019
     17 N           3.2297    2.0705   35.3066 N.ar    1  UNL1       -0.2923
     18 C           7.2169   -5.6230   31.0358 C.3     1  UNL1        0.2139
     19 C           7.6632   -5.8105   29.6160 C.2     1  UNL1        0.2511
     20 O           9.1247   -5.7822   29.2793 O.2     1  UNL1       -0.2726
     21 N           6.6481   -6.0263   28.5330 N.am    1  UNL1       -0.2816
     22 H           5.6889   -6.0448   28.7540 H       1  UNL1        0.1549
     23 C           7.0945   -6.2138   27.1132 C.ar    1  UNL1        0.0619
     24 C           7.5391   -7.5657   26.6393 C.ar    1  UNL1        0.0156
     25 C           7.9855   -7.7532   25.2195 C.ar    1  UNL1        0.0022
     26 C           7.9871   -6.5888   24.2738 C.ar    1  UNL1        0.0123
     27 C           7.5425   -5.2370   24.7478 C.ar    1  UNL1        0.0694
     28 CL          7.5441   -4.0727   23.8022 Cl      1  UNL1       -0.0813
     29 C           7.0961   -5.0495   26.1676 C.ar    1  UNL1        0.0816
     30 CL          6.6514   -3.6976   26.6416 Cl      1  UNL1       -0.0801
@<TRIPOS>BOND
     1    12    13    1
     2    13    14   ar
     3    14    15   ar
     4    15    16   ar
     5    16    17   ar
     6    17     6    1
     7     6     7   ar
     8     7     8   ar
     9     8     9   ar
    10     9     1    1
    11     1     2   ar
    12     2     3   ar
    13     3    18    1
    14    18    19    1
    15    19    20    2
    16    19    21   am
    17    21    23    1
    18    23    24   ar
    19    24    25   ar
    20    25    26   ar
    21    26    27   ar
    22    27    28    1
    23    27    29   ar
    24    29    30    1
    25     3     4   ar
    26     4     5   ar
    27     9    10   ar
    28    10    11   ar
    29    17    13   ar
    30    11     6   ar
    31     5     1   ar
    32    29    23   ar
    33    21    22    1
@<TRIPOS>MOLECULE
*****
 30 33 0 0 0
SMALL
GASTEIGER

@<TRIPOS>ATOM
      1 C           0.5077    1.4479   23.2125 C.ar    1  UNL1        0.1232
      2 C           0.2928    1.2344   24.6817 C.ar    1  UNL1        0.1181
      3 N          -0.5989    2.3310   25.1839 N.ar    1  UNL1       -0.2208
      4 N          -0.9352    3.2222   24.0251 N.ar    1  UNL1       -0.0633
      5 N          -0.2513    2.6764   22.8068 N.ar    1  UNL1       -0.1287
      6 C           2.9927   -1.1426   20.4989 C.ar    1  UNL1        0.0651
      7 C           1.6671   -0.6203   20.0300 C.ar    1  UNL1        0.0176
      8 C           0.8388    0.2432   20.9345 C.ar    1  UNL1        0.0031
      9 C           1.3361    0.5843   22.3080 C.ar    1  UNL1        0.0211
     10 C           2.6617    0.0620   22.7769 C.ar    1  UNL1        0.0031
     11 C           3.4900   -0.8015   21.8723 C.ar    1  UNL1        0.0176
     12 C           4.8378   -0.1037   18.0157 C.3     1  UNL1        0.0722
     13 C           4.6692   -1.5286   18.4530 C.ar    1  UNL1        0.1247
     14 N           5.3190   -2.7261   17.8256 N.ar    1  UNL1       -0.2290
     15 C           4.8726   -3.9438   18.5792 C.ar    1  UNL1        0.1192
     16 C           3.9468   -3.4988   19.6723 C.ar    1  UNL1        0.1019
     17 N           3.8211   -2.0061   19.5943 N.ar    1  UNL1       -0.2923
     18 C          -1.0714    2.5057   26.5968 C.3     1  UNL1        0.2139
     19 C          -0.0982    2.3920   27.7326 C.2     1  UNL1        0.2511
     20 O           1.1250    3.2598   27.7619 O.2     1  UNL1       -0.2726
     21 N          -0.3482    1.4105   28.8390 N.am    1  UNL1       -0.2816
     22 H          -1.1510    0.8410   28.8197 H       1  UNL1        0.1549
     23 C           0.6250    1.2968   29.9748 C.ar    1  UNL1        0.0619
     24 C           0.4644    2.1621   31.1895 C.ar    1  UNL1        0.0156
     25 C           1.4376    2.0484   32.3253 C.ar    1  UNL1        0.0022
     26 C           2.5714    1.0694   32.2463 C.ar    1  UNL1        0.0123
     27 C           2.7320    0.2042   31.0316 C.ar    1  UNL1        0.0694
     28 CL          3.8658   -0.7747   30.9526 Cl      1  UNL1       -0.0813
     29 C           1.7588    0.3179   29.8958 C.ar    1  UNL1        0.0816
     30 CL          1.9194   -0.5473   28.6811 Cl      1  UNL1       -0.0801
@<TRIPOS>BOND
     1    12    13    1
     2    13    14   ar
     3    14    15   ar
     4    15    16   ar
     5    16    17   ar
     6    17     6    1
     7     6     7   ar
     8     7     8   ar
     9     8     9   ar
    10     9     1    1
    11     1     2   ar
    12     2     3   ar
    13     3    18    1
    14    18    19    1
    15    19    20    2
    16    19    21   am
    17    21    23    1
    18    23    24   ar
    19    24    25   ar
    20    25    26   ar
    21    26    27   ar
    22    27    28    1
    23    27    29   ar
    24    29    30    1
    25     3     4   ar
    26     4     5   ar
    27     9    10   ar
    28    10    11   ar
    29    17    13   ar
    30    11     6   ar
    31     5     1   ar
    32    29    23   ar
    33    21    22    1
@<TRIPOS>MOLECULE
*****
 30 33 0 0 0
SMALL
GASTEIGER

@<TRIPOS>ATOM
      1 C           7.6889   -4.8154   24.2589 C.ar    1  UNL1        0.1232
      2 C           7.6791   -3.7995   23.1554 C.ar    1  UNL1        0.1181
      3 N           7.9980   -4.5065   21.8715 N.ar    1  UNL1       -0.2208
      4 N           8.2049   -5.9595   22.1816 N.ar    1  UNL1       -0.0633
      5 N           8.0139   -6.1504   23.6571 N.ar    1  UNL1       -0.1287
      6 C           6.8847   -4.0012   28.6109 C.ar    1  UNL1        0.0651
      7 C           6.3266   -5.2335   27.9629 C.ar    1  UNL1        0.0176
      8 C           6.5946   -5.5048   26.5122 C.ar    1  UNL1        0.0031
      9 C           7.4208   -4.5440   25.7096 C.ar    1  UNL1        0.0211
     10 C           7.9790   -3.3117   26.3577 C.ar    1  UNL1        0.0031
     11 C           7.7109   -3.0404   27.8084 C.ar    1  UNL1        0.0176
     12 C           7.6369   -5.9707   31.1019 C.3     1  UNL1        0.0722
     13 C           6.9623   -4.6351   31.2066 C.ar    1  UNL1        0.1247
     14 N           6.5151   -3.9702   32.4746 N.ar    1  UNL1       -0.2290
     15 C           5.8930   -2.6539   32.1134 C.ar    1  UNL1        0.1192
     16 C           5.9557   -2.5054   30.6221 C.ar    1  UNL1        0.1019
     17 N           6.6166   -3.7298   30.0617 N.ar    1  UNL1       -0.2923
     18 C           8.0932   -3.8721   20.5156 C.3     1  UNL1        0.2139
     19 C           7.0954   -2.8309   20.1030 C.2     1  UNL1        0.2511
     20 O           7.4270   -1.3751   20.2481 O.2     1  UNL1       -0.2726
     21 N           5.7660   -3.2454   19.5453 N.am    1  UNL1       -0.2816
     22 H           5.5485   -4.2008   19.4501 H       1  UNL1        0.1549
     23 C           4.7682   -2.2042   19.1327 C.ar    1  UNL1        0.0619
     24 C           4.7609   -1.6891   17.7239 C.ar    1  UNL1        0.0156
     25 C           3.7631   -0.6479   17.3113 C.ar    1  UNL1        0.0022
     26 C           2.7726   -0.1218   18.3075 C.ar    1  UNL1        0.0123
     27 C           2.7799   -0.6369   19.7162 C.ar    1  UNL1        0.0694
     28 CL          1.7895   -0.1109   20.7123 Cl      1  UNL1       -0.0813
     29 C           3.7777   -1.6781   20.1288 C.ar    1  UNL1        0.0816
     30 CL          3.7851   -2.1933   21.5375 Cl      1  UNL1       -0.0801
@<TRIPOS>BOND
     1    12    13    1
     2    13    14   ar
     3    14    15   ar
     4    15    16   ar
     5    16    17   ar
     6    17     6    1
     7     6     7   ar
     8     7     8   ar
     9     8     9   ar
    10     9     1    1
    11     1     2   ar
    12     2     3   ar
    13     3    18    1
    14    18    19    1
    15    19    20    2
    16    19    21   am
    17    21    23    1
    18    23    24   ar
    19    24    25   ar
    20    25    26   ar
    21    26    27   ar
    22    27    28    1
    23    27    29   ar
    24    29    30    1
    25     3     4   ar
    26     4     5   ar
    27     9    10   ar
    28    10    11   ar
    29    17    13   ar
    30    11     6   ar
    31     5     1   ar
    32    29    23   ar
    33    21    22    1
@<TRIPOS>MOLECULE
*****
 30 33 0 0 0
SMALL
GASTEIGER

@<TRIPOS>ATOM
      1 C         -12.8517   -3.2743   18.9458 C.ar    1  UNL1        0.1232
      2 C         -13.5011   -4.6211   18.8265 C.ar    1  UNL1        0.1181
      3 N         -12.4213   -5.6615   18.8658 N.ar    1  UNL1       -0.2208
      4 N         -11.1045   -4.9576   19.0094 N.ar    1  UNL1       -0.0633
      5 N         -11.3705   -3.4822   19.0589 N.ar    1  UNL1       -0.1287
      6 C         -14.9745    0.6935   18.9617 C.ar    1  UNL1        0.0651
      7 C         -15.6312   -0.5108   19.5687 C.ar    1  UNL1        0.0176
      8 C         -14.9236   -1.8333   19.5633 C.ar    1  UNL1        0.0031
      9 C         -13.5593   -1.9516   18.9511 C.ar    1  UNL1        0.0211
     10 C         -12.9027   -0.7473   18.3441 C.ar    1  UNL1        0.0031
     11 C         -13.6103    0.5753   18.3495 C.ar    1  UNL1        0.0176
     12 C         -17.0572    1.7640   16.6887 C.3     1  UNL1        0.0722
     13 C         -16.6394    2.5082   17.9222 C.ar    1  UNL1        0.1247
     14 N         -17.1055    3.8751   18.3276 N.ar    1  UNL1       -0.2290
     15 C         -16.4364    4.2279   19.6229 C.ar    1  UNL1        0.1192
     16 C         -15.5567    3.0790   20.0181 C.ar    1  UNL1        0.1019
     17 N         -15.6821    2.0162   18.9670 N.ar    1  UNL1       -0.2923
     18 C         -12.6229   -7.1453   18.7771 C.3     1  UNL1        0.2139
     19 C         -13.9601   -7.6982   18.3817 C.2     1  UNL1        0.2511
     20 O         -14.2949   -7.8862   16.9316 O.2     1  UNL1       -0.2726
     21 N         -14.9624   -8.0631   19.4363 N.am    1  UNL1       -0.2816
     22 H         -14.7426   -7.9397   20.3880 H       1  UNL1        0.1549
     23 C         -16.2995   -8.6161   19.0409 C.ar    1  UNL1        0.0619
     24 C         -16.4200  -10.0454   18.6023 C.ar    1  UNL1        0.0156
     25 C         -17.7571  -10.5984   18.2069 C.ar    1  UNL1        0.0022
     26 C         -18.9737   -9.7219   18.2502 C.ar    1  UNL1        0.0123
     27 C         -18.8532   -8.2926   18.6888 C.ar    1  UNL1        0.0694
     28 CL        -20.0698   -7.4162   18.7320 Cl      1  UNL1       -0.0813
     29 C         -17.5161   -7.7397   19.0842 C.ar    1  UNL1        0.0816
     30 CL        -17.3955   -6.3103   19.5228 Cl      1  UNL1       -0.0801
@<TRIPOS>BOND
     1    12    13    1
     2    13    14   ar
     3    14    15   ar
     4    15    16   ar
     5    16    17   ar
     6    17     6    1
     7     6     7   ar
     8     7     8   ar
     9     8     9   ar
    10     9     1    1
    11     1     2   ar
    12     2     3   ar
    13     3    18    1
    14    18    19    1
    15    19    20    2
    16    19    21   am
    17    21    23    1
    18    23    24   ar
    19    24    25   ar
    20    25    26   ar
    21    26    27   ar
    22    27    28    1
    23    27    29   ar
    24    29    30    1
    25     3     4   ar
    26     4     5   ar
    27     9    10   ar
    28    10    11   ar
    29    17    13   ar
    30    11     6   ar
    31     5     1   ar
    32    29    23   ar
    33    21    22    1
@<TRIPOS>MOLECULE
*****
 30 33 0 0 0
SMALL
GASTEIGER

@<TRIPOS>ATOM
      1 C           5.1191   -1.0717   32.9833 C.ar    1  UNL1        0.1232
      2 C           5.2189   -0.5744   31.5717 C.ar    1  UNL1        0.1181
      3 N           5.6198   -1.7282   30.7010 N.ar    1  UNL1       -0.2208
      4 N           5.7678   -2.9386   31.5746 N.ar    1  UNL1       -0.0633
      5 N           5.4583   -2.5328   32.9851 N.ar    1  UNL1       -0.1287
      6 C           3.9988    1.3879   36.5812 C.ar    1  UNL1        0.0651
      7 C           4.9397    0.2291   36.7284 C.ar    1  UNL1        0.0176
      8 C           5.3131   -0.5908   35.5291 C.ar    1  UNL1        0.0031
      9 C           4.7456   -0.2518   34.1826 C.ar    1  UNL1        0.0211
     10 C           3.8047    0.9071   34.0354 C.ar    1  UNL1        0.0031
     11 C           3.4313    1.7269   35.2347 C.ar    1  UNL1        0.0176
     12 C           1.7243    0.6252   38.7937 C.3     1  UNL1        0.0722
     13 C           2.5799    1.8573   38.7974 C.ar    1  UNL1        0.1247
     14 N           2.5402    2.9551   39.8188 N.ar    1  UNL1       -0.2290
     15 C           3.5612    3.9842   39.4332 C.ar    1  UNL1        0.1192
     16 C           4.2318    3.5224   38.1735 C.ar    1  UNL1        0.1019
     17 N           3.6253    2.2079   37.7805 N.ar    1  UNL1       -0.2923
     18 C           5.8350   -1.6800   29.2173 C.3     1  UNL1        0.2139
     19 C           6.6333   -2.7543   28.5400 C.2     1  UNL1        0.2511
     20 O           8.1245   -2.6284   28.4370 O.2     1  UNL1       -0.2726
     21 N           5.9405   -3.9543   27.9656 N.am    1  UNL1       -0.2816
     22 H           4.9618   -4.0369   28.0332 H       1  UNL1        0.1549
     23 C           6.7388   -5.0285   27.2883 C.ar    1  UNL1        0.0619
     24 C           6.8766   -5.0314   25.7946 C.ar    1  UNL1        0.0156
     25 C           7.6749   -6.1057   25.1173 C.ar    1  UNL1        0.0022
     26 C           8.3354   -7.1769   25.9336 C.ar    1  UNL1        0.0123
     27 C           8.1976   -7.1739   27.4272 C.ar    1  UNL1        0.0694
     28 CL          8.8581   -8.2450   28.2435 Cl      1  UNL1       -0.0813
     29 C           7.3993   -6.0996   28.1046 C.ar    1  UNL1        0.0816
     30 CL          7.2614   -6.0966   29.5982 Cl      1  UNL1       -0.0801
@<TRIPOS>BOND
     1    12    13    1
     2    13    14   ar
     3    14    15   ar
     4    15    16   ar
     5    16    17   ar
     6    17     6    1
     7     6     7   ar
     8     7     8   ar
     9     8     9   ar
    10     9     1    1
    11     1     2   ar
    12     2     3   ar
    13     3    18    1
    14    18    19    1
    15    19    20    2
    16    19    21   am
    17    21    23    1
    18    23    24   ar
    19    24    25   ar
    20    25    26   ar
    21    26    27   ar
    22    27    28    1
    23    27    29   ar
    24    29    30    1
    25     3     4   ar
    26     4     5   ar
    27     9    10   ar
    28    10    11   ar
    29    17    13   ar
    30    11     6   ar
    31     5     1   ar
    32    29    23   ar
    33    21    22    1
@<TRIPOS>MOLECULE
*****
 30 33 0 0 0
SMALL
GASTEIGER

@<TRIPOS>ATOM
      1 C           0.8648    1.1604   21.4871 C.ar    1  UNL1        0.1232
      2 C          -0.0816    1.6283   20.4214 C.ar    1  UNL1        0.1181
      3 N          -1.0160    2.6271   21.0371 N.ar    1  UNL1       -0.2208
      4 N          -0.6471    2.7766   22.4834 N.ar    1  UNL1       -0.0633
      5 N           0.5152    1.8701   22.7615 N.ar    1  UNL1       -0.1287
      6 C           4.1717   -1.8446   20.9542 C.ar    1  UNL1        0.0651
      7 C           3.5071   -1.2399   19.7531 C.ar    1  UNL1        0.0176
      8 C           2.4048   -0.2383   19.9307 C.ar    1  UNL1        0.0031
      9 C           1.9671    0.1587   21.3095 C.ar    1  UNL1        0.0211
     10 C           2.6317   -0.4459   22.5105 C.ar    1  UNL1        0.0031
     11 C           3.7340   -1.4476   22.3329 C.ar    1  UNL1        0.0176
     12 C           3.9176   -4.7304   19.4518 C.3     1  UNL1        0.0722
     13 C           5.1572   -4.1727   20.0860 C.ar    1  UNL1        0.1247
     14 N           6.4977   -4.8436   20.1410 N.ar    1  UNL1       -0.2290
     15 C           7.4431   -3.9317   20.8656 C.ar    1  UNL1        0.1192
     16 C           6.6868   -2.6973   21.2584 C.ar    1  UNL1        0.1019
     17 N           5.2741   -2.8463   20.7766 N.ar    1  UNL1       -0.2923
     18 C          -2.1245    3.3496   20.3307 C.3     1  UNL1        0.2139
     19 C          -3.2306    3.9830   21.1217 C.2     1  UNL1        0.2511
     20 O          -3.5777    5.4259   20.9031 O.2     1  UNL1       -0.2726
     21 N          -3.9894    3.1736   22.1311 N.am    1  UNL1       -0.2816
     22 H          -3.7615    2.2267   22.2746 H       1  UNL1        0.1549
     23 C          -5.0954    3.8070   22.9221 C.ar    1  UNL1        0.0619
     24 C          -6.4351    4.0362   22.2874 C.ar    1  UNL1        0.0156
     25 C          -7.5411    4.6696   23.0783 C.ar    1  UNL1        0.0022
     26 C          -7.3073    5.0738   24.5039 C.ar    1  UNL1        0.0123
     27 C          -5.9677    4.8447   25.1385 C.ar    1  UNL1        0.0694
     28 CL         -5.7340    5.2489   26.5639 Cl      1  UNL1       -0.0813
     29 C          -4.8617    4.2113   24.3475 C.ar    1  UNL1        0.0816
     30 CL         -3.5220    3.9821   24.9821 Cl      1  UNL1       -0.0801
@<TRIPOS>BOND
     1    12    13    1
     2    13    14   ar
     3    14    15   ar
     4    15    16   ar
     5    16    17   ar
     6    17     6    1
     7     6     7   ar
     8     7     8   ar
     9     8     9   ar
    10     9     1    1
    11     1     2   ar
    12     2     3   ar
    13     3    18    1
    14    18    19    1
    15    19    20    2
    16    19    21   am
    17    21    23    1
    18    23    24   ar
    19    24    25   ar
    20    25    26   ar
    21    26    27   ar
    22    27    28    1
    23    27    29   ar
    24    29    30    1
    25     3     4   ar
    26     4     5   ar
    27     9    10   ar
    28    10    11   ar
    29    17    13   ar
    30    11     6   ar
    31     5     1   ar
    32    29    23   ar
    33    21    22    1
@<TRIPOS>MOLECULE
*****
 30 33 0 0 0
SMALL
GASTEIGER

@<TRIPOS>ATOM
      1 C           6.7767   -4.5853   29.1291 C.ar    1  UNL1        0.1232
      2 C           6.4625   -3.4393   30.0444 C.ar    1  UNL1        0.1181
      3 N           6.4865   -3.9517   31.4539 N.ar    1  UNL1       -0.2208
      4 N           6.8155   -5.4146   31.4097 N.ar    1  UNL1       -0.0633
      5 N           6.9949   -5.8061   29.9728 N.ar    1  UNL1       -0.1287
      6 C           7.0217   -4.3943   24.6398 C.ar    1  UNL1        0.0651
      7 C           6.8224   -3.1377   25.4341 C.ar    1  UNL1        0.0176
      8 C           6.7407   -3.2013   26.9305 C.ar    1  UNL1        0.0031
      9 C           6.8584   -4.5217   27.6326 C.ar    1  UNL1        0.0211
     10 C           7.0577   -5.7783   26.8382 C.ar    1  UNL1        0.0031
     11 C           7.1393   -5.7147   25.3418 C.ar    1  UNL1        0.0176
     12 C           4.5992   -3.5557   22.6204 C.3     1  UNL1        0.0722
     13 C           5.9899   -3.9452   22.2151 C.ar    1  UNL1        0.1247
     14 N           6.5112   -4.0177   20.8105 N.ar    1  UNL1       -0.2290
     15 C           7.9470   -4.4479   20.8706 C.ar    1  UNL1        0.1192
     16 C           8.3129   -4.6414   22.3123 C.ar    1  UNL1        0.1019
     17 N           7.1033   -4.3307   23.1433 N.ar    1  UNL1       -0.2923
     18 C           6.2271   -3.1434   32.6905 C.3     1  UNL1        0.2139
     19 C           5.0447   -2.2222   32.7501 C.2     1  UNL1        0.2511
     20 O           3.7693   -2.6795   33.3938 O.2     1  UNL1       -0.2726
     21 N           5.1377   -0.8438   32.1659 N.am    1  UNL1       -0.2816
     22 H           5.9748   -0.5437   31.7434 H       1  UNL1        0.1549
     23 C           3.9554    0.0774   32.2254 C.ar    1  UNL1        0.0619
     24 C           3.6986    0.8891   33.4604 C.ar    1  UNL1        0.0156
     25 C           2.5163    1.8103   33.5199 C.ar    1  UNL1        0.0022
     26 C           1.5908    1.9197   32.3445 C.ar    1  UNL1        0.0123
     27 C           1.8476    1.1080   31.1096 C.ar    1  UNL1        0.0694
     28 CL          0.9222    1.2174   29.9342 Cl      1  UNL1       -0.0813
     29 C           3.0300    0.1868   31.0500 C.ar    1  UNL1        0.0816
     30 CL          3.2869   -0.6249   29.8151 Cl      1  UNL1       -0.0801
@<TRIPOS>BOND
     1    12    13    1
     2    13    14   ar
     3    14    15   ar
     4    15    16   ar
     5    16    17   ar
     6    17     6    1
     7     6     7   ar
     8     7     8   ar
     9     8     9   ar
    10     9     1    1
    11     1     2   ar
    12     2     3   ar
    13     3    18    1
    14    18    19    1
    15    19    20    2
    16    19    21   am
    17    21    23    1
    18    23    24   ar
    19    24    25   ar
    20    25    26   ar
    21    26    27   ar
    22    27    28    1
    23    27    29   ar
    24    29    30    1
    25     3     4   ar
    26     4     5   ar
    27     9    10   ar
    28    10    11   ar
    29    17    13   ar
    30    11     6   ar
    31     5     1   ar
    32    29    23   ar
    33    21    22    1
