@<TRIPOS>MOLECULE
*****
 28 30 0 0 0
SMALL
GASTEIGER

@<TRIPOS>ATOM
      1 N          -7.1782  -18.9504   19.5204 N.3     1  UNL1       -0.3215
      2 C          -6.3537  -19.4337   20.6765 C.3     1  UNL1        0.0644
      3 H          -8.0106  -18.4763   19.8710 H       1  UNL1        0.1188
      4 H          -7.4566  -19.7455   18.9454 H       1  UNL1        0.1188
      5 C          -6.8134  -19.1830   22.0822 C.3     1  UNL1        0.1010
      6 C          -7.9613  -18.2529   22.3413 C.2     1  UNL1        0.2270
      7 O          -7.9750  -16.8874   21.7208 O.2     1  UNL1       -0.2748
      8 N          -9.0956  -18.6884   23.2209 N.am    1  UNL1       -0.2787
      9 C          -9.2197  -20.0167   23.9068 C.3     1  UNL1        0.0935
     10 C         -10.5057  -20.0213   24.6789 C.3     1  UNL1        0.0233
     11 C         -11.1764  -18.6959   24.4702 C.3     1  UNL1        0.0241
     12 C         -10.3049  -17.8721   23.5691 C.3     1  UNL1        0.1049
     13 C         -10.5923  -16.4771   23.0989 C.3     1  UNL1        0.1618
     14 O         -11.6211  -16.2418   22.0330 O.3     1  UNL1       -0.3520
     15 C         -11.3496  -16.6693   20.6210 C.3     1  UNL1        0.1422
     16 C         -11.1042  -18.1159   20.3094 C.3     1  UNL1        0.0297
     17 C         -10.5121  -19.1715   19.4234 C.3     1  UNL1        0.0026
     18 C         -11.2711  -19.5657   20.6558 C.3     1  UNL1        0.0026
     19 C          -5.0696  -20.1676   20.4270 C.3     1  UNL1        0.0447
     20 C          -3.7731  -19.4150   20.3768 C.ar    1  UNL1        0.0090
     21 C          -3.2233  -18.9551   19.0592 C.ar    1  UNL1        0.0300
     22 C          -1.9268  -18.2025   19.0091 C.ar    1  UNL1        0.1672
     23 F          -1.3769  -17.7425   17.6914 F       1  UNL1       -0.2018
     24 C          -1.1800  -17.9097   20.2766 C.ar    1  UNL1        0.1696
     25 F           0.1166  -17.1570   20.2265 F       1  UNL1       -0.2017
     26 C          -1.7298  -18.3696   21.5943 C.ar    1  UNL1        0.0612
     27 C          -3.0263  -19.1222   21.6444 C.ar    1  UNL1        0.1386
     28 F          -3.5761  -19.5822   22.9621 F       1  UNL1       -0.2044
@<TRIPOS>BOND
     1     2     1    1
     2     2     5    1
     3     5     6    1
     4     6     7    2
     5     6     8   am
     6     8     9    1
     7     9    10    1
     8    10    11    1
     9    11    12    1
    10    12    13    1
    11    13    14    1
    12    14    15    1
    13    15    16    1
    14    16    17    1
    15    17    18    1
    16     2    19    1
    17    19    20    1
    18    20    21   ar
    19    21    22   ar
    20    22    23    1
    21    22    24   ar
    22    24    25    1
    23    24    26   ar
    24    26    27   ar
    25    27    28    1
    26    12     8    1
    27    18    16    1
    28    27    20   ar
    29     1     3    1
    30     1     4    1
@<TRIPOS>MOLECULE
*****
 28 30 0 0 0
SMALL
GASTEIGER

@<TRIPOS>ATOM
      1 N          -5.3391  -14.6602   23.8284 N.3     1  UNL1       -0.3215
      2 C          -5.7819  -16.0877   23.9561 C.3     1  UNL1        0.0644
      3 H          -6.1576  -14.0532   23.7828 H       1  UNL1        0.1188
      4 H          -4.7866  -14.5505   22.9780 H       1  UNL1        0.1188
      5 C          -7.2445  -16.4184   23.9976 C.3     1  UNL1        0.1010
      6 C          -7.8585  -17.2419   22.9045 C.2     1  UNL1        0.2270
      7 O          -7.4413  -17.0278   21.4797 O.2     1  UNL1       -0.2748
      8 N          -8.8896  -18.2794   23.2363 N.am    1  UNL1       -0.2787
      9 C          -9.4038  -18.6047   24.6073 C.3     1  UNL1        0.0935
     10 C         -10.4197  -19.7002   24.4736 C.3     1  UNL1        0.0233
     11 C         -10.5333  -20.0520   23.0199 C.3     1  UNL1        0.0241
     12 C          -9.5877  -19.1739   22.2552 C.3     1  UNL1        0.1049
     13 C          -9.3771  -19.1879   20.7701 C.3     1  UNL1        0.1618
     14 O         -10.0016  -18.1263   19.9139 O.3     1  UNL1       -0.3520
     15 C         -11.4443  -17.7621   20.1037 C.3     1  UNL1        0.1422
     16 C         -11.9003  -17.1531   21.3964 C.3     1  UNL1        0.0297
     17 C         -12.8325  -17.1462   22.5716 C.3     1  UNL1        0.0026
     18 C         -11.7580  -16.1054   22.4603 C.3     1  UNL1        0.0026
     19 C          -4.7623  -17.1844   24.0425 C.3     1  UNL1        0.0447
     20 C          -3.9693  -17.5685   22.8285 C.ar    1  UNL1        0.0090
     21 C          -2.8195  -16.7146   22.3826 C.ar    1  UNL1        0.0300
     22 C          -2.0266  -17.0988   21.1687 C.ar    1  UNL1        0.1672
     23 F          -0.8767  -16.2449   20.7228 F       1  UNL1       -0.2018
     24 C          -2.3835  -18.3368   20.4006 C.ar    1  UNL1        0.1696
     25 F          -1.5905  -18.7209   19.1865 F       1  UNL1       -0.2017
     26 C          -3.5333  -19.1906   20.8464 C.ar    1  UNL1        0.0612
     27 C          -4.3262  -18.8065   22.0604 C.ar    1  UNL1        0.1386
     28 F          -5.4761  -19.6604   22.5063 F       1  UNL1       -0.2044
@<TRIPOS>BOND
     1     2     1    1
     2     2     5    1
     3     5     6    1
     4     6     7    2
     5     6     8   am
     6     8     9    1
     7     9    10    1
     8    10    11    1
     9    11    12    1
    10    12    13    1
    11    13    14    1
    12    14    15    1
    13    15    16    1
    14    16    17    1
    15    17    18    1
    16     2    19    1
    17    19    20    1
    18    20    21   ar
    19    21    22   ar
    20    22    23    1
    21    22    24   ar
    22    24    25    1
    23    24    26   ar
    24    26    27   ar
    25    27    28    1
    26    12     8    1
    27    18    16    1
    28    27    20   ar
    29     1     3    1
    30     1     4    1
@<TRIPOS>MOLECULE
*****
 28 30 0 0 0
SMALL
GASTEIGER

@<TRIPOS>ATOM
      1 N          -6.7781  -18.9298   19.3001 N.3     1  UNL1       -0.3215
      2 C          -6.2216  -19.6298   20.5044 C.3     1  UNL1        0.0644
      3 H          -7.7427  -18.6531   19.4832 H       1  UNL1        0.1188
      4 H          -6.7515  -19.5596   18.4982 H       1  UNL1        0.1188
      5 C          -7.0759  -19.8203   21.7226 C.3     1  UNL1        0.1010
      6 C          -7.9495  -18.7019   22.2084 C.2     1  UNL1        0.2270
      7 O          -7.7699  -17.3174   21.6598 O.2     1  UNL1       -0.2748
      8 N          -9.0026  -18.9679   23.2429 N.am    1  UNL1       -0.2787
      9 C          -9.2974  -20.2934   23.8803 C.3     1  UNL1        0.0935
     10 C         -10.4228  -20.0999   24.8530 C.3     1  UNL1        0.0233
     11 C         -10.8235  -18.6548   24.8167 C.3     1  UNL1        0.0241
     12 C          -9.9457  -17.9553   23.8216 C.3     1  UNL1        0.1049
     13 C         -10.0014  -16.4987   23.4674 C.3     1  UNL1        0.1618
     14 O          -8.9443  -15.5627   23.9738 O.3     1  UNL1       -0.3520
     15 C          -8.1482  -15.9197   25.1939 C.3     1  UNL1        0.1422
     16 C          -6.6682  -15.6774   25.2213 C.3     1  UNL1        0.0297
     17 C          -5.3504  -15.6042   24.5085 C.3     1  UNL1        0.0026
     18 C          -5.4226  -15.3307   25.9816 C.3     1  UNL1        0.0026
     19 C          -4.8109  -20.1392   20.4906 C.3     1  UNL1        0.0447
     20 C          -3.6649  -19.1728   20.4372 C.ar    1  UNL1        0.0090
     21 C          -2.9633  -18.9124   19.1373 C.ar    1  UNL1        0.0300
     22 C          -1.8173  -17.9460   19.0841 C.ar    1  UNL1        0.1672
     23 F          -1.1156  -17.6856   17.7841 F       1  UNL1       -0.2018
     24 C          -1.3731  -17.2400   20.3307 C.ar    1  UNL1        0.1696
     25 F          -0.2271  -16.2735   20.2774 F       1  UNL1       -0.2017
     26 C          -2.0747  -17.5004   21.6306 C.ar    1  UNL1        0.0612
     27 C          -3.2206  -18.4668   21.6839 C.ar    1  UNL1        0.1386
     28 F          -3.9223  -18.7272   22.9839 F       1  UNL1       -0.2044
@<TRIPOS>BOND
     1     2     1    1
     2     2     5    1
     3     5     6    1
     4     6     7    2
     5     6     8   am
     6     8     9    1
     7     9    10    1
     8    10    11    1
     9    11    12    1
    10    12    13    1
    11    13    14    1
    12    14    15    1
    13    15    16    1
    14    16    17    1
    15    17    18    1
    16     2    19    1
    17    19    20    1
    18    20    21   ar
    19    21    22   ar
    20    22    23    1
    21    22    24   ar
    22    24    25    1
    23    24    26   ar
    24    26    27   ar
    25    27    28    1
    26    12     8    1
    27    18    16    1
    28    27    20   ar
    29     1     3    1
    30     1     4    1
@<TRIPOS>MOLECULE
*****
 28 30 0 0 0
SMALL
GASTEIGER

@<TRIPOS>ATOM
      1 N          -7.4158  -18.8756   19.3397 N.3     1  UNL1       -0.3215
      2 C          -8.1798  -19.4417   20.4998 C.3     1  UNL1        0.0644
      3 H          -6.4525  -18.6952   19.6225 H       1  UNL1        0.1188
      4 H          -7.8509  -18.0034   19.0391 H       1  UNL1        0.1188
      5 C          -7.4945  -19.6544   21.8171 C.3     1  UNL1        0.1010
      6 C          -6.7651  -18.5207   22.4747 C.2     1  UNL1        0.2270
      7 O          -7.5355  -17.4064   23.1188 O.2     1  UNL1       -0.2748
      8 N          -5.2653  -18.5013   22.4884 N.am    1  UNL1       -0.2787
      9 C          -4.3646  -19.5400   21.8884 C.3     1  UNL1        0.0935
     10 C          -2.9455  -19.1205   22.1335 C.3     1  UNL1        0.0233
     11 C          -2.9692  -17.8225   22.8851 C.3     1  UNL1        0.0241
     12 C          -4.4029  -17.4399   23.1044 C.3     1  UNL1        0.1049
     13 C          -4.8887  -16.2115   23.8150 C.3     1  UNL1        0.1618
     14 O          -5.1438  -16.2512   25.2926 O.3     1  UNL1       -0.3520
     15 C          -5.9577  -15.1717   25.9426 C.3     1  UNL1        0.1422
     16 C          -7.2098  -15.5235   26.6898 C.3     1  UNL1        0.0297
     17 C          -8.2236  -16.5423   27.1191 C.3     1  UNL1        0.0026
     18 C          -8.3646  -15.1139   27.5549 C.3     1  UNL1        0.0026
     19 C          -9.6291  -19.7950   20.3426 C.3     1  UNL1        0.0447
     20 C         -10.6602  -19.1354   21.2097 C.ar    1  UNL1        0.0090
     21 C         -10.7678  -19.5040   22.6597 C.ar    1  UNL1        0.0300
     22 C         -11.7989  -18.8443   23.5267 C.ar    1  UNL1        0.1672
     23 F         -11.9065  -19.2129   24.9767 F       1  UNL1       -0.2018
     24 C         -12.7224  -17.8162   22.9436 C.ar    1  UNL1        0.1696
     25 F         -13.7536  -17.1566   23.8107 F       1  UNL1       -0.2017
     26 C         -12.6149  -17.4476   21.4936 C.ar    1  UNL1        0.0612
     27 C         -11.5838  -18.1072   20.6267 C.ar    1  UNL1        0.1386
     28 F         -11.4762  -17.7387   19.1766 F       1  UNL1       -0.2044
@<TRIPOS>BOND
     1     2     1    1
     2     2     5    1
     3     5     6    1
     4     6     7    2
     5     6     8   am
     6     8     9    1
     7     9    10    1
     8    10    11    1
     9    11    12    1
    10    12    13    1
    11    13    14    1
    12    14    15    1
    13    15    16    1
    14    16    17    1
    15    17    18    1
    16     2    19    1
    17    19    20    1
    18    20    21   ar
    19    21    22   ar
    20    22    23    1
    21    22    24   ar
    22    24    25    1
    23    24    26   ar
    24    26    27   ar
    25    27    28    1
    26    12     8    1
    27    18    16    1
    28    27    20   ar
    29     1     3    1
    30     1     4    1
@<TRIPOS>MOLECULE
*****
 28 30 0 0 0
SMALL
GASTEIGER

@<TRIPOS>ATOM
      1 N          -9.1358  -21.0191   24.4039 N.3     1  UNL1       -0.3215
      2 C          -9.3838  -20.2692   23.1286 C.3     1  UNL1        0.0644
      3 H          -8.1401  -20.9952   24.6242 H       1  UNL1        0.1188
      4 H          -9.4363  -21.9875   24.2929 H       1  UNL1        0.1188
      5 C          -8.2388  -19.6325   22.3982 C.3     1  UNL1        0.1010
      6 C          -7.6633  -18.3372   22.8891 C.2     1  UNL1        0.2270
      7 O          -8.5728  -17.2542   23.3892 O.2     1  UNL1       -0.2748
      8 N          -6.1785  -18.1249   22.8801 N.am    1  UNL1       -0.2787
      9 C          -5.1497  -19.1111   22.4119 C.3     1  UNL1        0.0935
     10 C          -3.7971  -18.4849   22.5801 C.3     1  UNL1        0.0233
     11 C          -3.9899  -17.1117   23.1522 C.3     1  UNL1        0.0241
     12 C          -5.4617  -16.8893   23.3376 C.3     1  UNL1        0.1049
     13 C          -6.1039  -15.6490   23.8846 C.3     1  UNL1        0.1618
     14 O          -5.4381  -14.8847   24.9903 O.3     1  UNL1       -0.3520
     15 C          -5.7120  -15.2434   26.4208 C.3     1  UNL1        0.1422
     16 C          -7.1124  -15.5500   26.8622 C.3     1  UNL1        0.0297
     17 C          -8.2937  -16.4741   26.8870 C.3     1  UNL1        0.0026
     18 C          -8.3566  -15.1569   27.6019 C.3     1  UNL1        0.0026
     19 C         -10.7767  -20.1562   22.5839 C.3     1  UNL1        0.0447
     20 C         -11.1816  -18.9387   21.8066 C.ar    1  UNL1        0.0090
     21 C         -11.8519  -17.7923   22.5040 C.ar    1  UNL1        0.0300
     22 C         -12.2567  -16.5750   21.7268 C.ar    1  UNL1        0.1672
     23 F         -12.9270  -15.4284   22.4241 F       1  UNL1       -0.2018
     24 C         -11.9912  -16.5040   20.2522 C.ar    1  UNL1        0.1696
     25 F         -12.3960  -15.2866   19.4749 F       1  UNL1       -0.2017
     26 C         -11.3209  -17.6505   19.5548 C.ar    1  UNL1        0.0612
     27 C         -10.9161  -18.8678   20.3320 C.ar    1  UNL1        0.1386
     28 F         -10.2458  -20.0143   19.6346 F       1  UNL1       -0.2044
@<TRIPOS>BOND
     1     2     1    1
     2     2     5    1
     3     5     6    1
     4     6     7    2
     5     6     8   am
     6     8     9    1
     7     9    10    1
     8    10    11    1
     9    11    12    1
    10    12    13    1
    11    13    14    1
    12    14    15    1
    13    15    16    1
    14    16    17    1
    15    17    18    1
    16     2    19    1
    17    19    20    1
    18    20    21   ar
    19    21    22   ar
    20    22    23    1
    21    22    24   ar
    22    24    25    1
    23    24    26   ar
    24    26    27   ar
    25    27    28    1
    26    12     8    1
    27    18    16    1
    28    27    20   ar
    29     1     3    1
    30     1     4    1
@<TRIPOS>MOLECULE
*****
 28 30 0 0 0
SMALL
GASTEIGER

@<TRIPOS>ATOM
      1 N          -6.0670  -18.5279   19.8766 N.3     1  UNL1       -0.3215
      2 C          -6.0613  -19.2478   21.1925 C.3     1  UNL1        0.0644
      3 H          -6.9546  -18.6937   19.4022 H       1  UNL1        0.1188
      4 H          -5.3020  -18.8729   19.2969 H       1  UNL1        0.1188
      5 C          -7.2557  -20.0523   21.6125 C.3     1  UNL1        0.1010
      6 C          -8.6386  -19.5262   21.3662 C.2     1  UNL1        0.2270
      7 O          -9.0201  -19.0288   20.0035 O.2     1  UNL1       -0.2748
      8 N          -9.6399  -19.4974   22.4826 N.am    1  UNL1       -0.2787
      9 C          -9.4043  -19.9586   23.8904 C.3     1  UNL1        0.0935
     10 C         -10.6715  -19.7487   24.6652 C.3     1  UNL1        0.0233
     11 C         -11.6902  -19.1577   23.7361 C.3     1  UNL1        0.0241
     12 C         -11.0526  -19.0025   22.3873 C.3     1  UNL1        0.1049
     13 C         -11.7121  -18.4493   21.1588 C.3     1  UNL1        0.1618
     14 O         -11.4227  -17.0444   20.7202 O.3     1  UNL1       -0.3520
     15 C         -11.0548  -16.0026   21.7347 C.3     1  UNL1        0.1422
     16 C          -9.7347  -16.0784   22.4429 C.3     1  UNL1        0.0297
     17 C          -8.9471  -16.1769   23.7156 C.3     1  UNL1        0.0026
     18 C          -8.2358  -16.1115   22.3966 C.3     1  UNL1        0.0026
     19 C          -4.8612  -19.1634   22.0884 C.3     1  UNL1        0.0447
     20 C          -3.5678  -18.6173   21.5601 C.ar    1  UNL1        0.0090
     21 C          -3.1068  -17.2506   21.9718 C.ar    1  UNL1        0.0300
     22 C          -1.8134  -16.7047   21.4435 C.ar    1  UNL1        0.1672
     23 F          -1.3523  -15.3379   21.8552 F       1  UNL1       -0.2018
     24 C          -0.9811  -17.5254   20.5035 C.ar    1  UNL1        0.1696
     25 F           0.3124  -16.9794   19.9753 F       1  UNL1       -0.2017
     26 C          -1.4421  -18.8921   20.0918 C.ar    1  UNL1        0.0612
     27 C          -2.7354  -19.4381   20.6201 C.ar    1  UNL1        0.1386
     28 F          -3.1965  -20.8049   20.2084 F       1  UNL1       -0.2044
@<TRIPOS>BOND
     1     2     1    1
     2     2     5    1
     3     5     6    1
     4     6     7    2
     5     6     8   am
     6     8     9    1
     7     9    10    1
     8    10    11    1
     9    11    12    1
    10    12    13    1
    11    13    14    1
    12    14    15    1
    13    15    16    1
    14    16    17    1
    15    17    18    1
    16     2    19    1
    17    19    20    1
    18    20    21   ar
    19    21    22   ar
    20    22    23    1
    21    22    24   ar
    22    24    25    1
    23    24    26   ar
    24    26    27   ar
    25    27    28    1
    26    12     8    1
    27    18    16    1
    28    27    20   ar
    29     1     3    1
    30     1     4    1
@<TRIPOS>MOLECULE
*****
 28 30 0 0 0
SMALL
GASTEIGER

@<TRIPOS>ATOM
      1 N          -6.8118  -20.2141   19.7225 N.3     1  UNL1       -0.3215
      2 C          -6.5070  -20.0205   21.1784 C.3     1  UNL1        0.0644
      3 H          -7.8002  -20.0267   19.5542 H       1  UNL1        0.1188
      4 H          -6.5976  -21.1749   19.4552 H       1  UNL1        0.1188
      5 C          -7.5964  -19.6111   22.1248 C.3     1  UNL1        0.1010
      6 C          -8.5654  -18.5353   21.7328 C.2     1  UNL1        0.2270
      7 O          -9.1139  -18.4920   20.3374 O.2     1  UNL1       -0.2748
      8 N          -8.9857  -17.5027   22.7363 N.am    1  UNL1       -0.2787
      9 C          -8.5240  -17.4184   24.1610 C.3     1  UNL1        0.0935
     10 C          -9.1945  -16.2367   24.7965 C.3     1  UNL1        0.0233
     11 C         -10.0706  -15.5905   23.7645 C.3     1  UNL1        0.0241
     12 C          -9.9416  -16.3730   22.4912 C.3     1  UNL1        0.1049
     13 C         -10.6449  -16.0775   21.1997 C.3     1  UNL1        0.1618
     14 O         -12.1201  -16.3201   21.0764 O.3     1  UNL1       -0.3520
     15 C         -12.6970  -17.6485   21.4670 C.3     1  UNL1        0.1422
     16 C         -12.9460  -17.9623   22.9125 C.3     1  UNL1        0.0297
     17 C         -12.4457  -18.4436   24.2422 C.3     1  UNL1        0.0026
     18 C         -13.8775  -18.0244   24.0865 C.3     1  UNL1        0.0026
     19 C          -5.1128  -20.2361   21.6879 C.3     1  UNL1        0.0447
     20 C          -4.0288  -19.2579   21.3438 C.ar    1  UNL1        0.0090
     21 C          -3.4729  -19.2137   19.9514 C.ar    1  UNL1        0.0300
     22 C          -2.3890  -18.2356   19.6073 C.ar    1  UNL1        0.1672
     23 F          -1.8330  -18.1913   18.2148 F       1  UNL1       -0.2018
     24 C          -1.8610  -17.3017   20.6557 C.ar    1  UNL1        0.1696
     25 F          -0.7770  -16.3236   20.3116 F       1  UNL1       -0.2017
     26 C          -2.4169  -17.3460   22.0482 C.ar    1  UNL1        0.0612
     27 C          -3.5008  -18.3241   22.3922 C.ar    1  UNL1        0.1386
     28 F          -4.0568  -18.3684   23.7847 F       1  UNL1       -0.2044
@<TRIPOS>BOND
     1     2     1    1
     2     2     5    1
     3     5     6    1
     4     6     7    2
     5     6     8   am
     6     8     9    1
     7     9    10    1
     8    10    11    1
     9    11    12    1
    10    12    13    1
    11    13    14    1
    12    14    15    1
    13    15    16    1
    14    16    17    1
    15    17    18    1
    16     2    19    1
    17    19    20    1
    18    20    21   ar
    19    21    22   ar
    20    22    23    1
    21    22    24   ar
    22    24    25    1
    23    24    26   ar
    24    26    27   ar
    25    27    28    1
    26    12     8    1
    27    18    16    1
    28    27    20   ar
    29     1     3    1
    30     1     4    1
@<TRIPOS>MOLECULE
*****
 28 30 0 0 0
SMALL
GASTEIGER

@<TRIPOS>ATOM
      1 N          -6.4189  -18.4591   19.6913 N.3     1  UNL1       -0.3215
      2 C          -6.1826  -19.5253   20.7196 C.3     1  UNL1        0.0644
      3 H          -7.4176  -18.2611   19.6301 H       1  UNL1        0.1188
      4 H          -6.0797  -18.7801   18.7845 H       1  UNL1        0.1188
      5 C          -7.3413  -20.1175   21.4659 C.3     1  UNL1        0.1010
      6 C          -8.7225  -19.5680   21.2649 C.2     1  UNL1        0.2270
      7 O          -9.1472  -19.0833   19.9104 O.2     1  UNL1       -0.2748
      8 N          -9.6790  -19.5032   22.4186 N.am    1  UNL1       -0.2787
      9 C          -9.3977  -19.9481   23.8232 C.3     1  UNL1        0.0935
     10 C         -10.6295  -19.7020   24.6429 C.3     1  UNL1        0.0233
     11 C         -11.6722  -19.1049   23.7448 C.3     1  UNL1        0.0241
     12 C         -11.0847  -18.9820   22.3701 C.3     1  UNL1        0.1049
     13 C         -11.7807  -18.4342   21.1596 C.3     1  UNL1        0.1618
     14 O         -11.3504  -17.1205   20.5773 O.3     1  UNL1       -0.3520
     15 C         -10.9688  -15.9874   21.4831 C.3     1  UNL1        0.1422
     16 C          -9.6968  -16.0560   22.2750 C.3     1  UNL1        0.0297
     17 C          -8.1978  -16.0413   22.3291 C.3     1  UNL1        0.0026
     18 C          -8.9925  -16.1896   23.5926 C.3     1  UNL1        0.0026
     19 C          -4.7878  -19.9994   21.0016 C.3     1  UNL1        0.0447
     20 C          -3.6239  -19.0791   20.7813 C.ar    1  UNL1        0.0090
     21 C          -3.0426  -18.9205   19.4077 C.ar    1  UNL1        0.0300
     22 C          -1.8788  -18.0002   19.1875 C.ar    1  UNL1        0.1672
     23 F          -1.2975  -17.8415   17.8138 F       1  UNL1       -0.2018
     24 C          -1.2962  -17.2386   20.3410 C.ar    1  UNL1        0.1696
     25 F          -0.1323  -16.3182   20.1207 F       1  UNL1       -0.2017
     26 C          -1.8774  -17.3972   21.7146 C.ar    1  UNL1        0.0612
     27 C          -3.0413  -18.3175   21.9348 C.ar    1  UNL1        0.1386
     28 F          -3.6225  -18.4762   23.3085 F       1  UNL1       -0.2044
@<TRIPOS>BOND
     1     2     1    1
     2     2     5    1
     3     5     6    1
     4     6     7    2
     5     6     8   am
     6     8     9    1
     7     9    10    1
     8    10    11    1
     9    11    12    1
    10    12    13    1
    11    13    14    1
    12    14    15    1
    13    15    16    1
    14    16    17    1
    15    17    18    1
    16     2    19    1
    17    19    20    1
    18    20    21   ar
    19    21    22   ar
    20    22    23    1
    21    22    24   ar
    22    24    25    1
    23    24    26   ar
    24    26    27   ar
    25    27    28    1
    26    12     8    1
    27    18    16    1
    28    27    20   ar
    29     1     3    1
    30     1     4    1
@<TRIPOS>MOLECULE
*****
 28 30 0 0 0
SMALL
GASTEIGER

@<TRIPOS>ATOM
      1 N          -8.1819  -19.1246   19.0371 N.3     1  UNL1       -0.3215
      2 C          -8.0896  -19.5161   20.4822 C.3     1  UNL1        0.0644
      3 H          -7.2431  -19.0338   18.6489 H       1  UNL1        0.1188
      4 H          -8.6707  -18.2329   18.9570 H       1  UNL1        0.1188
      5 C          -6.7470  -19.7090   21.1227 C.3     1  UNL1        0.1010
      6 C          -6.1347  -18.6022   21.9290 C.2     1  UNL1        0.2270
      7 O          -7.0055  -17.5298   22.5135 O.2     1  UNL1       -0.2748
      8 N          -4.6516  -18.5679   22.1508 N.am    1  UNL1       -0.2787
      9 C          -3.6591  -19.5655   21.6315 C.3     1  UNL1        0.0935
     10 C          -2.2947  -19.1441   22.0905 C.3     1  UNL1        0.0233
     11 C          -2.4440  -17.8859   22.8935 C.3     1  UNL1        0.0241
     12 C          -3.9006  -17.5298   22.9308 C.3     1  UNL1        0.1049
     13 C          -4.5008  -16.3439   23.6259 C.3     1  UNL1        0.1618
     14 O          -4.8136  -16.4125   25.0914 O.3     1  UNL1       -0.3520
     15 C          -5.5795  -15.3022   25.7476 C.3     1  UNL1        0.1422
     16 C          -7.0105  -15.5113   26.1457 C.3     1  UNL1        0.0297
     17 C          -8.4429  -15.7470   25.7677 C.3     1  UNL1        0.0026
     18 C          -8.0567  -15.6379   27.2131 C.3     1  UNL1        0.0026
     19 C          -9.3399  -19.7146   21.2867 C.3     1  UNL1        0.0447
     20 C         -10.1812  -18.5331   21.6693 C.ar    1  UNL1        0.0090
     21 C         -11.0107  -17.8358   20.6321 C.ar    1  UNL1        0.0300
     22 C         -11.8520  -16.6544   21.0147 C.ar    1  UNL1        0.1672
     23 F         -12.6816  -15.9570   19.9775 F       1  UNL1       -0.2018
     24 C         -11.8638  -16.1702   22.4343 C.ar    1  UNL1        0.1696
     25 F         -12.7051  -14.9887   22.8168 F       1  UNL1       -0.2017
     26 C         -11.0343  -16.8675   23.4715 C.ar    1  UNL1        0.0612
     27 C         -10.1930  -18.0489   23.0889 C.ar    1  UNL1        0.1386
     28 F          -9.3634  -18.7463   24.1261 F       1  UNL1       -0.2044
@<TRIPOS>BOND
     1     2     1    1
     2     2     5    1
     3     5     6    1
     4     6     7    2
     5     6     8   am
     6     8     9    1
     7     9    10    1
     8    10    11    1
     9    11    12    1
    10    12    13    1
    11    13    14    1
    12    14    15    1
    13    15    16    1
    14    16    17    1
    15    17    18    1
    16     2    19    1
    17    19    20    1
    18    20    21   ar
    19    21    22   ar
    20    22    23    1
    21    22    24   ar
    22    24    25    1
    23    24    26   ar
    24    26    27   ar
    25    27    28    1
    26    12     8    1
    27    18    16    1
    28    27    20   ar
    29     1     3    1
    30     1     4    1
