@<TRIPOS>MOLECULE
*****
 36 39 0 0 0
SMALL
GASTEIGER

@<TRIPOS>ATOM
      1 N           0.4254    3.5970   23.1793 N.am    1  UNL1       -0.2533
      2 C           0.7680    2.7846   24.3926 C.2     1  UNL1        0.3092
      3 O          -0.2167    1.7895   24.9316 O.2     1  UNL1       -0.2521
      4 N           2.0953    2.9670   25.0672 N.am    1  UNL1       -0.2680
      5 H           1.0717    4.2501   22.8256 H       1  UNL1        0.1578
      6 H           2.7416    3.6201   24.7135 H       1  UNL1        0.1564
      7 C           2.4379    2.1545   26.2806 C.ar    1  UNL1        0.0516
      8 C           2.3535    2.7719   27.6451 C.ar    1  UNL1        0.0148
      9 C           2.6961    1.9594   28.8585 C.ar    1  UNL1        0.0043
     10 C           3.1230    0.5294   28.7076 C.ar    1  UNL1        0.0360
     11 C           3.2074   -0.0880   27.3432 C.ar    1  UNL1        0.0043
     12 C           2.8648    0.7245   26.1297 C.ar    1  UNL1        0.0148
     13 C           3.4656   -0.2831   29.9210 C.ar    1  UNL1        0.1668
     14 N           2.4963   -0.7778   30.9534 N.ar    1  UNL1       -0.1282
     15 N           3.2692   -1.5440   31.9855 N.ar    1  UNL1       -0.1224
     16 C           4.7163   -1.5229   31.5911 C.ar    1  UNL1        0.1896
     17 S           5.8440   -2.1679   32.3410 S.3     1  UNL1       -0.1034
     18 N           4.8377   -0.7436   30.3151 N.ar    1  UNL1       -0.2886
     19 C           6.1080   -0.4724   29.5651 C.3     1  UNL1        0.1340
     20 H           5.3562   -2.7856   33.4500 H       1  UNL1        0.1101
     21 N          -1.1426    2.6890   21.2141 N.ar    1  UNL1       -0.2162
     22 N          -2.6110    2.7517   20.9141 N.ar    1  UNL1       -0.1683
     23 C          -3.2777    3.5161   22.0192 C.ar    1  UNL1        0.0810
     24 C          -2.2214    3.9257   23.0023 C.ar    1  UNL1        0.0509
     25 C          -0.9019    3.4146   22.5047 C.ar    1  UNL1        0.1380
     26 C           3.0343    0.0069   17.8437 C.3     1  UNL1        0.0310
     27 C           1.9900    0.6775   18.6863 C.ar    1  UNL1       -0.0218
     28 C           1.7630    2.1551   18.5642 C.ar    1  UNL1       -0.0027
     29 C           0.7188    2.8256   19.4068 C.ar    1  UNL1        0.0189
     30 C          -0.0984    2.0185   20.3715 C.ar    1  UNL1        0.0842
     31 C           0.1286    0.5409   20.4936 C.ar    1  UNL1        0.0189
     32 C           1.1728   -0.1297   19.6510 C.ar    1  UNL1       -0.0027
     33 C          -4.7434    3.8177   22.1231 C.3     1  UNL1        0.0372
     34 C          -4.7898    3.1331   23.4569 C.3     1  UNL1        0.0060
     35 C          -4.6970    4.5024   20.7892 C.3     1  UNL1        0.0060
     36 C          -6.2091    4.1194   22.2269 C.3     1  UNL1        0.0060
@<TRIPOS>BOND
     1    26    27    1
     2    27    28   ar
     3    28    29   ar
     4    29    30   ar
     5    30    21    1
     6    21    22   ar
     7    22    23   ar
     8    23    33    1
     9    33    34    1
    10    33    35    1
    11    33    36    1
    12    23    24   ar
    13    24    25   ar
    14    25     1    1
    15     1     2   am
    16     2     3    2
    17     2     4   am
    18     4     7    1
    19     7     8   ar
    20     8     9   ar
    21     9    10   ar
    22    10    13    1
    23    13    14   ar
    24    14    15   ar
    25    15    16   ar
    26    16    17    1
    27    16    18   ar
    28    18    19    1
    29    10    11   ar
    30    11    12   ar
    31    30    31   ar
    32    31    32   ar
    33    32    27   ar
    34    25    21   ar
    35    12     7   ar
    36    18    13   ar
    37     1     5    1
    38     4     6    1
    39    17    20    1
@<TRIPOS>MOLECULE
*****
 36 39 0 0 0
SMALL
GASTEIGER

@<TRIPOS>ATOM
      1 N           3.6712    0.3915   22.1542 N.am    1  UNL1       -0.2533
      2 C           2.3030    0.8770   22.5310 C.2     1  UNL1        0.3092
      3 O           1.1062    0.4333   21.7429 O.2     1  UNL1       -0.2521
      4 N           2.1312    1.8061   23.6960 N.am    1  UNL1       -0.2680
      5 H           4.4566    0.6827   22.6715 H       1  UNL1        0.1578
      6 H           2.9166    2.0973   24.2133 H       1  UNL1        0.1564
      7 C           0.7629    2.2916   24.0728 C.ar    1  UNL1        0.0516
      8 C           0.0088    3.2008   23.1485 C.ar    1  UNL1        0.0148
      9 C          -1.3596    3.6863   23.5253 C.ar    1  UNL1        0.0043
     10 C          -1.9738    3.2625   24.8264 C.ar    1  UNL1        0.0360
     11 C          -1.2197    2.3532   25.7508 C.ar    1  UNL1        0.0043
     12 C           0.1487    1.8678   25.3740 C.ar    1  UNL1        0.0148
     13 C          -3.3422    3.7480   25.2032 C.ar    1  UNL1        0.1668
     14 N          -4.6380    3.2800   24.6101 N.ar    1  UNL1       -0.1282
     15 N          -5.7516    4.0294   25.2796 N.ar    1  UNL1       -0.1224
     16 C          -5.1440    4.9605   26.2865 C.ar    1  UNL1        0.1896
     17 S          -5.8939    5.9006   27.1832 S.3     1  UNL1       -0.1034
     18 N          -3.6548    4.7866   26.2393 N.ar    1  UNL1       -0.2886
     19 C          -2.6541    5.5221   27.0805 C.3     1  UNL1        0.1340
     20 H          -7.2282    5.7847   26.9472 H       1  UNL1        0.1101
     21 N           3.7996   -0.1522   19.5402 N.ar    1  UNL1       -0.2162
     22 N           4.0180   -1.3918   18.7242 N.ar    1  UNL1       -0.1683
     23 C           4.1964   -2.5432   19.6688 C.ar    1  UNL1        0.0810
     24 C           4.0882   -2.0153   21.0687 C.ar    1  UNL1        0.0509
     25 C           3.8429   -0.5377   20.9892 C.ar    1  UNL1        0.1380
     26 C           2.9087    5.3766   17.3865 C.3     1  UNL1        0.0310
     27 C           3.1314    3.9944   17.9249 C.ar    1  UNL1       -0.0218
     28 C           1.9631    3.1656   18.3700 C.ar    1  UNL1       -0.0027
     29 C           2.1859    1.7834   18.9084 C.ar    1  UNL1        0.0189
     30 C           3.5769    1.2300   19.0018 C.ar    1  UNL1        0.0842
     31 C           4.7452    2.0587   18.5567 C.ar    1  UNL1        0.0189
     32 C           4.5225    3.4410   18.0183 C.ar    1  UNL1       -0.0027
     33 C           4.4402   -3.9717   19.2816 C.3     1  UNL1        0.0372
     34 C           2.9819   -4.1365   18.9715 C.3     1  UNL1        0.0060
     35 C           5.8985   -3.8069   19.5917 C.3     1  UNL1        0.0060
     36 C           4.6840   -5.4002   18.8943 C.3     1  UNL1        0.0060
@<TRIPOS>BOND
     1    26    27    1
     2    27    28   ar
     3    28    29   ar
     4    29    30   ar
     5    30    21    1
     6    21    22   ar
     7    22    23   ar
     8    23    33    1
     9    33    34    1
    10    33    35    1
    11    33    36    1
    12    23    24   ar
    13    24    25   ar
    14    25     1    1
    15     1     2   am
    16     2     3    2
    17     2     4   am
    18     4     7    1
    19     7     8   ar
    20     8     9   ar
    21     9    10   ar
    22    10    13    1
    23    13    14   ar
    24    14    15   ar
    25    15    16   ar
    26    16    17    1
    27    16    18   ar
    28    18    19    1
    29    10    11   ar
    30    11    12   ar
    31    30    31   ar
    32    31    32   ar
    33    32    27   ar
    34    25    21   ar
    35    12     7   ar
    36    18    13   ar
    37     1     5    1
    38     4     6    1
    39    17    20    1
@<TRIPOS>MOLECULE
*****
 36 39 0 0 0
SMALL
GASTEIGER

@<TRIPOS>ATOM
      1 N           2.4294    1.4468   20.7245 N.am    1  UNL1       -0.2533
      2 C           0.9816    1.7218   20.4450 C.2     1  UNL1        0.3092
      3 O           0.0070    0.5854   20.3499 O.2     1  UNL1       -0.2521
      4 N           0.5082    3.1331   20.2604 N.am    1  UNL1       -0.2680
      5 H           3.0690    2.1926   20.7869 H       1  UNL1        0.1578
      6 H           1.1478    3.8790   20.3228 H       1  UNL1        0.1564
      7 C          -0.9396    3.4081   19.9809 C.ar    1  UNL1        0.0516
      8 C          -1.3710    3.8327   18.6084 C.ar    1  UNL1        0.0148
      9 C          -2.8188    4.1077   18.3289 C.ar    1  UNL1        0.0043
     10 C          -3.8353    3.9581   19.4217 C.ar    1  UNL1        0.0360
     11 C          -3.4039    3.5335   20.7941 C.ar    1  UNL1        0.0043
     12 C          -1.9561    3.2585   21.0737 C.ar    1  UNL1        0.0148
     13 C          -5.2831    4.2331   19.1421 C.ar    1  UNL1        0.1668
     14 N          -6.2744    3.2555   18.5836 N.ar    1  UNL1       -0.1282
     15 N          -7.5978    3.9522   18.4683 N.ar    1  UNL1       -0.1224
     16 C          -7.4245    5.3602   18.9555 C.ar    1  UNL1        0.1896
     17 S          -8.4939    6.4103   19.0158 S.3     1  UNL1       -0.1034
     18 N          -5.9939    5.5338   19.3720 N.ar    1  UNL1       -0.2886
     19 C          -5.3816    6.7879   19.9218 C.3     1  UNL1        0.1340
     20 H          -9.6645    5.8921   18.5566 H       1  UNL1        0.1101
     21 N           3.0538   -0.6797   22.2189 N.ar    1  UNL1       -0.2162
     22 N           3.5526   -2.0657   21.9354 N.ar    1  UNL1       -0.1683
     23 C           3.7097   -2.2071   20.4504 C.ar    1  UNL1        0.0810
     24 C           3.3081   -0.9086   19.8160 C.ar    1  UNL1        0.0509
     25 C           2.9027    0.0354   20.9090 C.ar    1  UNL1        0.1380
     26 C           1.8710    1.6029   27.6402 C.3     1  UNL1        0.0310
     27 C           2.1667    1.0322   26.2849 C.ar    1  UNL1       -0.0218
     28 C           1.2082    1.2535   25.1526 C.ar    1  UNL1       -0.0027
     29 C           1.5039    0.6828   23.7972 C.ar    1  UNL1        0.0189
     30 C           2.7581   -0.1091   23.5742 C.ar    1  UNL1        0.0842
     31 C           3.7166   -0.3303   24.7066 C.ar    1  UNL1        0.0189
     32 C           3.4209    0.2403   26.0619 C.ar    1  UNL1       -0.0027
     33 C           4.1850   -3.4321   19.7268 C.3     1  UNL1        0.0372
     34 C           4.2341   -4.1804   21.0259 C.3     1  UNL1        0.0060
     35 C           4.1359   -2.6837   18.4277 C.3     1  UNL1        0.0060
     36 C           4.6603   -4.6570   19.0032 C.3     1  UNL1        0.0060
@<TRIPOS>BOND
     1    26    27    1
     2    27    28   ar
     3    28    29   ar
     4    29    30   ar
     5    30    21    1
     6    21    22   ar
     7    22    23   ar
     8    23    33    1
     9    33    34    1
    10    33    35    1
    11    33    36    1
    12    23    24   ar
    13    24    25   ar
    14    25     1    1
    15     1     2   am
    16     2     3    2
    17     2     4   am
    18     4     7    1
    19     7     8   ar
    20     8     9   ar
    21     9    10   ar
    22    10    13    1
    23    13    14   ar
    24    14    15   ar
    25    15    16   ar
    26    16    17    1
    27    16    18   ar
    28    18    19    1
    29    10    11   ar
    30    11    12   ar
    31    30    31   ar
    32    31    32   ar
    33    32    27   ar
    34    25    21   ar
    35    12     7   ar
    36    18    13   ar
    37     1     5    1
    38     4     6    1
    39    17    20    1
@<TRIPOS>MOLECULE
*****
 36 39 0 0 0
SMALL
GASTEIGER

@<TRIPOS>ATOM
      1 N          -0.8434    3.8652   24.0389 N.am    1  UNL1       -0.2533
      2 C          -0.1936    3.0791   25.1386 C.2     1  UNL1        0.3092
      3 O           0.3434    1.7059   24.8628 O.2     1  UNL1       -0.2521
      4 N          -0.0807    3.6660   26.5144 N.am    1  UNL1       -0.2680
      5 H          -1.1958    4.7665   24.2200 H       1  UNL1        0.1578
      6 H          -0.4331    4.5673   26.6956 H       1  UNL1        0.1564
      7 C           0.5691    2.8798   27.6142 C.ar    1  UNL1        0.0516
      8 C          -0.2575    1.9738   28.4779 C.ar    1  UNL1        0.0148
      9 C           0.3923    1.1876   29.5777 C.ar    1  UNL1        0.0043
     10 C           1.8687    1.3072   29.8139 C.ar    1  UNL1        0.0360
     11 C           2.6954    2.2132   28.9502 C.ar    1  UNL1        0.0043
     12 C           2.0456    2.9994   27.8504 C.ar    1  UNL1        0.0148
     13 C           2.5185    0.5210   30.9137 C.ar    1  UNL1        0.1668
     14 N           2.6337   -0.9731   30.9800 N.ar    1  UNL1       -0.1282
     15 N           3.3536   -1.3267   32.2476 N.ar    1  UNL1       -0.1224
     16 C           3.6834   -0.0511   32.9646 C.ar    1  UNL1        0.1896
     17 S           4.4029    0.0626   34.2759 S.3     1  UNL1       -0.1034
     18 N           3.1672    1.0909   32.1402 N.ar    1  UNL1       -0.2886
     19 C           3.2800    2.5470   32.4823 C.3     1  UNL1        0.1340
     20 H           4.7188   -1.1802   34.7289 H       1  UNL1        0.1101
     21 N          -2.2134    3.1672   21.8524 N.ar    1  UNL1       -0.2162
     22 N          -1.8659    2.5197   20.5447 N.ar    1  UNL1       -0.1683
     23 C          -0.3940    2.2307   20.5472 C.ar    1  UNL1        0.0810
     24 C           0.1682    2.6995   21.8565 C.ar    1  UNL1        0.0509
     25 C          -0.9563    3.2783   22.6631 C.ar    1  UNL1        0.1380
     26 C          -7.6733    4.9921   23.5434 C.3     1  UNL1        0.0310
     27 C          -6.3083    4.5359   23.1206 C.ar    1  UNL1       -0.0218
     28 C          -5.8013    4.8600   21.7467 C.ar    1  UNL1       -0.0027
     29 C          -4.4364    4.4038   21.3239 C.ar    1  UNL1        0.0189
     30 C          -3.5784    3.6234   22.2751 C.ar    1  UNL1        0.0842
     31 C          -4.0854    3.2993   23.6491 C.ar    1  UNL1        0.0189
     32 C          -5.4504    3.7555   24.0719 C.ar    1  UNL1       -0.0027
     33 C           0.3798    1.5860   19.4357 C.3     1  UNL1        0.0372
     34 C           0.4433    0.3092   20.2204 C.3     1  UNL1        0.0060
     35 C           0.3162    2.8627   18.6509 C.3     1  UNL1        0.0060
     36 C           1.1536    0.9413   18.3241 C.3     1  UNL1        0.0060
@<TRIPOS>BOND
     1    26    27    1
     2    27    28   ar
     3    28    29   ar
     4    29    30   ar
     5    30    21    1
     6    21    22   ar
     7    22    23   ar
     8    23    33    1
     9    33    34    1
    10    33    35    1
    11    33    36    1
    12    23    24   ar
    13    24    25   ar
    14    25     1    1
    15     1     2   am
    16     2     3    2
    17     2     4   am
    18     4     7    1
    19     7     8   ar
    20     8     9   ar
    21     9    10   ar
    22    10    13    1
    23    13    14   ar
    24    14    15   ar
    25    15    16   ar
    26    16    17    1
    27    16    18   ar
    28    18    19    1
    29    10    11   ar
    30    11    12   ar
    31    30    31   ar
    32    31    32   ar
    33    32    27   ar
    34    25    21   ar
    35    12     7   ar
    36    18    13   ar
    37     1     5    1
    38     4     6    1
    39    17    20    1
@<TRIPOS>MOLECULE
*****
 36 39 0 0 0
SMALL
GASTEIGER

@<TRIPOS>ATOM
      1 N           1.6425    0.6261   20.7249 N.am    1  UNL1       -0.2533
      2 C           1.7294    0.6795   22.2214 C.2     1  UNL1        0.3092
      3 O           2.7842   -0.1087   22.9400 O.2     1  UNL1       -0.2521
      4 N           0.7617    1.5211   22.9994 N.am    1  UNL1       -0.2680
      5 H           0.9503    1.1434   20.2533 H       1  UNL1        0.1578
      6 H           0.0695    2.0384   22.5278 H       1  UNL1        0.1564
      7 C           0.8487    1.5745   24.4959 C.ar    1  UNL1        0.0516
      8 C          -0.3077    1.1112   25.3314 C.ar    1  UNL1        0.0148
      9 C          -0.2207    1.1646   26.8279 C.ar    1  UNL1        0.0043
     10 C           1.0227    1.6812   27.4890 C.ar    1  UNL1        0.0360
     11 C           2.1791    2.1444   26.6535 C.ar    1  UNL1        0.0043
     12 C           2.0921    2.0911   25.1570 C.ar    1  UNL1        0.0148
     13 C           1.1097    1.7346   28.9855 C.ar    1  UNL1        0.1668
     14 N           1.3030    0.5613   29.8999 N.ar    1  UNL1       -0.1282
     15 N           1.3314    1.0722   31.3099 N.ar    1  UNL1       -0.1224
     16 C           1.1557    2.5612   31.2670 C.ar    1  UNL1        0.1896
     17 S           1.1227    3.4796   32.4525 S.3     1  UNL1       -0.1034
     18 N           1.0186    2.9706   29.8304 N.ar    1  UNL1       -0.2886
     19 C           0.8246    4.3703   29.3272 C.3     1  UNL1        0.1340
     20 H           1.2780    2.7543   33.5924 H       1  UNL1        0.1101
     21 N           3.5746    0.2802   18.9104 N.ar    1  UNL1       -0.2162
     22 N           4.3438   -0.8985   18.3918 N.ar    1  UNL1       -0.1683
     23 C           3.8550   -2.1225   19.1078 C.ar    1  UNL1        0.0810
     24 C           2.7835   -1.7004   20.0689 C.ar    1  UNL1        0.0509
     25 C           2.6102   -0.2155   19.9469 C.ar    1  UNL1        0.1380
     26 C           4.2382    5.9770   17.1482 C.3     1  UNL1        0.0310
     27 C           4.0723    4.5528   17.5887 C.ar    1  UNL1       -0.0218
     28 C           5.2538    3.6288   17.6001 C.ar    1  UNL1       -0.0027
     29 C           5.0879    2.2046   18.0407 C.ar    1  UNL1        0.0189
     30 C           3.7405    1.7044   18.4698 C.ar    1  UNL1        0.0842
     31 C           2.5589    2.6284   18.4584 C.ar    1  UNL1        0.0189
     32 C           2.7248    4.0526   18.0179 C.ar    1  UNL1       -0.0027
     33 C           4.3505   -3.5229   18.8992 C.3     1  UNL1        0.0372
     34 C           5.6662   -2.9857   18.4190 C.3     1  UNL1        0.0060
     35 C           3.0349   -4.0600   19.3794 C.3     1  UNL1        0.0060
     36 C           4.8461   -4.9232   18.6906 C.3     1  UNL1        0.0060
@<TRIPOS>BOND
     1    26    27    1
     2    27    28   ar
     3    28    29   ar
     4    29    30   ar
     5    30    21    1
     6    21    22   ar
     7    22    23   ar
     8    23    33    1
     9    33    34    1
    10    33    35    1
    11    33    36    1
    12    23    24   ar
    13    24    25   ar
    14    25     1    1
    15     1     2   am
    16     2     3    2
    17     2     4   am
    18     4     7    1
    19     7     8   ar
    20     8     9   ar
    21     9    10   ar
    22    10    13    1
    23    13    14   ar
    24    14    15   ar
    25    15    16   ar
    26    16    17    1
    27    16    18   ar
    28    18    19    1
    29    10    11   ar
    30    11    12   ar
    31    30    31   ar
    32    31    32   ar
    33    32    27   ar
    34    25    21   ar
    35    12     7   ar
    36    18    13   ar
    37     1     5    1
    38     4     6    1
    39    17    20    1
@<TRIPOS>MOLECULE
*****
 36 39 0 0 0
SMALL
GASTEIGER

@<TRIPOS>ATOM
      1 N           6.5221   -1.7778   24.5379 N.am    1  UNL1       -0.2533
      2 C           5.2228   -1.2319   24.0246 C.2     1  UNL1        0.3092
      3 O           4.2391   -2.1438   23.3530 O.2     1  UNL1       -0.2521
      4 N           4.9070    0.2259   24.1827 N.am    1  UNL1       -0.2680
      5 H           7.1677   -1.1793   24.9786 H       1  UNL1        0.1578
      6 H           5.5525    0.8245   24.6234 H       1  UNL1        0.1564
      7 C           3.6076    0.7718   23.6693 C.ar    1  UNL1        0.0516
      8 C           2.3346    0.5054   24.4166 C.ar    1  UNL1        0.0148
      9 C           1.0352    1.0513   23.9033 C.ar    1  UNL1        0.0043
     10 C           1.0087    1.8636   22.6426 C.ar    1  UNL1        0.0360
     11 C           2.2817    2.1300   21.8952 C.ar    1  UNL1        0.0043
     12 C           3.5811    1.5841   22.4086 C.ar    1  UNL1        0.0148
     13 C          -0.2907    2.4094   22.1292 C.ar    1  UNL1        0.1668
     14 N          -0.9716    2.0115   20.8532 N.ar    1  UNL1       -0.1282
     15 N          -2.2390    2.8052   20.7371 N.ar    1  UNL1       -0.1224
     16 C          -2.3415    3.6937   21.9412 C.ar    1  UNL1        0.1896
     17 S          -3.4530    4.6576   22.2337 S.3     1  UNL1       -0.1034
     18 N          -1.1373    3.4491   22.8016 N.ar    1  UNL1       -0.2886
     19 C          -0.8333    4.1255   24.1055 C.3     1  UNL1        0.1340
     20 H          -4.3709    4.6088   21.2314 H       1  UNL1        0.1101
     21 N           7.0422   -3.9577   23.0810 N.ar    1  UNL1       -0.2162
     22 N           7.3354   -5.3957   23.3913 N.ar    1  UNL1       -0.1683
     23 C           7.3124   -5.5623   24.8818 C.ar    1  UNL1        0.0810
     24 C           7.0049   -4.2273   25.4928 C.ar    1  UNL1        0.0509
     25 C           6.8379   -3.2357   24.3798 C.ar    1  UNL1        0.1380
     26 C           6.7394   -1.5219   17.6060 C.3     1  UNL1        0.0310
     27 C           6.8151   -2.1309   18.9748 C.ar    1  UNL1       -0.0218
     28 C           7.8848   -1.6947   19.9316 C.ar    1  UNL1       -0.0027
     29 C           7.9605   -2.3037   21.3003 C.ar    1  UNL1        0.0189
     30 C           6.9665   -3.3488   21.7123 C.ar    1  UNL1        0.0842
     31 C           5.8968   -3.7849   20.7554 C.ar    1  UNL1        0.0189
     32 C           5.8211   -3.1760   19.3867 C.ar    1  UNL1       -0.0027
     33 C           7.5544   -6.8397   25.6300 C.3     1  UNL1        0.0372
     34 C           6.7991   -6.2942   26.8056 C.3     1  UNL1        0.0060
     35 C           8.3097   -7.3851   24.4545 C.3     1  UNL1        0.0060
     36 C           7.7964   -8.1170   26.3782 C.3     1  UNL1        0.0060
@<TRIPOS>BOND
     1    26    27    1
     2    27    28   ar
     3    28    29   ar
     4    29    30   ar
     5    30    21    1
     6    21    22   ar
     7    22    23   ar
     8    23    33    1
     9    33    34    1
    10    33    35    1
    11    33    36    1
    12    23    24   ar
    13    24    25   ar
    14    25     1    1
    15     1     2   am
    16     2     3    2
    17     2     4   am
    18     4     7    1
    19     7     8   ar
    20     8     9   ar
    21     9    10   ar
    22    10    13    1
    23    13    14   ar
    24    14    15   ar
    25    15    16   ar
    26    16    17    1
    27    16    18   ar
    28    18    19    1
    29    10    11   ar
    30    11    12   ar
    31    30    31   ar
    32    31    32   ar
    33    32    27   ar
    34    25    21   ar
    35    12     7   ar
    36    18    13   ar
    37     1     5    1
    38     4     6    1
    39    17    20    1
@<TRIPOS>MOLECULE
*****
 36 39 0 0 0
SMALL
GASTEIGER

@<TRIPOS>ATOM
      1 N          -1.3786    3.6336   24.3984 N.am    1  UNL1       -0.2533
      2 C          -0.5308    2.8176   25.3285 C.2     1  UNL1        0.3092
      3 O           0.2529    1.6522   24.8013 O.2     1  UNL1       -0.2521
      4 N          -0.4665    3.1668   26.7859 N.am    1  UNL1       -0.2680
      5 H          -1.8929    4.3984   24.7445 H       1  UNL1        0.1578
      6 H          -0.9808    3.9316   27.1320 H       1  UNL1        0.1564
      7 C           0.3814    2.3506   27.7159 C.ar    1  UNL1        0.0516
      8 C           1.6955    2.8885   28.1995 C.ar    1  UNL1        0.0148
      9 C           2.5434    2.0724   29.1295 C.ar    1  UNL1        0.0043
     10 C           2.0773    0.7184   29.5761 C.ar    1  UNL1        0.0360
     11 C           0.7631    0.1806   29.0926 C.ar    1  UNL1        0.0043
     12 C          -0.0848    0.9967   28.1625 C.ar    1  UNL1        0.0148
     13 C           2.9251   -0.0977   30.5062 C.ar    1  UNL1        0.1668
     14 N           2.6585   -0.3349   31.9631 N.ar    1  UNL1       -0.1282
     15 N           3.7571   -1.2037   32.5000 N.ar    1  UNL1       -0.1224
     16 C           4.7028   -1.5034   31.3749 C.ar    1  UNL1        0.1896
     17 S           5.9446   -2.3398   31.4660 S.3     1  UNL1       -0.1034
     18 N           4.1886   -0.8198   30.1426 N.ar    1  UNL1       -0.2886
     19 C           4.8260   -0.8526   28.7852 C.3     1  UNL1        0.1340
     20 H           6.0919   -2.7954   32.7389 H       1  UNL1        0.1101
     21 N          -2.6758    3.2896   22.0867 N.ar    1  UNL1       -0.2162
     22 N          -2.2804    2.8772   20.6998 N.ar    1  UNL1       -0.1683
     23 C          -0.8031    2.6171   20.6970 C.ar    1  UNL1        0.0810
     24 C          -0.2855    2.8689   22.0821 C.ar    1  UNL1        0.0509
     25 C          -1.4429    3.2845   22.9410 C.ar    1  UNL1        0.1380
     26 C          -8.2163    4.7103   23.8989 C.3     1  UNL1        0.0310
     27 C          -6.8312    4.3551   23.4459 C.ar    1  UNL1       -0.0218
     28 C          -5.7824    3.9912   24.4546 C.ar    1  UNL1       -0.0027
     29 C          -4.3973    3.6361   24.0015 C.ar    1  UNL1        0.0189
     30 C          -4.0609    3.6448   22.5398 C.ar    1  UNL1        0.0842
     31 C          -5.1098    4.0086   21.5311 C.ar    1  UNL1        0.0189
     32 C          -6.4949    4.3638   21.9841 C.ar    1  UNL1       -0.0027
     33 C           0.0132    2.1818   19.5162 C.3     1  UNL1        0.0372
     34 C          -0.2969    3.4762   18.8246 C.3     1  UNL1        0.0060
     35 C           0.3234    0.8874   20.2079 C.3     1  UNL1        0.0060
     36 C           0.8295    1.7465   18.3355 C.3     1  UNL1        0.0060
@<TRIPOS>BOND
     1    26    27    1
     2    27    28   ar
     3    28    29   ar
     4    29    30   ar
     5    30    21    1
     6    21    22   ar
     7    22    23   ar
     8    23    33    1
     9    33    34    1
    10    33    35    1
    11    33    36    1
    12    23    24   ar
    13    24    25   ar
    14    25     1    1
    15     1     2   am
    16     2     3    2
    17     2     4   am
    18     4     7    1
    19     7     8   ar
    20     8     9   ar
    21     9    10   ar
    22    10    13    1
    23    13    14   ar
    24    14    15   ar
    25    15    16   ar
    26    16    17    1
    27    16    18   ar
    28    18    19    1
    29    10    11   ar
    30    11    12   ar
    31    30    31   ar
    32    31    32   ar
    33    32    27   ar
    34    25    21   ar
    35    12     7   ar
    36    18    13   ar
    37     1     5    1
    38     4     6    1
    39    17    20    1
@<TRIPOS>MOLECULE
*****
 36 39 0 0 0
SMALL
GASTEIGER

@<TRIPOS>ATOM
      1 N          -1.5933    2.8292   21.5569 N.am    1  UNL1       -0.2533
      2 C          -0.4076    2.1809   20.9059 C.2     1  UNL1        0.3092
      3 O          -0.2527    2.2264   19.4145 O.2     1  UNL1       -0.2521
      4 N           0.6232    1.4870   21.7461 N.am    1  UNL1       -0.2680
      5 H          -1.6949    2.7993   22.5356 H       1  UNL1        0.1578
      6 H           0.5216    1.4571   22.7249 H       1  UNL1        0.1564
      7 C           1.8089    0.8388   21.0950 C.ar    1  UNL1        0.0516
      8 C           1.7315   -0.5918   20.6505 C.ar    1  UNL1        0.0148
      9 C           2.9172   -1.2400   19.9994 C.ar    1  UNL1        0.0043
     10 C           4.1803   -0.4579   19.7928 C.ar    1  UNL1        0.0360
     11 C           4.2577    0.9727   20.2373 C.ar    1  UNL1        0.0043
     12 C           3.0720    1.6210   20.8884 C.ar    1  UNL1        0.0148
     13 C           5.3659   -1.1061   19.1418 C.ar    1  UNL1        0.1668
     14 N           5.4730   -1.5010   17.6986 N.ar    1  UNL1       -0.1282
     15 N           6.8260   -2.1123   17.4845 N.ar    1  UNL1       -0.1224
     16 C           7.5551   -2.0952   18.7952 C.ar    1  UNL1        0.1896
     17 S           8.9429   -2.6096   19.0390 S.3     1  UNL1       -0.1034
     18 N           6.6527   -1.4733   19.8195 N.ar    1  UNL1       -0.2886
     19 C           6.9797   -1.2567   21.2673 C.3     1  UNL1        0.1340
     20 H           9.4538   -3.1026   17.8790 H       1  UNL1        0.1101
     21 N          -3.7996    4.3019   21.2281 N.ar    1  UNL1       -0.2162
     22 N          -4.5624    4.8200   20.0450 N.ar    1  UNL1       -0.1683
     23 C          -3.8583    4.3614   18.8024 C.ar    1  UNL1        0.0810
     24 C          -2.6603    3.5598   19.2175 C.ar    1  UNL1        0.0509
     25 C          -2.6241    3.5230   20.7167 C.ar    1  UNL1        0.1380
     26 C          -5.2040    5.1889   26.9935 C.3     1  UNL1        0.0310
     27 C          -4.8529    4.9672   25.5522 C.ar    1  UNL1       -0.0218
     28 C          -5.0723    3.6223   24.9251 C.ar    1  UNL1       -0.0027
     29 C          -4.7212    3.4006   23.4838 C.ar    1  UNL1        0.0189
     30 C          -4.1507    4.5237   22.6694 C.ar    1  UNL1        0.0842
     31 C          -3.9313    5.8685   23.2965 C.ar    1  UNL1        0.0189
     32 C          -4.2824    6.0903   24.7378 C.ar    1  UNL1       -0.0027
     33 C          -4.2784    4.6532   17.3923 C.3     1  UNL1        0.0372
     34 C          -5.6538    5.0067   17.8753 C.3     1  UNL1        0.0060
     35 C          -2.9030    4.2997   16.9094 C.3     1  UNL1        0.0060
     36 C          -4.6985    4.9450   15.9822 C.3     1  UNL1        0.0060
@<TRIPOS>BOND
     1    26    27    1
     2    27    28   ar
     3    28    29   ar
     4    29    30   ar
     5    30    21    1
     6    21    22   ar
     7    22    23   ar
     8    23    33    1
     9    33    34    1
    10    33    35    1
    11    33    36    1
    12    23    24   ar
    13    24    25   ar
    14    25     1    1
    15     1     2   am
    16     2     3    2
    17     2     4   am
    18     4     7    1
    19     7     8   ar
    20     8     9   ar
    21     9    10   ar
    22    10    13    1
    23    13    14   ar
    24    14    15   ar
    25    15    16   ar
    26    16    17    1
    27    16    18   ar
    28    18    19    1
    29    10    11   ar
    30    11    12   ar
    31    30    31   ar
    32    31    32   ar
    33    32    27   ar
    34    25    21   ar
    35    12     7   ar
    36    18    13   ar
    37     1     5    1
    38     4     6    1
    39    17    20    1
@<TRIPOS>MOLECULE
*****
 36 39 0 0 0
SMALL
GASTEIGER

@<TRIPOS>ATOM
      1 N           4.4096    0.5023   21.9628 N.am    1  UNL1       -0.2533
      2 C           3.8039    0.6176   23.3302 C.2     1  UNL1        0.3092
      3 O           2.7963   -0.3932   23.7919 O.2     1  UNL1       -0.2521
      4 N           4.2058    1.7437   24.2360 N.am    1  UNL1       -0.2680
      5 H           5.0709    1.1658   21.6599 H       1  UNL1        0.1578
      6 H           4.8671    2.4071   23.9331 H       1  UNL1        0.1564
      7 C           3.6000    1.8589   25.6034 C.ar    1  UNL1        0.0516
      8 C           4.3118    1.2802   26.7902 C.ar    1  UNL1        0.0148
      9 C           3.7061    1.3955   28.1576 C.ar    1  UNL1        0.0043
     10 C           2.3886    2.0894   28.3383 C.ar    1  UNL1        0.0360
     11 C           1.6769    2.6681   27.1515 C.ar    1  UNL1        0.0043
     12 C           2.2826    2.5529   25.7841 C.ar    1  UNL1        0.0148
     13 C           1.7829    2.2047   29.7057 C.ar    1  UNL1        0.1668
     14 N           0.9032    1.1867   30.3690 N.ar    1  UNL1       -0.1282
     15 N           0.5271    1.7110   31.7231 N.ar    1  UNL1       -0.1224
     16 C           1.1744    3.0530   31.8967 C.ar    1  UNL1        0.1896
     17 S           1.0648    3.9350   33.1050 S.3     1  UNL1       -0.1034
     18 N           1.9505    3.3581   30.6499 N.ar    1  UNL1       -0.2886
     19 C           2.7533    4.5988   30.3924 C.3     1  UNL1        0.1340
     20 H           0.2797    3.3315   34.0372 H       1  UNL1        0.1101
     21 N           2.8163   -0.6400   20.1458 N.ar    1  UNL1       -0.2162
     22 N           2.7991   -1.9575   19.4290 N.ar    1  UNL1       -0.1683
     23 C           3.9798   -2.7555   19.8972 C.ar    1  UNL1        0.0810
     24 C           4.7268   -1.9311   20.9033 C.ar    1  UNL1        0.0509
     25 C           4.0078   -0.6237   21.0570 C.ar    1  UNL1        0.1380
     26 C          -1.1788    3.7874   19.4845 C.3     1  UNL1        0.0310
     27 C          -0.1800    2.6805   19.6498 C.ar    1  UNL1       -0.0218
     28 C           0.8570    2.4420   18.5926 C.ar    1  UNL1       -0.0027
     29 C           1.8558    1.3351   18.7580 C.ar    1  UNL1        0.0189
     30 C           1.8176    0.4668   19.9805 C.ar    1  UNL1        0.0842
     31 C           0.7805    0.7054   21.0376 C.ar    1  UNL1        0.0189
     32 C          -0.2182    1.8122   20.8723 C.ar    1  UNL1       -0.0027
     33 C           4.3487   -4.1355   19.4395 C.3     1  UNL1        0.0372
     34 C           5.7593   -3.9102   19.8972 C.3     1  UNL1        0.0060
     35 C           2.9382   -4.3608   18.9817 C.3     1  UNL1        0.0060
     36 C           4.7176   -5.5155   18.9818 C.3     1  UNL1        0.0060
@<TRIPOS>BOND
     1    26    27    1
     2    27    28   ar
     3    28    29   ar
     4    29    30   ar
     5    30    21    1
     6    21    22   ar
     7    22    23   ar
     8    23    33    1
     9    33    34    1
    10    33    35    1
    11    33    36    1
    12    23    24   ar
    13    24    25   ar
    14    25     1    1
    15     1     2   am
    16     2     3    2
    17     2     4   am
    18     4     7    1
    19     7     8   ar
    20     8     9   ar
    21     9    10   ar
    22    10    13    1
    23    13    14   ar
    24    14    15   ar
    25    15    16   ar
    26    16    17    1
    27    16    18   ar
    28    18    19    1
    29    10    11   ar
    30    11    12   ar
    31    30    31   ar
    32    31    32   ar
    33    32    27   ar
    34    25    21   ar
    35    12     7   ar
    36    18    13   ar
    37     1     5    1
    38     4     6    1
    39    17    20    1
