@<TRIPOS>MOLECULE
*****
 31 34 0 0 0
SMALL
GASTEIGER

@<TRIPOS>ATOM
      1 C          -6.8345  -16.6530   23.5213 C.ar    1  UNL1       -0.0100
      2 C          -6.0555  -17.7930   22.9352 C.ar    1  UNL1       -0.0075
      3 C          -6.6821  -18.6729   21.8944 C.ar    1  UNL1       -0.0200
      4 C          -8.0876  -18.4128   21.4397 C.ar    1  UNL1       -0.0045
      5 C          -8.8666  -17.2727   22.0258 C.ar    1  UNL1       -0.0035
      6 C          -8.2401  -16.3928   23.0665 C.ar    1  UNL1       -0.0036
      7 C         -10.2722  -17.0126   21.5710 C.2     1  UNL1       -0.0011
      8 C         -10.5217  -16.2292   20.3164 C.2     1  UNL1        0.0472
      9 C         -11.9271  -15.9691   19.8616 C.2     1  UNL1        0.2354
     10 N         -13.0832  -16.4923   20.6614 N.2     1  UNL1       -0.0320
     11 C         -12.8337  -17.2757   21.9161 C.2     1  UNL1        0.3872
     12 N         -13.7659  -17.9128   22.9036 N.2     1  UNL1        0.0820
     13 N         -12.9364  -18.5666   23.9687 N.2     1  UNL1       -0.0337
     14 C         -11.4917  -18.3337   23.6395 C.2     1  UNL1        0.1921
     15 C         -11.4282  -17.5358   22.3708 C.3     1  UNL1        0.1845
     16 C         -10.3167  -18.8142   24.4385 C.3     1  UNL1        0.4355
     17 F          -9.1416  -19.2948   25.2375 F       1  UNL1       -0.1645
     18 F         -10.2279  -20.0361   23.5731 F       1  UNL1       -0.1645
     19 F         -10.1383  -17.8518   25.3682 F       1  UNL1       -0.1645
     20 C          -6.2080  -15.7731   24.5621 C.3     1  UNL1        0.0980
     21 C          -5.1782  -14.9504   25.2781 C.3     1  UNL1        0.0196
     22 C          -4.8291  -15.6324   23.9884 C.3     1  UNL1        0.0196
     23 N          -8.5305  -15.4433   26.4322 N.1     1  UNL1       -0.1956
     24 C          -7.3692  -15.6082   25.4971 C.1     1  UNL1        0.0752
     25 C          -5.9030  -19.8129   21.3083 C.3     1  UNL1        0.0581
     26 C          -4.8324  -19.5458   20.2922 C.3     1  UNL1        0.1440
     27 O          -4.9609  -18.3811   19.3558 O.3     1  UNL1       -0.3816
     28 H          -5.7876  -17.9081   19.5396 H       1  UNL1        0.2105
     29 C          -3.6332  -20.4434   20.2126 C.3     1  UNL1        0.1666
     30 O          -2.5086  -20.2811   21.1918 O.3     1  UNL1       -0.3795
     31 H          -2.0787  -19.4230   21.0512 H       1  UNL1        0.2105
@<TRIPOS>BOND
     1    23    24    3
     2    24    20    1
     3    20     1    1
     4     1     2   ar
     5     2     3   ar
     6     3    25    1
     7    25    26    1
     8    26    27    1
     9    26    29    1
    10    29    30    1
    11     3     4   ar
    12     4     5   ar
    13     5     7    1
    14     7     8    2
    15     8     9    1
    16     9    10    2
    17    10    11    1
    18    11    12    2
    19    12    13    1
    20    13    14    2
    21    14    16    1
    22    16    17    1
    23    16    18    1
    24    16    19    1
    25    14    15    1
    26     5     6   ar
    27    20    21    1
    28    21    22    1
    29    22    20    1
    30     6     1   ar
    31    15     7    1
    32    15    11    1
    33    27    28    1
    34    30    31    1
@<TRIPOS>MOLECULE
*****
 31 34 0 0 0
SMALL
GASTEIGER

@<TRIPOS>ATOM
      1 C          -6.6418  -18.9597   21.4703 C.ar    1  UNL1       -0.0100
      2 C          -5.9199  -18.1183   22.4807 C.ar    1  UNL1       -0.0075
      3 C          -6.6154  -16.9536   23.1210 C.ar    1  UNL1       -0.0200
      4 C          -8.0325  -16.6303   22.7508 C.ar    1  UNL1       -0.0045
      5 C          -8.7544  -17.4718   21.7404 C.ar    1  UNL1       -0.0035
      6 C          -8.0591  -18.6364   21.1001 C.ar    1  UNL1       -0.0036
      7 C         -10.1716  -17.1484   21.3703 C.2     1  UNL1       -0.0011
      8 C         -10.4618  -16.3722   20.1199 C.2     1  UNL1        0.0472
      9 C         -11.8790  -16.0489   19.7498 C.2     1  UNL1        0.2354
     10 N         -13.0060  -16.5018   20.6299 N.2     1  UNL1       -0.0320
     11 C         -12.7158  -17.2780   21.8803 C.2     1  UNL1        0.3872
     12 N         -13.6133  -17.8530   22.9357 N.2     1  UNL1        0.0820
     13 N         -12.7508  -18.5317   23.9582 N.2     1  UNL1       -0.0337
     14 C         -11.3202  -18.3761   23.5346 C.2     1  UNL1        0.1921
     15 C         -11.2986  -17.6013   22.2504 C.3     1  UNL1        0.1845
     16 C         -10.1217  -18.9029   24.2668 C.3     1  UNL1        0.4355
     17 F          -8.9231  -19.4297   24.9989 F       1  UNL1       -0.1645
     18 F         -10.1285  -20.1257   23.3981 F       1  UNL1       -0.1645
     19 F          -9.8547  -17.9498   25.1848 F       1  UNL1       -0.1645
     20 C          -5.9465  -20.1244   20.8300 C.3     1  UNL1        0.0980
     21 C          -5.7355  -21.3650   20.0136 C.3     1  UNL1        0.0196
     22 C          -7.0997  -20.7473   20.1005 C.3     1  UNL1        0.0196
     23 N          -3.1571  -19.6876   21.8443 N.1     1  UNL1       -0.1956
     24 C          -4.5518  -19.9061   21.3371 C.1     1  UNL1        0.0752
     25 C          -5.8935  -16.1122   24.1314 C.3     1  UNL1        0.0581
     26 C          -6.6698  -15.2403   25.0733 C.3     1  UNL1        0.1440
     27 O          -7.4637  -14.0835   24.5427 O.3     1  UNL1       -0.3816
     28 H          -7.3678  -14.0408   23.5784 H       1  UNL1        0.2105
     29 C          -6.6522  -15.5252   26.5459 C.3     1  UNL1        0.1666
     30 O          -6.7559  -14.3973   27.5293 O.3     1  UNL1       -0.3795
     31 H          -5.9670  -13.8369   27.4630 H       1  UNL1        0.2105
@<TRIPOS>BOND
     1    23    24    3
     2    24    20    1
     3    20     1    1
     4     1     2   ar
     5     2     3   ar
     6     3    25    1
     7    25    26    1
     8    26    27    1
     9    26    29    1
    10    29    30    1
    11     3     4   ar
    12     4     5   ar
    13     5     7    1
    14     7     8    2
    15     8     9    1
    16     9    10    2
    17    10    11    1
    18    11    12    2
    19    12    13    1
    20    13    14    2
    21    14    16    1
    22    16    17    1
    23    16    18    1
    24    16    19    1
    25    14    15    1
    26     5     6   ar
    27    20    21    1
    28    21    22    1
    29    22    20    1
    30     6     1   ar
    31    15     7    1
    32    15    11    1
    33    27    28    1
    34    30    31    1
@<TRIPOS>MOLECULE
*****
 31 34 0 0 0
SMALL
GASTEIGER

@<TRIPOS>ATOM
      1 C         -10.5024  -16.2996   21.3716 C.ar    1  UNL1       -0.0100
      2 C         -11.4797  -17.0196   22.2528 C.ar    1  UNL1       -0.0075
      3 C         -11.0139  -17.6476   23.5329 C.ar    1  UNL1       -0.0200
      4 C          -9.5709  -17.5556   23.9319 C.ar    1  UNL1       -0.0045
      5 C          -8.5936  -16.8356   23.0507 C.ar    1  UNL1       -0.0035
      6 C          -9.0593  -16.2076   21.7706 C.ar    1  UNL1       -0.0036
      7 C          -7.1505  -16.7436   23.4497 C.2     1  UNL1       -0.0011
      8 C          -6.6941  -15.6471   24.3659 C.2     1  UNL1        0.0472
      9 C          -5.2511  -15.5551   24.7649 C.2     1  UNL1        0.2354
     10 N          -4.2645  -16.5596   24.2477 N.2     1  UNL1       -0.0320
     11 C          -4.7209  -17.6562   23.3316 C.2     1  UNL1        0.3872
     12 N          -3.9838  -18.7814   22.6678 N.2     1  UNL1        0.0820
     13 N          -4.9712  -19.5688   21.8586 N.2     1  UNL1       -0.0337
     14 C          -6.3186  -18.9302   22.0222 C.2     1  UNL1        0.1921
     15 C          -6.1639  -17.7482   22.9326 C.3     1  UNL1        0.1845
     16 C          -7.5964  -19.3926   21.3870 C.3     1  UNL1        0.4355
     17 F          -8.8743  -19.8549   20.7519 F       1  UNL1       -0.1645
     18 F          -7.9661  -20.1088   22.6521 F       1  UNL1       -0.1645
     19 F          -7.5519  -18.8678   20.1440 F       1  UNL1       -0.1645
     20 C         -10.9680  -15.6715   20.0915 C.3     1  UNL1        0.0980
     21 C         -11.8014  -15.4075   18.8726 C.3     1  UNL1        0.0196
     22 C         -12.1884  -16.5015   19.8231 C.3     1  UNL1        0.0196
     23 N          -8.8508  -13.5755   19.7392 N.1     1  UNL1       -0.1956
     24 C          -9.9095  -14.6235   19.9153 C.1     1  UNL1        0.0752
     25 C         -11.9913  -18.3676   24.4141 C.3     1  UNL1        0.0581
     26 C         -13.4591  -18.3097   24.1101 C.3     1  UNL1        0.1440
     27 O         -13.9349  -18.3947   22.6902 O.3     1  UNL1       -0.3816
     28 H         -13.1716  -18.4838   22.0982 H       1  UNL1        0.2105
     29 C         -14.4510  -18.1667   25.2262 C.3     1  UNL1        0.1666
     30 O         -14.2602  -18.9324   26.5018 O.3     1  UNL1       -0.3795
     31 H         -14.3501  -19.8820   26.3255 H       1  UNL1        0.2105
@<TRIPOS>BOND
     1    23    24    3
     2    24    20    1
     3    20     1    1
     4     1     2   ar
     5     2     3   ar
     6     3    25    1
     7    25    26    1
     8    26    27    1
     9    26    29    1
    10    29    30    1
    11     3     4   ar
    12     4     5   ar
    13     5     7    1
    14     7     8    2
    15     8     9    1
    16     9    10    2
    17    10    11    1
    18    11    12    2
    19    12    13    1
    20    13    14    2
    21    14    16    1
    22    16    17    1
    23    16    18    1
    24    16    19    1
    25    14    15    1
    26     5     6   ar
    27    20    21    1
    28    21    22    1
    29    22    20    1
    30     6     1   ar
    31    15     7    1
    32    15    11    1
    33    27    28    1
    34    30    31    1
@<TRIPOS>MOLECULE
*****
 31 34 0 0 0
SMALL
GASTEIGER

@<TRIPOS>ATOM
      1 C           3.9985   -2.9241   20.2583 C.ar    1  UNL1       -0.0100
      2 C           4.4076   -3.0119   21.6987 C.ar    1  UNL1       -0.0075
      3 C           3.9738   -1.9520   22.6676 C.ar    1  UNL1       -0.0200
      4 C           3.1308   -0.8045   22.1960 C.ar    1  UNL1       -0.0045
      5 C           2.7216   -0.7167   20.7555 C.ar    1  UNL1       -0.0035
      6 C           3.1554   -1.7764   19.7867 C.ar    1  UNL1       -0.0036
      7 C           1.8786    0.4309   20.2840 C.2     1  UNL1       -0.0011
      8 C           0.4080    0.4521   20.5788 C.2     1  UNL1        0.0472
      9 C          -0.4351    1.5996   20.1073 C.2     1  UNL1        0.2354
     10 N           0.1925    2.7260   19.3409 N.2     1  UNL1       -0.0320
     11 C           1.6631    2.7048   19.0460 C.2     1  UNL1        0.3872
     12 N           2.5546    3.6664   18.3175 N.2     1  UNL1        0.0820
     13 N           3.9486    3.1130   18.3388 N.2     1  UNL1       -0.0337
     14 C           3.9186    1.8096   19.0805 C.2     1  UNL1        0.1921
     15 C           2.5061    1.5573   19.5175 C.3     1  UNL1        0.1845
     16 C           5.0947    0.9153   19.3396 C.3     1  UNL1        0.4355
     17 F           6.2709    0.0210   19.5987 F       1  UNL1       -0.1645
     18 F           4.9985    0.3833   17.9404 F       1  UNL1       -0.1645
     19 F           5.4349    1.1852   20.6178 F       1  UNL1       -0.1645
     20 C           4.4323   -3.9838   19.2895 C.3     1  UNL1        0.0980
     21 C           4.5270   -5.3162   18.6070 C.3     1  UNL1        0.0196
     22 C           3.6063   -5.1369   19.7776 C.3     1  UNL1        0.0196
     23 N           6.3858   -2.4139   17.6403 N.1     1  UNL1       -0.1956
     24 C           5.4090   -3.1989   18.4649 C.1     1  UNL1        0.0752
     25 C           4.3829   -2.0398   24.1080 C.3     1  UNL1        0.0581
     26 C           4.4042   -0.8042   24.9583 C.3     1  UNL1        0.1440
     27 O           5.2922    0.3463   24.5873 O.3     1  UNL1       -0.3816
     28 H           5.7812    0.1295   23.7782 H       1  UNL1        0.2105
     29 C           3.5374   -0.7192   26.1796 C.3     1  UNL1        0.1666
     30 O           3.3331   -1.9308   27.0400 O.3     1  UNL1       -0.3795
     31 H           2.8442   -2.6034   26.5405 H       1  UNL1        0.2105
@<TRIPOS>BOND
     1    23    24    3
     2    24    20    1
     3    20     1    1
     4     1     2   ar
     5     2     3   ar
     6     3    25    1
     7    25    26    1
     8    26    27    1
     9    26    29    1
    10    29    30    1
    11     3     4   ar
    12     4     5   ar
    13     5     7    1
    14     7     8    2
    15     8     9    1
    16     9    10    2
    17    10    11    1
    18    11    12    2
    19    12    13    1
    20    13    14    2
    21    14    16    1
    22    16    17    1
    23    16    18    1
    24    16    19    1
    25    14    15    1
    26     5     6   ar
    27    20    21    1
    28    21    22    1
    29    22    20    1
    30     6     1   ar
    31    15     7    1
    32    15    11    1
    33    27    28    1
    34    30    31    1
@<TRIPOS>MOLECULE
*****
 31 34 0 0 0
SMALL
GASTEIGER

@<TRIPOS>ATOM
      1 C         -10.0788  -17.2694   21.1599 C.ar    1  UNL1       -0.0100
      2 C          -9.4248  -18.4005   20.4232 C.ar    1  UNL1       -0.0075
      3 C          -8.0421  -18.8422   20.8019 C.ar    1  UNL1       -0.0200
      4 C          -7.3137  -18.1528   21.9172 C.ar    1  UNL1       -0.0045
      5 C          -7.9677  -17.0217   22.6539 C.ar    1  UNL1       -0.0035
      6 C          -9.3503  -16.5800   22.2753 C.ar    1  UNL1       -0.0036
      7 C          -7.2392  -16.3323   23.7693 C.2     1  UNL1       -0.0011
      8 C          -6.0316  -15.4940   23.4710 C.2     1  UNL1        0.0472
      9 C          -5.3031  -14.8046   24.5863 C.2     1  UNL1        0.2354
     10 N          -5.7821  -14.9535   25.9999 N.2     1  UNL1       -0.0320
     11 C          -6.9897  -15.7919   26.2982 C.2     1  UNL1        0.3872
     12 N          -7.6906  -16.1209   27.5829 N.2     1  UNL1        0.0820
     13 N          -8.8524  -17.0136   27.2616 N.2     1  UNL1       -0.0337
     14 C          -8.8694  -17.2363   25.7783 C.2     1  UNL1        0.1921
     15 C          -7.7182  -16.4812   25.1829 C.3     1  UNL1        0.1845
     16 C          -9.8632  -18.0681   25.0230 C.3     1  UNL1        0.4355
     17 F         -10.8571  -18.8999   24.2676 F       1  UNL1       -0.1645
     18 F         -10.5584  -16.8207   24.5640 F       1  UNL1       -0.1645
     19 F          -9.4726  -19.3386   25.2593 F       1  UNL1       -0.1645
     20 C         -11.4614  -16.8276   20.7813 C.3     1  UNL1        0.0980
     21 C         -12.9585  -16.7356   20.7714 C.3     1  UNL1        0.0196
     22 C         -12.2714  -17.6811   21.7116 C.3     1  UNL1        0.0196
     23 N         -10.8017  -14.8138   18.6577 N.1     1  UNL1       -0.1956
     24 C         -11.1315  -15.8208   19.7195 C.1     1  UNL1        0.0752
     25 C          -7.3881  -19.9734   20.0652 C.3     1  UNL1        0.0581
     26 C          -6.0176  -20.4351   20.4637 C.3     1  UNL1        0.1440
     27 O          -5.8605  -21.5452   21.4601 O.3     1  UNL1       -0.3816
     28 H          -6.7360  -21.8503   21.7450 H       1  UNL1        0.2105
     29 C          -4.8044  -19.7865   19.8659 C.3     1  UNL1        0.1666
     30 O          -4.8746  -18.3697   19.3785 O.3     1  UNL1       -0.3795
     31 H          -5.4767  -18.3182   18.6198 H       1  UNL1        0.2105
@<TRIPOS>BOND
     1    23    24    3
     2    24    20    1
     3    20     1    1
     4     1     2   ar
     5     2     3   ar
     6     3    25    1
     7    25    26    1
     8    26    27    1
     9    26    29    1
    10    29    30    1
    11     3     4   ar
    12     4     5   ar
    13     5     7    1
    14     7     8    2
    15     8     9    1
    16     9    10    2
    17    10    11    1
    18    11    12    2
    19    12    13    1
    20    13    14    2
    21    14    16    1
    22    16    17    1
    23    16    18    1
    24    16    19    1
    25    14    15    1
    26     5     6   ar
    27    20    21    1
    28    21    22    1
    29    22    20    1
    30     6     1   ar
    31    15     7    1
    32    15    11    1
    33    27    28    1
    34    30    31    1
@<TRIPOS>MOLECULE
*****
 31 34 0 0 0
SMALL
GASTEIGER

@<TRIPOS>ATOM
      1 C          -7.4615  -16.2539   24.6893 C.ar    1  UNL1       -0.0100
      2 C          -6.3006  -17.0311   24.1430 C.ar    1  UNL1       -0.0075
      3 C          -6.3872  -17.6494   22.7791 C.ar    1  UNL1       -0.0200
      4 C          -7.6347  -17.4905   21.9615 C.ar    1  UNL1       -0.0045
      5 C          -8.7956  -16.7134   22.5077 C.ar    1  UNL1       -0.0035
      6 C          -8.7090  -16.0951   23.8716 C.ar    1  UNL1       -0.0036
      7 C         -10.0431  -16.5545   21.6901 C.2     1  UNL1       -0.0011
      8 C         -10.0494  -15.6393   20.5016 C.2     1  UNL1        0.0472
      9 C         -11.2968  -15.4804   19.6839 C.2     1  UNL1        0.2354
     10 N         -12.5380  -16.2368   20.0547 N.2     1  UNL1       -0.0320
     11 C         -12.5317  -17.1520   21.2431 C.2     1  UNL1        0.3872
     12 N         -13.5953  -18.0207   21.8466 N.2     1  UNL1        0.0820
     13 N         -13.0052  -18.7165   23.0372 N.2     1  UNL1       -0.0337
     14 C         -11.5769  -18.2777   23.1696 C.2     1  UNL1        0.1921
     15 C         -11.2842  -17.3108   22.0608 C.3     1  UNL1        0.1845
     16 C         -10.6108  -18.7270   24.2254 C.3     1  UNL1        0.4355
     17 F          -9.6446  -19.1764   25.2813 F       1  UNL1       -0.1645
     18 F          -9.9590  -19.6481   23.2371 F       1  UNL1       -0.1645
     19 F         -10.9695  -18.0206   25.3184 F       1  UNL1       -0.1645
     20 C          -7.3749  -15.6356   26.0532 C.3     1  UNL1        0.0980
     21 C          -7.7605  -15.2354   27.4464 C.3     1  UNL1        0.0196
     22 C          -8.7045  -16.0487   26.6113 C.3     1  UNL1        0.0196
     23 N          -4.6555  -14.3800   25.8842 N.1     1  UNL1       -0.1956
     24 C          -6.0153  -15.0078   25.9687 C.1     1  UNL1        0.0752
     25 C          -5.2264  -18.4265   22.2328 C.3     1  UNL1        0.0581
     26 C          -3.8381  -18.1486   22.7283 C.3     1  UNL1        0.1440
     27 O          -3.5270  -18.2626   24.1912 O.3     1  UNL1       -0.3816
     28 H          -4.3277  -18.5230   24.6727 H       1  UNL1        0.2105
     29 C          -2.7609  -17.7566   21.7608 C.3     1  UNL1        0.1666
     30 O          -1.8584  -16.5996   22.0715 O.3     1  UNL1       -0.3795
     31 H          -2.3757  -15.7791   22.0796 H       1  UNL1        0.2105
@<TRIPOS>BOND
     1    23    24    3
     2    24    20    1
     3    20     1    1
     4     1     2   ar
     5     2     3   ar
     6     3    25    1
     7    25    26    1
     8    26    27    1
     9    26    29    1
    10    29    30    1
    11     3     4   ar
    12     4     5   ar
    13     5     7    1
    14     7     8    2
    15     8     9    1
    16     9    10    2
    17    10    11    1
    18    11    12    2
    19    12    13    1
    20    13    14    2
    21    14    16    1
    22    16    17    1
    23    16    18    1
    24    16    19    1
    25    14    15    1
    26     5     6   ar
    27    20    21    1
    28    21    22    1
    29    22    20    1
    30     6     1   ar
    31    15     7    1
    32    15    11    1
    33    27    28    1
    34    30    31    1
@<TRIPOS>MOLECULE
*****
 31 34 0 0 0
SMALL
GASTEIGER

@<TRIPOS>ATOM
      1 C           4.2124   -2.0575   19.8892 C.ar    1  UNL1       -0.0100
      2 C           3.8703   -2.1526   21.3465 C.ar    1  UNL1       -0.0075
      3 C           3.5149   -0.9148   22.1158 C.ar    1  UNL1       -0.0200
      4 C           3.5016    0.4180   21.4276 C.ar    1  UNL1       -0.0045
      5 C           3.8438    0.5130   19.9703 C.ar    1  UNL1       -0.0035
      6 C           4.1992   -0.7247   19.2010 C.ar    1  UNL1       -0.0036
      7 C           3.8305    1.8459   19.2822 C.2     1  UNL1       -0.0011
      8 C           5.1218    2.5467   18.9799 C.2     1  UNL1        0.0472
      9 C           5.1086    3.8795   18.2918 C.2     1  UNL1        0.2354
     10 N           3.8041    4.5114   17.9060 N.2     1  UNL1       -0.0320
     11 C           2.5128    3.8106   18.2083 C.2     1  UNL1        0.3872
     12 N           1.0833    4.1847   17.9498 N.2     1  UNL1        0.0820
     13 N           0.2131    3.0831   18.4782 N.2     1  UNL1       -0.0337
     14 C           1.1047    2.0282   19.0632 C.2     1  UNL1        0.1921
     15 C           2.5260    2.4778   18.8964 C.3     1  UNL1        0.1845
     16 C           0.6542    0.7483   19.7027 C.3     1  UNL1        0.4355
     17 F           0.2037   -0.5316   20.3422 F       1  UNL1       -0.1645
     18 F           0.9830    0.0032   18.4431 F       1  UNL1       -0.1645
     19 F           0.2690    1.1203   20.9419 F       1  UNL1       -0.1645
     20 C           4.5678   -3.2952   19.1199 C.3     1  UNL1        0.0980
     21 C           4.5258   -4.7139   18.6346 C.3     1  UNL1        0.0196
     22 C           3.5467   -4.2462   19.6705 C.3     1  UNL1        0.0196
     23 N           6.8568   -2.2530   17.4845 N.1     1  UNL1       -0.1956
     24 C           5.7123   -2.7741   18.3023 C.1     1  UNL1        0.0752
     25 C           3.1727   -1.0099   23.5731 C.3     1  UNL1        0.0581
     26 C           4.1584   -1.5995   24.5380 C.3     1  UNL1        0.1440
     27 O           5.1620   -2.6078   24.0626 O.3     1  UNL1       -0.3816
     28 H           5.0378   -2.7649   23.1135 H       1  UNL1        0.2105
     29 C           4.1403   -1.1809   25.9783 C.3     1  UNL1        0.1666
     30 O           3.3862   -1.9959   26.9868 O.3     1  UNL1       -0.3795
     31 H           2.4367   -1.9521   26.7931 H       1  UNL1        0.2105
@<TRIPOS>BOND
     1    23    24    3
     2    24    20    1
     3    20     1    1
     4     1     2   ar
     5     2     3   ar
     6     3    25    1
     7    25    26    1
     8    26    27    1
     9    26    29    1
    10    29    30    1
    11     3     4   ar
    12     4     5   ar
    13     5     7    1
    14     7     8    2
    15     8     9    1
    16     9    10    2
    17    10    11    1
    18    11    12    2
    19    12    13    1
    20    13    14    2
    21    14    16    1
    22    16    17    1
    23    16    18    1
    24    16    19    1
    25    14    15    1
    26     5     6   ar
    27    20    21    1
    28    21    22    1
    29    22    20    1
    30     6     1   ar
    31    15     7    1
    32    15    11    1
    33    27    28    1
    34    30    31    1
@<TRIPOS>MOLECULE
*****
 31 34 0 0 0
SMALL
GASTEIGER

@<TRIPOS>ATOM
      1 C          -8.3553  -19.1977   20.2936 C.ar    1  UNL1       -0.0100
      2 C          -7.1070  -19.9365   19.9115 C.ar    1  UNL1       -0.0075
      3 C          -5.8486  -19.7432   20.7047 C.ar    1  UNL1       -0.0200
      4 C          -5.8385  -18.8111   21.8799 C.ar    1  UNL1       -0.0045
      5 C          -7.0868  -18.0723   22.2620 C.ar    1  UNL1       -0.0035
      6 C          -8.3451  -18.2656   21.4689 C.ar    1  UNL1       -0.0036
      7 C          -7.0766  -17.1402   23.4372 C.2     1  UNL1       -0.0011
      8 C          -6.0728  -16.0276   23.5033 C.2     1  UNL1        0.0472
      9 C          -6.0626  -15.0955   24.6785 C.2     1  UNL1        0.2354
     10 N          -7.0562  -15.2761   25.7876 N.2     1  UNL1       -0.0320
     11 C          -8.0600  -16.3887   25.7215 C.2     1  UNL1        0.3872
     12 N          -9.1537  -16.8107   26.6574 N.2     1  UNL1        0.0820
     13 N          -9.8398  -18.0037   26.0606 N.2     1  UNL1       -0.0337
     14 C          -9.1702  -18.3189   24.7558 C.2     1  UNL1        0.1921
     15 C          -8.0702  -17.3208   24.5463 C.3     1  UNL1        0.1845
     16 C          -9.5362  -19.4361   23.8242 C.3     1  UNL1        0.4355
     17 F          -9.9023  -20.5533   22.8926 F       1  UNL1       -0.1645
     18 F         -10.7661  -18.6854   23.4073 F       1  UNL1       -0.1645
     19 F          -8.5419  -20.3349   23.9854 F       1  UNL1       -0.1645
     20 C          -9.6137  -19.3910   19.5005 C.3     1  UNL1        0.0980
     21 C         -11.0254  -19.2042   19.0290 C.3     1  UNL1        0.0196
     22 C         -10.4921  -18.3639   20.1513 C.3     1  UNL1        0.0196
     23 N          -8.7311  -21.5794   17.6479 N.1     1  UNL1       -0.1956
     24 C          -9.1724  -20.4851   18.5743 C.1     1  UNL1        0.0752
     25 C          -4.6003  -20.4820   20.3226 C.3     1  UNL1        0.0581
     26 C          -3.2669  -19.8016   20.4191 C.3     1  UNL1        0.1440
     27 O          -2.1993  -20.3666   21.3085 O.3     1  UNL1       -0.3816
     28 H          -2.5320  -21.1662   21.7453 H       1  UNL1        0.2105
     29 C          -3.0011  -18.5564   19.6262 C.3     1  UNL1        0.1666
     30 O          -1.8418  -18.5055   18.6758 O.3     1  UNL1       -0.3795
     31 H          -1.0119  -18.5603   19.1749 H       1  UNL1        0.2105
@<TRIPOS>BOND
     1    23    24    3
     2    24    20    1
     3    20     1    1
     4     1     2   ar
     5     2     3   ar
     6     3    25    1
     7    25    26    1
     8    26    27    1
     9    26    29    1
    10    29    30    1
    11     3     4   ar
    12     4     5   ar
    13     5     7    1
    14     7     8    2
    15     8     9    1
    16     9    10    2
    17    10    11    1
    18    11    12    2
    19    12    13    1
    20    13    14    2
    21    14    16    1
    22    16    17    1
    23    16    18    1
    24    16    19    1
    25    14    15    1
    26     5     6   ar
    27    20    21    1
    28    21    22    1
    29    22    20    1
    30     6     1   ar
    31    15     7    1
    32    15    11    1
    33    27    28    1
    34    30    31    1
@<TRIPOS>MOLECULE
*****
 31 34 0 0 0
SMALL
GASTEIGER

@<TRIPOS>ATOM
      1 C          -8.5633  -16.9478   24.0878 C.ar    1  UNL1       -0.0100
      2 C          -9.9186  -17.3579   24.5827 C.ar    1  UNL1       -0.0075
      3 C         -10.5854  -18.5776   24.0189 C.ar    1  UNL1       -0.0200
      4 C          -9.8969  -19.3871   22.9604 C.ar    1  UNL1       -0.0045
      5 C          -8.5416  -18.9770   22.4655 C.ar    1  UNL1       -0.0035
      6 C          -7.8747  -17.7574   23.0292 C.ar    1  UNL1       -0.0036
      7 C          -7.8530  -19.7866   21.4069 C.2     1  UNL1       -0.0011
      8 C          -6.4960  -20.3684   21.6718 C.2     1  UNL1        0.0472
      9 C          -5.8075  -21.1779   20.6133 C.2     1  UNL1        0.2354
     10 N          -6.4760  -21.4057   19.2899 N.2     1  UNL1       -0.0320
     11 C          -7.8329  -20.8240   19.0251 C.2     1  UNL1        0.3872
     12 N          -8.7323  -20.8798   17.8259 N.2     1  UNL1        0.0820
     13 N          -9.9767  -20.1048   18.1433 N.2     1  UNL1       -0.0337
     14 C          -9.8464  -19.5699   19.5387 C.2     1  UNL1        0.1921
     15 C          -8.5215  -20.0144   20.0836 C.3     1  UNL1        0.1845
     16 C         -10.8626  -18.7368   20.2620 C.3     1  UNL1        0.4355
     17 F         -11.8788  -17.9037   20.9855 F       1  UNL1       -0.1645
     18 F         -11.6149  -19.9794   20.6362 F       1  UNL1       -0.1645
     19 F         -10.4269  -17.4703   20.0929 F       1  UNL1       -0.1645
     20 C          -7.8965  -15.7281   24.6515 C.3     1  UNL1        0.0980
     21 C          -7.1420  -14.4329   24.7073 C.3     1  UNL1        0.0196
     22 C          -7.4126  -15.0868   23.3847 C.3     1  UNL1        0.0196
     23 N          -8.4009  -16.1634   27.5766 N.1     1  UNL1       -0.1956
     24 C          -8.1487  -15.9458   26.1140 C.1     1  UNL1        0.0752
     25 C         -11.9408  -18.9877   24.5137 C.3     1  UNL1        0.0581
     26 C         -13.1420  -18.1487   24.1923 C.3     1  UNL1        0.1440
     27 O         -13.0287  -17.0226   23.2080 O.3     1  UNL1       -0.3816
     28 H         -12.1187  -16.9740   22.8757 H       1  UNL1        0.2105
     29 C         -14.4566  -18.4360   24.8552 C.3     1  UNL1        0.1666
     30 O         -14.5092  -18.7109   26.3288 O.3     1  UNL1       -0.3795
     31 H         -14.0463  -19.5417   26.5195 H       1  UNL1        0.2105
@<TRIPOS>BOND
     1    23    24    3
     2    24    20    1
     3    20     1    1
     4     1     2   ar
     5     2     3   ar
     6     3    25    1
     7    25    26    1
     8    26    27    1
     9    26    29    1
    10    29    30    1
    11     3     4   ar
    12     4     5   ar
    13     5     7    1
    14     7     8    2
    15     8     9    1
    16     9    10    2
    17    10    11    1
    18    11    12    2
    19    12    13    1
    20    13    14    2
    21    14    16    1
    22    16    17    1
    23    16    18    1
    24    16    19    1
    25    14    15    1
    26     5     6   ar
    27    20    21    1
    28    21    22    1
    29    22    20    1
    30     6     1   ar
    31    15     7    1
    32    15    11    1
    33    27    28    1
    34    30    31    1
