@<TRIPOS>MOLECULE
*****
 21 23 0 0 0
SMALL
GASTEIGER

@<TRIPOS>ATOM
      1 C          -8.8000  -16.3620   23.4646 C.3     1  UNL1        0.0904
      2 C          -7.4913  -15.9089   22.8886 C.3     1  UNL1        0.0298
      3 C          -6.5036  -15.1811   23.7519 C.3     1  UNL1        0.0694
      4 N          -6.8249  -14.9067   25.1911 N.3     1  UNL1       -0.2974
      5 C          -8.1337  -15.3598   25.7671 C.3     1  UNL1        0.0694
      6 C          -9.1212  -16.0875   24.9039 C.3     1  UNL1        0.0298
      7 H          -6.7836  -13.8950   25.3143 H       1  UNL1        0.1232
      8 O          -9.8221  -16.1048   21.0899 O.2     1  UNL1       -0.2745
      9 C          -8.9515  -16.8532   22.0554 C.2     1  UNL1        0.2287
     10 N          -8.2326  -18.0926   21.6117 N.am    1  UNL1       -0.2741
     11 C          -8.3842  -18.5837   20.2025 C.3     1  UNL1        0.1255
     12 C          -7.6652  -19.8232   19.7588 C.3     1  UNL1        0.1636
     13 O          -6.7947  -20.5715   20.7243 O.3     1  UNL1       -0.3501
     14 C          -6.6431  -20.0804   22.1335 C.3     1  UNL1        0.1636
     15 C          -7.3621  -18.8409   22.5772 C.3     1  UNL1        0.1255
     16 C         -10.1614  -16.9858   23.5512 C.ar    1  UNL1       -0.0145
     17 C         -10.3583  -18.2511   24.3322 C.ar    1  UNL1       -0.0038
     18 C         -11.7198  -18.8749   24.4188 C.ar    1  UNL1       -0.0003
     19 C         -12.8842  -18.2332   23.7243 C.ar    1  UNL1       -0.0000
     20 C         -12.6873  -16.9678   22.9433 C.ar    1  UNL1       -0.0003
     21 C         -11.3259  -16.3441   22.8567 C.ar    1  UNL1       -0.0038
@<TRIPOS>BOND
     1     8     9    2
     2     9    10   am
     3    10    11    1
     4    11    12    1
     5    12    13    1
     6    13    14    1
     7    14    15    1
     8     9     1    1
     9     1    16    1
    10    16    17   ar
    11    17    18   ar
    12    18    19   ar
    13    19    20   ar
    14    20    21   ar
    15     1     2    1
    16     2     3    1
    17     3     4    1
    18     4     5    1
    19     5     6    1
    20    15    10    1
    21     6     1    1
    22    21    16   ar
    23     4     7    1
@<TRIPOS>MOLECULE
*****
 21 23 0 0 0
SMALL
GASTEIGER

@<TRIPOS>ATOM
      1 C          -8.9174  -18.9450   21.7686 C.3     1  UNL1        0.0904
      2 C          -7.6967  -19.5228   22.4213 C.3     1  UNL1        0.0298
      3 C          -6.6671  -20.2315   21.5919 C.3     1  UNL1        0.0694
      4 N          -6.8584  -20.3624   20.1099 N.3     1  UNL1       -0.2974
      5 C          -8.0791  -19.7846   19.4573 C.3     1  UNL1        0.0694
      6 C          -9.1086  -19.0759   20.2866 C.3     1  UNL1        0.0298
      7 H          -6.8567  -21.3605   19.8998 H       1  UNL1        0.1232
      8 O          -9.9793  -19.4827   24.0780 O.2     1  UNL1       -0.2745
      9 C          -9.1821  -18.5680   23.1961 C.2     1  UNL1        0.2287
     10 N          -8.6495  -17.2762   23.7417 N.am    1  UNL1       -0.2741
     11 C          -8.9142  -16.8992   25.1693 C.3     1  UNL1        0.1255
     12 C          -8.3817  -15.6074   25.7149 C.3     1  UNL1        0.1636
     13 O          -7.5845  -14.6926   24.8330 O.3     1  UNL1       -0.3501
     14 C          -7.3198  -15.0697   23.4055 C.3     1  UNL1        0.1636
     15 C          -7.8524  -16.3614   22.8599 C.3     1  UNL1        0.1255
     16 C         -10.2301  -18.2363   21.6117 C.ar    1  UNL1       -0.0145
     17 C         -11.4577  -18.7736   22.2856 C.ar    1  UNL1       -0.0038
     18 C         -12.7704  -18.0649   22.1287 C.ar    1  UNL1       -0.0003
     19 C         -12.8554  -16.8188   21.2980 C.ar    1  UNL1       -0.0000
     20 C         -11.6277  -16.2815   20.6241 C.ar    1  UNL1       -0.0003
     21 C         -10.3151  -16.9902   20.7810 C.ar    1  UNL1       -0.0038
@<TRIPOS>BOND
     1     8     9    2
     2     9    10   am
     3    10    11    1
     4    11    12    1
     5    12    13    1
     6    13    14    1
     7    14    15    1
     8     9     1    1
     9     1    16    1
    10    16    17   ar
    11    17    18   ar
    12    18    19   ar
    13    19    20   ar
    14    20    21   ar
    15     1     2    1
    16     2     3    1
    17     3     4    1
    18     4     5    1
    19     5     6    1
    20    15    10    1
    21     6     1    1
    22    21    16   ar
    23     4     7    1
@<TRIPOS>MOLECULE
*****
 21 23 0 0 0
SMALL
GASTEIGER

@<TRIPOS>ATOM
      1 C          -9.9823  -16.8754   22.6440 C.3     1  UNL1        0.0904
      2 C          -9.9401  -16.9180   21.1452 C.3     1  UNL1        0.0298
      3 C         -11.2097  -17.0825   20.3635 C.3     1  UNL1        0.0694
      4 N         -12.5215  -17.2044   21.0806 N.3     1  UNL1       -0.2974
      5 C         -12.5637  -17.1619   22.5794 C.3     1  UNL1        0.0694
      6 C         -11.2941  -16.9974   23.3611 C.3     1  UNL1        0.0298
      7 H         -12.9288  -18.0964   20.7998 H       1  UNL1        0.1232
      8 O          -7.9111  -15.3513   22.2729 O.2     1  UNL1       -0.2745
      9 C          -8.5072  -16.7199   22.4204 C.2     1  UNL1        0.2287
     10 N          -7.6282  -17.9330   22.3443 N.am    1  UNL1       -0.2741
     11 C          -6.1531  -17.7774   22.1207 C.3     1  UNL1        0.1255
     12 C          -5.2741  -18.9905   22.0446 C.3     1  UNL1        0.1636
     13 O          -5.8702  -20.3591   22.1920 O.3     1  UNL1       -0.3501
     14 C          -7.3452  -20.5146   22.4156 C.3     1  UNL1        0.1636
     15 C          -8.2242  -19.3015   22.4917 C.3     1  UNL1        0.1255
     16 C          -9.5122  -16.7789   24.0652 C.ar    1  UNL1       -0.0145
     17 C          -8.8346  -15.5307   24.5478 C.ar    1  UNL1       -0.0038
     18 C          -8.3645  -15.4342   25.9690 C.ar    1  UNL1       -0.0003
     19 C          -8.5720  -16.5858   26.9074 C.ar    1  UNL1       -0.0000
     20 C          -9.2497  -17.8339   26.4248 C.ar    1  UNL1       -0.0003
     21 C          -9.7198  -17.9305   25.0036 C.ar    1  UNL1       -0.0038
@<TRIPOS>BOND
     1     8     9    2
     2     9    10   am
     3    10    11    1
     4    11    12    1
     5    12    13    1
     6    13    14    1
     7    14    15    1
     8     9     1    1
     9     1    16    1
    10    16    17   ar
    11    17    18   ar
    12    18    19   ar
    13    19    20   ar
    14    20    21   ar
    15     1     2    1
    16     2     3    1
    17     3     4    1
    18     4     5    1
    19     5     6    1
    20    15    10    1
    21     6     1    1
    22    21    16   ar
    23     4     7    1
@<TRIPOS>MOLECULE
*****
 21 23 0 0 0
SMALL
GASTEIGER

@<TRIPOS>ATOM
      1 C         -12.0295   -6.3456   18.1338 C.3     1  UNL1        0.0904
      2 C         -11.9352   -7.3835   17.0551 C.3     1  UNL1        0.0298
      3 C         -10.7397   -8.2869   16.9859 C.3     1  UNL1        0.0694
      4 N          -9.6385   -8.1523   17.9955 N.3     1  UNL1       -0.2974
      5 C          -9.7328   -7.1143   19.0743 C.3     1  UNL1        0.0694
      6 C         -10.9283   -6.2110   19.1435 C.3     1  UNL1        0.0298
      7 H          -8.7834   -7.9585   17.4744 H       1  UNL1        0.1232
      8 O         -13.4881   -4.8385   16.6004 O.2     1  UNL1       -0.2745
      9 C         -13.3189   -6.0888   17.4118 C.2     1  UNL1        0.2287
     10 N         -14.4393   -7.0822   17.5011 N.am    1  UNL1       -0.2741
     11 C         -15.7287   -6.8253   16.7790 C.3     1  UNL1        0.1255
     12 C         -16.8491   -7.8187   16.8682 C.3     1  UNL1        0.1636
     13 O         -16.6799   -9.0690   17.6796 O.3     1  UNL1       -0.3501
     14 C         -15.3905   -9.3258   18.4016 C.3     1  UNL1        0.1636
     15 C         -14.2702   -8.3324   18.3123 C.3     1  UNL1        0.1255
     16 C         -12.5716   -5.2184   18.9619 C.ar    1  UNL1       -0.0145
     17 C         -12.0607   -3.8232   18.7557 C.ar    1  UNL1       -0.0038
     18 C         -12.6029   -2.6961   19.5837 C.ar    1  UNL1       -0.0003
     19 C         -13.6558   -2.9641   20.6179 C.ar    1  UNL1       -0.0000
     20 C         -14.1667   -4.3593   20.8240 C.ar    1  UNL1       -0.0003
     21 C         -13.6246   -5.4865   19.9960 C.ar    1  UNL1       -0.0038
@<TRIPOS>BOND
     1     8     9    2
     2     9    10   am
     3    10    11    1
     4    11    12    1
     5    12    13    1
     6    13    14    1
     7    14    15    1
     8     9     1    1
     9     1    16    1
    10    16    17   ar
    11    17    18   ar
    12    18    19   ar
    13    19    20   ar
    14    20    21   ar
    15     1     2    1
    16     2     3    1
    17     3     4    1
    18     4     5    1
    19     5     6    1
    20    15    10    1
    21     6     1    1
    22    21    16   ar
    23     4     7    1
@<TRIPOS>MOLECULE
*****
 21 23 0 0 0
SMALL
GASTEIGER

@<TRIPOS>ATOM
      1 C         -10.2090  -17.7749   22.7665 C.3     1  UNL1        0.0904
      2 C         -10.7782  -18.9025   21.9576 C.3     1  UNL1        0.0298
      3 C         -11.9781  -18.6705   21.0877 C.3     1  UNL1        0.0694
      4 N         -12.6086  -17.3108   21.0270 N.3     1  UNL1       -0.2974
      5 C         -12.0394  -16.1832   21.8360 C.3     1  UNL1        0.0694
      6 C         -10.8396  -16.4153   22.7057 C.3     1  UNL1        0.0298
      7 H         -13.5791  -17.4230   21.3202 H       1  UNL1        0.1232
      8 O          -9.4469  -19.5904   24.4617 O.2     1  UNL1       -0.2745
      9 C          -9.2671  -18.8757   23.1552 C.2     1  UNL1        0.2287
     10 N          -8.1454  -19.2620   22.2373 N.am    1  UNL1       -0.2741
     11 C          -7.2035  -20.3629   22.6259 C.3     1  UNL1        0.1255
     12 C          -6.0817  -20.7491   21.7080 C.3     1  UNL1        0.1636
     13 O          -5.9019  -20.0345   20.4015 O.3     1  UNL1       -0.3501
     14 C          -6.8438  -18.9337   20.0129 C.3     1  UNL1        0.1636
     15 C          -7.9655  -18.5474   20.9308 C.3     1  UNL1        0.1255
     16 C          -9.3126  -17.0296   23.7105 C.ar    1  UNL1       -0.0145
     17 C          -9.4352  -17.2463   25.1897 C.ar    1  UNL1       -0.0038
     18 C          -8.5388  -16.5010   26.1337 C.ar    1  UNL1       -0.0003
     19 C          -7.5199  -15.5391   25.5984 C.ar    1  UNL1       -0.0000
     20 C          -7.3973  -15.3224   24.1192 C.ar    1  UNL1       -0.0003
     21 C          -8.2937  -16.0677   23.1752 C.ar    1  UNL1       -0.0038
@<TRIPOS>BOND
     1     8     9    2
     2     9    10   am
     3    10    11    1
     4    11    12    1
     5    12    13    1
     6    13    14    1
     7    14    15    1
     8     9     1    1
     9     1    16    1
    10    16    17   ar
    11    17    18   ar
    12    18    19   ar
    13    19    20   ar
    14    20    21   ar
    15     1     2    1
    16     2     3    1
    17     3     4    1
    18     4     5    1
    19     5     6    1
    20    15    10    1
    21     6     1    1
    22    21    16   ar
    23     4     7    1
@<TRIPOS>MOLECULE
*****
 21 23 0 0 0
SMALL
GASTEIGER

@<TRIPOS>ATOM
      1 C          -7.4635  -17.7741   22.1103 C.3     1  UNL1        0.0904
      2 C          -8.1561  -18.2705   20.8759 C.3     1  UNL1        0.0298
      3 C          -7.6705  -19.5144   20.1923 C.3     1  UNL1        0.0694
      4 N          -6.4923  -20.2616   20.7432 N.3     1  UNL1       -0.2974
      5 C          -5.7997  -19.7651   21.9775 C.3     1  UNL1        0.0694
      6 C          -6.2852  -18.5214   22.6611 C.3     1  UNL1        0.0298
      7 H          -5.7906  -20.2913   20.0035 H       1  UNL1        0.1232
      8 O          -8.1658  -15.3390   21.5383 O.2     1  UNL1       -0.2745
      9 C          -8.5297  -16.7283   21.9714 C.2     1  UNL1        0.2287
     10 N          -9.9600  -17.0716   22.2657 N.am    1  UNL1       -0.2741
     11 C         -11.0262  -16.0257   22.1268 C.3     1  UNL1        0.1255
     12 C         -12.4564  -16.3691   22.4211 C.3     1  UNL1        0.1636
     13 O         -12.8204  -17.7584   22.8542 O.3     1  UNL1       -0.3501
     14 C         -11.7541  -18.8042   22.9931 C.3     1  UNL1        0.1636
     15 C         -10.3239  -18.4608   22.6988 C.3     1  UNL1        0.1255
     16 C          -7.1411  -16.9144   23.2965 C.ar    1  UNL1       -0.0145
     17 C          -5.7670  -16.3328   23.4499 C.ar    1  UNL1       -0.0038
     18 C          -5.4447  -15.4730   24.6361 C.ar    1  UNL1       -0.0003
     19 C          -6.4964  -15.1950   25.6688 C.ar    1  UNL1       -0.0000
     20 C          -7.8705  -15.7766   25.5154 C.ar    1  UNL1       -0.0003
     21 C          -8.1929  -16.6363   24.3292 C.ar    1  UNL1       -0.0038
@<TRIPOS>BOND
     1     8     9    2
     2     9    10   am
     3    10    11    1
     4    11    12    1
     5    12    13    1
     6    13    14    1
     7    14    15    1
     8     9     1    1
     9     1    16    1
    10    16    17   ar
    11    17    18   ar
    12    18    19   ar
    13    19    20   ar
    14    20    21   ar
    15     1     2    1
    16     2     3    1
    17     3     4    1
    18     4     5    1
    19     5     6    1
    20    15    10    1
    21     6     1    1
    22    21    16   ar
    23     4     7    1
@<TRIPOS>MOLECULE
*****
 21 23 0 0 0
SMALL
GASTEIGER

@<TRIPOS>ATOM
      1 C          -8.9519  -18.8498   23.1089 C.3     1  UNL1        0.0904
      2 C          -9.9569  -18.1161   23.9466 C.3     1  UNL1        0.0298
      3 C         -10.6736  -18.8296   25.0546 C.3     1  UNL1        0.0694
      4 N         -10.3852  -20.2766   25.3247 N.3     1  UNL1       -0.2974
      5 C          -9.3803  -21.0102   24.4870 C.3     1  UNL1        0.0694
      6 C          -8.6636  -20.2968   23.3791 C.3     1  UNL1        0.0298
      7 H         -11.2694  -20.7759   25.2285 H       1  UNL1        0.1232
      8 O          -7.6997  -16.6066   22.7212 O.2     1  UNL1       -0.2745
      9 C          -8.8829  -17.4940   22.4709 C.2     1  UNL1        0.2287
     10 N          -9.9971  -17.0256   21.5824 N.am    1  UNL1       -0.2741
     11 C          -9.9280  -15.6698   20.9444 C.3     1  UNL1        0.1255
     12 C         -11.0421  -15.2014   20.0559 C.3     1  UNL1        0.1636
     13 O         -12.2253  -16.0889   19.8056 O.3     1  UNL1       -0.3501
     14 C         -12.2943  -17.4446   20.4436 C.3     1  UNL1        0.1636
     15 C         -11.1802  -17.9130   21.3321 C.3     1  UNL1        0.1255
     16 C          -7.9229  -19.1126   22.0496 C.ar    1  UNL1       -0.0145
     17 C          -6.4644  -19.0902   22.3989 C.ar    1  UNL1       -0.0038
     18 C          -5.4354  -19.3530   21.3396 C.ar    1  UNL1       -0.0003
     19 C          -5.8650  -19.6381   19.9310 C.ar    1  UNL1       -0.0000
     20 C          -7.3236  -19.6604   19.5817 C.ar    1  UNL1       -0.0003
     21 C          -8.3526  -19.3976   20.6410 C.ar    1  UNL1       -0.0038
@<TRIPOS>BOND
     1     8     9    2
     2     9    10   am
     3    10    11    1
     4    11    12    1
     5    12    13    1
     6    13    14    1
     7    14    15    1
     8     9     1    1
     9     1    16    1
    10    16    17   ar
    11    17    18   ar
    12    18    19   ar
    13    19    20   ar
    14    20    21   ar
    15     1     2    1
    16     2     3    1
    17     3     4    1
    18     4     5    1
    19     5     6    1
    20    15    10    1
    21     6     1    1
    22    21    16   ar
    23     4     7    1
@<TRIPOS>MOLECULE
*****
 21 23 0 0 0
SMALL
GASTEIGER

@<TRIPOS>ATOM
      1 C          -9.0123  -18.5646   20.6750 C.3     1  UNL1        0.0904
      2 C          -7.5938  -18.9039   21.0251 C.3     1  UNL1        0.0298
      3 C          -6.8769  -19.9909   20.2802 C.3     1  UNL1        0.0694
      4 N          -7.5787  -20.7384   19.1854 N.3     1  UNL1       -0.2974
      5 C          -8.9972  -20.3990   18.8354 C.3     1  UNL1        0.0694
      6 C          -9.7141  -19.3121   19.5802 C.3     1  UNL1        0.0298
      7 H          -7.5679  -21.7239   19.4480 H       1  UNL1        0.1232
      8 O          -8.2360  -16.2158   21.4692 O.2     1  UNL1       -0.2745
      9 C          -8.7746  -17.5805   21.7818 C.2     1  UNL1        0.2287
     10 N          -9.0754  -17.9609   23.2012 N.am    1  UNL1       -0.2741
     11 C          -8.8376  -16.9768   24.3080 C.3     1  UNL1        0.1255
     12 C          -9.1384  -17.3573   25.7274 C.3     1  UNL1        0.1636
     13 O          -9.6770  -18.7219   26.0401 O.3     1  UNL1       -0.3501
     14 C          -9.9147  -19.7060   24.9333 C.3     1  UNL1        0.1636
     15 C          -9.6139  -19.3255   23.5139 C.3     1  UNL1        0.1255
     16 C         -10.3484  -17.8834   20.7094 C.ar    1  UNL1       -0.0145
     17 C         -11.4799  -18.4905   21.4846 C.ar    1  UNL1       -0.0038
     18 C         -12.8160  -17.8094   21.5189 C.ar    1  UNL1       -0.0003
     19 C         -13.0203  -16.5212   20.7780 C.ar    1  UNL1       -0.0000
     20 C         -11.8887  -15.9141   20.0028 C.ar    1  UNL1       -0.0003
     21 C         -10.5527  -16.5953   19.9685 C.ar    1  UNL1       -0.0038
@<TRIPOS>BOND
     1     8     9    2
     2     9    10   am
     3    10    11    1
     4    11    12    1
     5    12    13    1
     6    13    14    1
     7    14    15    1
     8     9     1    1
     9     1    16    1
    10    16    17   ar
    11    17    18   ar
    12    18    19   ar
    13    19    20   ar
    14    20    21   ar
    15     1     2    1
    16     2     3    1
    17     3     4    1
    18     4     5    1
    19     5     6    1
    20    15    10    1
    21     6     1    1
    22    21    16   ar
    23     4     7    1
@<TRIPOS>MOLECULE
*****
 21 23 0 0 0
SMALL
GASTEIGER

@<TRIPOS>ATOM
      1 C         -14.5880   -6.6534   18.3177 C.3     1  UNL1        0.0904
      2 C         -14.2177   -7.7502   17.3639 C.3     1  UNL1        0.0298
      3 C         -14.7346   -9.1412   17.5833 C.3     1  UNL1        0.0694
      4 N         -15.6217   -9.4352   18.7566 N.3     1  UNL1       -0.2974
      5 C         -15.9920   -8.3384   19.7104 C.3     1  UNL1        0.0694
      6 C         -15.4752   -6.9475   19.4910 C.3     1  UNL1        0.0298
      7 H         -15.1547  -10.1573   19.3052 H       1  UNL1        0.1232
      8 O         -14.3492   -5.1601   16.2051 O.2     1  UNL1       -0.2745
      9 C         -13.7255   -5.8858   17.3603 C.2     1  UNL1        0.2287
     10 N         -12.2391   -5.8439   17.5579 N.am    1  UNL1       -0.2741
     11 C         -11.3765   -5.0762   16.6004 C.3     1  UNL1        0.1255
     12 C          -9.8902   -5.0343   16.7980 C.3     1  UNL1        0.1636
     13 O          -9.2665   -5.7601   17.9532 O.3     1  UNL1       -0.3501
     14 C         -10.1290   -6.5276   18.9106 C.3     1  UNL1        0.1636
     15 C         -11.6154   -6.5695   18.7130 C.3     1  UNL1        0.1255
     16 C         -14.6587   -5.2899   18.9391 C.ar    1  UNL1       -0.0145
     17 C         -13.9321   -5.0115   20.2214 C.ar    1  UNL1       -0.0038
     18 C         -14.0028   -3.6481   20.8428 C.ar    1  UNL1       -0.0003
     19 C         -14.8002   -2.5631   20.1817 C.ar    1  UNL1       -0.0000
     20 C         -15.5269   -2.8415   18.8993 C.ar    1  UNL1       -0.0003
     21 C         -15.4561   -4.2049   18.2780 C.ar    1  UNL1       -0.0038
@<TRIPOS>BOND
     1     8     9    2
     2     9    10   am
     3    10    11    1
     4    11    12    1
     5    12    13    1
     6    13    14    1
     7    14    15    1
     8     9     1    1
     9     1    16    1
    10    16    17   ar
    11    17    18   ar
    12    18    19   ar
    13    19    20   ar
    14    20    21   ar
    15     1     2    1
    16     2     3    1
    17     3     4    1
    18     4     5    1
    19     5     6    1
    20    15    10    1
    21     6     1    1
    22    21    16   ar
    23     4     7    1
