@<TRIPOS>MOLECULE
*****
 40 45 0 0 0
SMALL
GASTEIGER

@<TRIPOS>ATOM
      1 C           1.6469    1.2944   28.6186 C.2     1  UNL1        0.2252
      2 O           0.4689    2.1222   29.0391 O.2     1  UNL1       -0.2749
      3 N           1.8372    0.9405   27.1734 N.am    1  UNL1       -0.2794
      4 C           0.8495    1.4146   26.1488 C.3     1  UNL1        0.0953
      5 C           1.0398    1.0607   24.7036 C.3     1  UNL1        0.0442
      6 C           2.2179    0.2328   24.2829 C.3     1  UNL1        0.0933
      7 C           3.2055   -0.2412   25.3075 C.3     1  UNL1        0.0442
      8 C           3.0152    0.1127   26.7527 C.3     1  UNL1        0.0953
      9 N           2.4081   -0.1210   22.8377 N.ar    1  UNL1       -0.2817
     10 C           3.2878   -1.2134   22.3059 C.ar    1  UNL1        0.3314
     11 O           4.1317   -2.1438   23.1259 O.2     1  UNL1       -0.2463
     12 N           3.1755   -1.2120   20.8101 N.ar    1  UNL1       -0.2817
     13 C           2.2264   -0.1188   20.4175 C.ar    1  UNL1        0.0819
     14 C           1.7327    0.3497   19.0809 C.ar    1  UNL1        0.0484
     15 C           0.7648    1.4926   18.9973 C.ar    1  UNL1        0.1417
     16 F           0.2711    1.9612   17.6606 F       1  UNL1       -0.2041
     17 C           0.2906    2.1669   20.2505 C.ar    1  UNL1        0.0312
     18 C           0.7842    1.6983   21.5872 C.ar    1  UNL1        0.0211
     19 C           1.7521    0.5555   21.6707 C.ar    1  UNL1        0.0798
     20 C           3.8872   -2.1408   19.8717 C.3     1  UNL1        0.0899
     21 C           5.0323   -1.7791   18.9729 C.3     1  UNL1        0.0227
     22 C           5.4317   -3.0092   18.2129 C.3     1  UNL1        0.0020
     23 C           4.5333   -4.1311   18.6421 C.3     1  UNL1        0.0020
     24 C           3.5788   -3.5945   19.6672 C.3     1  UNL1        0.0227
     25 N           4.6100   -0.1277   31.6922 N.3     1  UNL1       -0.2689
     26 C           4.8260    1.1809   30.9914 C.3     1  UNL1        0.0729
     27 C           3.8382    1.6549   29.9669 C.3     1  UNL1        0.0264
     28 C           2.6346    0.8203   29.6431 C.3     1  UNL1        0.0795
     29 C           2.4187   -0.4882   30.3439 C.3     1  UNL1        0.0264
     30 C           3.4064   -0.9622   31.3684 C.3     1  UNL1        0.0729
     31 C           5.5977   -0.6018   32.7168 C.3     1  UNL1        0.0993
     32 N           6.5567   -5.6747   32.1289 N.pl3   1  UNL1       -0.3426
     33 C           7.0268   -4.2507   32.0907 C.ar    1  UNL1        0.1251
     34 C           6.0772   -3.1382   32.4228 C.ar    1  UNL1        0.0310
     35 C           6.5474   -1.7143   32.3846 C.ar    1  UNL1       -0.0018
     36 C           7.9672   -1.4030   32.0143 C.ar    1  UNL1        0.0179
     37 C           8.9169   -2.5155   31.6822 C.ar    1  UNL1        0.1000
     38 N           8.4467   -3.9394   31.7204 N.ar    1  UNL1       -0.2296
     39 H           5.6248   -5.8791   32.3719 H       1  UNL1        0.1437
     40 H           7.1800   -6.4049   31.9108 H       1  UNL1        0.1437
@<TRIPOS>BOND
     1    32    33    1
     2    33    34   ar
     3    34    35   ar
     4    35    31    1
     5    31    25    1
     6    25    26    1
     7    26    27    1
     8    27    28    1
     9    28     1    1
    10     1     2    2
    11     1     3   am
    12     3     4    1
    13     4     5    1
    14     5     6    1
    15     6     9    1
    16     9    10   ar
    17    10    11    2
    18    10    12   ar
    19    12    20    1
    20    20    21    1
    21    21    22    1
    22    22    23    1
    23    23    24    1
    24    12    13   ar
    25    13    14   ar
    26    14    15   ar
    27    15    16    1
    28    15    17   ar
    29    17    18   ar
    30    18    19   ar
    31     6     7    1
    32     7     8    1
    33    28    29    1
    34    29    30    1
    35    35    36   ar
    36    36    37   ar
    37    37    38   ar
    38    38    33   ar
    39    30    25    1
    40     8     3    1
    41    19     9   ar
    42    24    20    1
    43    19    13   ar
    44    32    39    1
    45    32    40    1
@<TRIPOS>MOLECULE
*****
 40 45 0 0 0
SMALL
GASTEIGER

@<TRIPOS>ATOM
      1 C           5.7567   -2.1546   18.9640 C.2     1  UNL1        0.2252
      2 O           6.1108   -2.7335   17.6263 O.2     1  UNL1       -0.2749
      3 N           4.6773   -1.1185   19.0709 N.am    1  UNL1       -0.2794
      4 C           3.9520   -0.6614   17.8400 C.3     1  UNL1        0.0953
      5 C           2.8726    0.3747   17.9469 C.3     1  UNL1        0.0442
      6 C           2.5185    0.9537   19.2847 C.3     1  UNL1        0.0933
      7 C           3.2437    0.4965   20.5154 C.3     1  UNL1        0.0442
      8 C           4.3231   -0.5396   20.4086 C.3     1  UNL1        0.0953
      9 N           1.4390    1.9898   19.3915 N.ar    1  UNL1       -0.2817
     10 C           0.1059    1.8089   20.0547 C.ar    1  UNL1        0.3314
     11 O          -0.3820    0.5602   20.7276 O.2     1  UNL1       -0.2463
     12 N          -0.6538    3.0960   19.9270 N.ar    1  UNL1       -0.2817
     13 C           0.2099    4.0723   19.1848 C.ar    1  UNL1        0.0819
     14 C          -0.0143    5.4955   18.7676 C.ar    1  UNL1        0.0484
     15 C           1.0549    6.2351   18.0194 C.ar    1  UNL1        0.1417
     16 F           0.8307    7.6584   17.6022 F       1  UNL1       -0.2041
     17 C           2.3484    5.5514   17.6885 C.ar    1  UNL1        0.0312
     18 C           2.5726    4.1281   18.1057 C.ar    1  UNL1        0.0211
     19 C           1.5034    3.3886   18.8538 C.ar    1  UNL1        0.0798
     20 C          -2.0347    3.3604   20.4496 C.3     1  UNL1        0.0899
     21 C          -3.2683    3.5594   19.6200 C.3     1  UNL1        0.0227
     22 C          -4.4206    3.7942   20.5513 C.3     1  UNL1        0.0020
     23 C          -3.8989    3.7402   21.9566 C.3     1  UNL1        0.0020
     24 C          -2.4244    3.4721   21.8938 C.3     1  UNL1        0.0227
     25 N           7.9325   -3.5261   22.6566 N.3     1  UNL1       -0.2689
     26 C           8.6123   -2.6104   21.6820 C.3     1  UNL1        0.0729
     27 C           7.8870   -2.1533   20.4512 C.3     1  UNL1        0.0264
     28 C           6.4820   -2.6118   20.1949 C.3     1  UNL1        0.0795
     29 C           5.8022   -3.5274   21.1693 C.3     1  UNL1        0.0264
     30 C           6.5275   -3.9845   22.4002 C.3     1  UNL1        0.0729
     31 C           8.6578   -3.9832   23.8874 C.3     1  UNL1        0.0993
     32 N           5.7605   -5.7693   27.8137 N.pl3   1  UNL1       -0.3426
     33 C           6.6749   -6.0257   26.6525 C.ar    1  UNL1        0.1251
     34 C           7.2092   -4.8762   25.8505 C.ar    1  UNL1        0.0310
     35 C           8.1235   -5.1327   24.6893 C.ar    1  UNL1       -0.0018
     36 C           8.5035   -6.5386   24.3302 C.ar    1  UNL1        0.0179
     37 C           7.9692   -7.6881   25.1323 C.ar    1  UNL1        0.1000
     38 N           7.0549   -7.4316   26.2934 N.ar    1  UNL1       -0.2296
     39 H           5.5111   -4.8465   28.0494 H       1  UNL1        0.1437
     40 H           5.4098   -6.5237   28.3400 H       1  UNL1        0.1437
@<TRIPOS>BOND
     1    32    33    1
     2    33    34   ar
     3    34    35   ar
     4    35    31    1
     5    31    25    1
     6    25    26    1
     7    26    27    1
     8    27    28    1
     9    28     1    1
    10     1     2    2
    11     1     3   am
    12     3     4    1
    13     4     5    1
    14     5     6    1
    15     6     9    1
    16     9    10   ar
    17    10    11    2
    18    10    12   ar
    19    12    20    1
    20    20    21    1
    21    21    22    1
    22    22    23    1
    23    23    24    1
    24    12    13   ar
    25    13    14   ar
    26    14    15   ar
    27    15    16    1
    28    15    17   ar
    29    17    18   ar
    30    18    19   ar
    31     6     7    1
    32     7     8    1
    33    28    29    1
    34    29    30    1
    35    35    36   ar
    36    36    37   ar
    37    37    38   ar
    38    38    33   ar
    39    30    25    1
    40     8     3    1
    41    19     9   ar
    42    24    20    1
    43    19    13   ar
    44    32    39    1
    45    32    40    1
@<TRIPOS>MOLECULE
*****
 40 45 0 0 0
SMALL
GASTEIGER

@<TRIPOS>ATOM
      1 C           6.7360   -4.2885   31.1446 C.2     1  UNL1        0.2252
      2 O           6.8555   -5.6785   31.6954 O.2     1  UNL1       -0.2749
      3 N           6.6498   -4.0739   29.6625 N.am    1  UNL1       -0.2794
      4 C           6.6831   -5.2494   28.7314 C.3     1  UNL1        0.0953
      5 C           6.5970   -5.0349   27.2493 C.3     1  UNL1        0.0442
      6 C           6.4774   -3.6447   26.6984 C.3     1  UNL1        0.0933
      7 C           6.4441   -2.4693   27.6296 C.3     1  UNL1        0.0442
      8 C           6.5303   -2.6839   29.1117 C.3     1  UNL1        0.0953
      9 N           6.3913   -3.4302   25.2163 N.ar    1  UNL1       -0.2817
     10 C           5.4026   -2.5517   24.5086 C.ar    1  UNL1        0.3314
     11 O           4.3264   -1.7336   25.1587 O.2     1  UNL1       -0.2463
     12 N           5.6790   -2.6351   23.0367 N.ar    1  UNL1       -0.2817
     13 C           6.8385   -3.5650   22.8346 C.ar    1  UNL1        0.0819
     14 C           7.5503   -4.0278   21.5981 C.ar    1  UNL1        0.0484
     15 C           8.7023   -4.9820   21.7086 C.ar    1  UNL1        0.1417
     16 F           9.4142   -5.4448   20.4720 F       1  UNL1       -0.2041
     17 C           9.1425   -5.4734   23.0557 C.ar    1  UNL1        0.0312
     18 C           8.4307   -5.0106   24.2923 C.ar    1  UNL1        0.0211
     19 C           7.2787   -4.0564   24.1817 C.ar    1  UNL1        0.0798
     20 C           4.9277   -1.9149   21.9564 C.3     1  UNL1        0.0899
     21 C           3.8109   -2.4816   21.1309 C.3     1  UNL1        0.0227
     22 C           3.3543   -1.4186   20.1762 C.3     1  UNL1        0.0020
     23 C           4.1892   -0.1948   20.4117 C.3     1  UNL1        0.0020
     24 C           5.1616   -0.5015   21.5118 C.3     1  UNL1        0.0227
     25 N           6.6360   -0.7621   33.9382 N.3     1  UNL1       -0.2689
     26 C           5.3685   -1.4930   33.6073 C.3     1  UNL1        0.0729
     27 C           5.4018   -2.6684   32.6761 C.3     1  UNL1        0.0264
     28 C           6.7026   -3.1130   32.0758 C.3     1  UNL1        0.0795
     29 C           7.9701   -2.3822   32.4067 C.3     1  UNL1        0.0264
     30 C           7.9367   -1.2067   33.3379 C.3     1  UNL1        0.0729
     31 C           6.6026    0.4134   34.8694 C.3     1  UNL1        0.0993
     32 N           3.1748    0.5750   38.7711 N.pl3   1  UNL1       -0.3426
     33 C           3.5816    0.9691   37.3821 C.ar    1  UNL1        0.1251
     34 C           4.8887    0.4942   36.8202 C.ar    1  UNL1        0.0310
     35 C           5.2955    0.8884   35.4312 C.ar    1  UNL1       -0.0018
     36 C           4.3951    1.7575   34.6042 C.ar    1  UNL1        0.0179
     37 C           3.0880    2.2324   35.1662 C.ar    1  UNL1        0.1000
     38 N           2.6812    1.8382   36.5551 N.ar    1  UNL1       -0.2296
     39 H           3.7657    0.0046   39.3140 H       1  UNL1        0.1437
     40 H           2.3168    0.8867   39.1399 H       1  UNL1        0.1437
@<TRIPOS>BOND
     1    32    33    1
     2    33    34   ar
     3    34    35   ar
     4    35    31    1
     5    31    25    1
     6    25    26    1
     7    26    27    1
     8    27    28    1
     9    28     1    1
    10     1     2    2
    11     1     3   am
    12     3     4    1
    13     4     5    1
    14     5     6    1
    15     6     9    1
    16     9    10   ar
    17    10    11    2
    18    10    12   ar
    19    12    20    1
    20    20    21    1
    21    21    22    1
    22    22    23    1
    23    23    24    1
    24    12    13   ar
    25    13    14   ar
    26    14    15   ar
    27    15    16    1
    28    15    17   ar
    29    17    18   ar
    30    18    19   ar
    31     6     7    1
    32     7     8    1
    33    28    29    1
    34    29    30    1
    35    35    36   ar
    36    36    37   ar
    37    37    38   ar
    38    38    33   ar
    39    30    25    1
    40     8     3    1
    41    19     9   ar
    42    24    20    1
    43    19    13   ar
    44    32    39    1
    45    32    40    1
@<TRIPOS>MOLECULE
*****
 40 45 0 0 0
SMALL
GASTEIGER

@<TRIPOS>ATOM
      1 C           0.5027    1.2002   27.9731 C.2     1  UNL1        0.2252
      2 O          -0.9083    1.6770   28.1504 O.2     1  UNL1       -0.2749
      3 N           1.0697    1.0314   26.5947 N.am    1  UNL1       -0.2794
      4 C           0.2256    1.3395   25.3936 C.3     1  UNL1        0.0953
      5 C           0.7926    1.1708   24.0152 C.3     1  UNL1        0.0442
      6 C           2.2038    0.6939   23.8379 C.3     1  UNL1        0.0933
      7 C           3.0478    0.3859   25.0389 C.3     1  UNL1        0.0442
      8 C           2.4808    0.5546   26.4173 C.3     1  UNL1        0.0953
      9 N           2.7707    0.5252   22.4594 N.ar    1  UNL1       -0.2817
     10 C           3.4697   -0.6948   21.9368 C.ar    1  UNL1        0.3314
     11 O           3.7244   -1.9602   22.7009 O.2     1  UNL1       -0.2463
     12 N           3.8692   -0.4271   20.5160 N.ar    1  UNL1       -0.2817
     13 C           3.4172    0.9583   20.1605 C.ar    1  UNL1        0.0819
     14 C           3.5360    1.7598   18.8983 C.ar    1  UNL1        0.0484
     15 C           2.9760    3.1500   18.8371 C.ar    1  UNL1        0.1417
     16 F           3.0948    3.9516   17.5748 F       1  UNL1       -0.2041
     17 C           2.2971    3.7385   20.0382 C.ar    1  UNL1        0.0312
     18 C           2.1782    2.9370   21.3005 C.ar    1  UNL1        0.0211
     19 C           2.7383    1.5468   21.3616 C.ar    1  UNL1        0.0798
     20 C           4.5936   -1.3779   19.6098 C.3     1  UNL1        0.0899
     21 C           5.9463   -1.1574   19.0002 C.3     1  UNL1        0.0227
     22 C           6.2812   -2.3593   18.1677 C.3     1  UNL1        0.0020
     23 C           5.1355   -3.3228   18.2628 C.3     1  UNL1        0.0020
     24 C           4.0925   -2.7162   19.1540 C.3     1  UNL1        0.0227
     25 N           3.0350    0.2759   31.5763 N.3     1  UNL1       -0.2689
     26 C           2.6082    1.6875   31.3017 C.3     1  UNL1        0.0729
     27 C           1.7641    1.9956   30.1006 C.3     1  UNL1        0.0264
     28 C           1.3468    0.8921   29.1742 C.3     1  UNL1        0.0795
     29 C           1.7736   -0.5194   29.4489 C.3     1  UNL1        0.0264
     30 C           2.6177   -0.8275   30.6499 C.3     1  UNL1        0.0729
     31 C           3.8791   -0.0321   32.7774 C.3     1  UNL1        0.0993
     32 N           6.1431   -4.7049   32.5787 N.pl3   1  UNL1       -0.3426
     33 C           6.2448   -3.2090   32.5321 C.ar    1  UNL1        0.1251
     34 C           5.0111   -2.3685   32.6781 C.ar    1  UNL1        0.0310
     35 C           5.1129   -0.8726   32.6315 C.ar    1  UNL1       -0.0018
     36 C           6.4484   -0.2174   32.4389 C.ar    1  UNL1        0.0179
     37 C           7.6821   -1.0580   32.2930 C.ar    1  UNL1        0.1000
     38 N           7.5803   -2.5538   32.3396 N.ar    1  UNL1       -0.2296
     39 H           5.2666   -5.1350   32.7051 H       1  UNL1        0.1437
     40 H           6.9529   -5.2565   32.4829 H       1  UNL1        0.1437
@<TRIPOS>BOND
     1    32    33    1
     2    33    34   ar
     3    34    35   ar
     4    35    31    1
     5    31    25    1
     6    25    26    1
     7    26    27    1
     8    27    28    1
     9    28     1    1
    10     1     2    2
    11     1     3   am
    12     3     4    1
    13     4     5    1
    14     5     6    1
    15     6     9    1
    16     9    10   ar
    17    10    11    2
    18    10    12   ar
    19    12    20    1
    20    20    21    1
    21    21    22    1
    22    22    23    1
    23    23    24    1
    24    12    13   ar
    25    13    14   ar
    26    14    15   ar
    27    15    16    1
    28    15    17   ar
    29    17    18   ar
    30    18    19   ar
    31     6     7    1
    32     7     8    1
    33    28    29    1
    34    29    30    1
    35    35    36   ar
    36    36    37   ar
    37    37    38   ar
    38    38    33   ar
    39    30    25    1
    40     8     3    1
    41    19     9   ar
    42    24    20    1
    43    19    13   ar
    44    32    39    1
    45    32    40    1
@<TRIPOS>MOLECULE
*****
 40 45 0 0 0
SMALL
GASTEIGER

@<TRIPOS>ATOM
      1 C           1.3846    1.4147   28.7191 C.2     1  UNL1        0.2252
      2 O           0.1069    2.0912   29.1185 O.2     1  UNL1       -0.2749
      3 N           1.6219    1.0472   27.2843 N.am    1  UNL1       -0.2794
      4 C           0.5815    1.3564   26.2490 C.3     1  UNL1        0.0953
      5 C           0.8187    0.9889   24.8142 C.3     1  UNL1        0.0442
      6 C           2.0966    0.3123   24.4146 C.3     1  UNL1        0.0933
      7 C           3.1369    0.0032   25.4500 C.3     1  UNL1        0.0442
      8 C           2.8996    0.3707   26.8848 C.3     1  UNL1        0.0953
      9 N           2.3338   -0.0551   22.9798 N.ar    1  UNL1       -0.2817
     10 C           3.2499   -1.1355   22.4862 C.ar    1  UNL1        0.3314
     11 O           4.0895   -2.0381   23.3408 O.2     1  UNL1       -0.2463
     12 N           3.1789   -1.1547   20.9881 N.ar    1  UNL1       -0.2817
     13 C           2.2190   -0.0862   20.5557 C.ar    1  UNL1        0.0819
     14 C           1.7530    0.3556   19.2002 C.ar    1  UNL1        0.0484
     15 C           0.7647    1.4771   19.0756 C.ar    1  UNL1        0.1417
     16 F           0.2987    1.9191   17.7200 F       1  UNL1       -0.2041
     17 C           0.2424    2.1567   20.3066 C.ar    1  UNL1        0.0312
     18 C           0.7084    1.7148   21.6622 C.ar    1  UNL1        0.0211
     19 C           1.6967    0.5934   21.7867 C.ar    1  UNL1        0.0798
     20 C           3.9351   -2.0800   20.0814 C.3     1  UNL1        0.0899
     21 C           3.4148   -3.3578   19.4928 C.3     1  UNL1        0.0227
     22 C           4.5025   -3.9574   18.6517 C.3     1  UNL1        0.0020
     23 C           5.6950   -3.0501   18.7205 C.3     1  UNL1        0.0020
     24 C           5.3443   -1.8898   19.6040 C.3     1  UNL1        0.0227
     25 N           4.5060    0.4872   31.8250 N.3     1  UNL1       -0.2689
     26 C           3.4560   -0.5302   31.4898 C.3     1  UNL1        0.0729
     27 C           2.4155   -0.2211   30.4545 C.3     1  UNL1        0.0264
     28 C           2.4251    1.1055   29.7544 C.3     1  UNL1        0.0795
     29 C           3.4751    2.1229   30.0896 C.3     1  UNL1        0.0264
     30 C           4.5155    1.8138   31.1249 C.3     1  UNL1        0.0729
     31 C           5.5465    0.1781   32.8603 C.3     1  UNL1        0.0993
     32 N           2.5366    2.1816   36.5922 N.pl3   1  UNL1       -0.3426
     33 C           3.7336    1.3765   36.1810 C.ar    1  UNL1        0.1251
     34 C           4.0416    1.1798   34.7262 C.ar    1  UNL1        0.0310
     35 C           5.2386    0.3747   34.3151 C.ar    1  UNL1       -0.0018
     36 C           6.1277   -0.2336   35.3589 C.ar    1  UNL1        0.0179
     37 C           5.8198   -0.0369   36.8137 C.ar    1  UNL1        0.1000
     38 N           4.6227    0.7681   37.2247 N.ar    1  UNL1       -0.2296
     39 H           1.9530    2.5809   35.9072 H       1  UNL1        0.1437
     40 H           2.3345    2.3106   37.5471 H       1  UNL1        0.1437
@<TRIPOS>BOND
     1    32    33    1
     2    33    34   ar
     3    34    35   ar
     4    35    31    1
     5    31    25    1
     6    25    26    1
     7    26    27    1
     8    27    28    1
     9    28     1    1
    10     1     2    2
    11     1     3   am
    12     3     4    1
    13     4     5    1
    14     5     6    1
    15     6     9    1
    16     9    10   ar
    17    10    11    2
    18    10    12   ar
    19    12    20    1
    20    20    21    1
    21    21    22    1
    22    22    23    1
    23    23    24    1
    24    12    13   ar
    25    13    14   ar
    26    14    15   ar
    27    15    16    1
    28    15    17   ar
    29    17    18   ar
    30    18    19   ar
    31     6     7    1
    32     7     8    1
    33    28    29    1
    34    29    30    1
    35    35    36   ar
    36    36    37   ar
    37    37    38   ar
    38    38    33   ar
    39    30    25    1
    40     8     3    1
    41    19     9   ar
    42    24    20    1
    43    19    13   ar
    44    32    39    1
    45    32    40    1
@<TRIPOS>MOLECULE
*****
 40 45 0 0 0
SMALL
GASTEIGER

@<TRIPOS>ATOM
      1 C           6.5725   -3.9959   31.5367 C.2     1  UNL1        0.2252
      2 O           6.5907   -5.3765   32.1228 O.2     1  UNL1       -0.2749
      3 N           6.6200   -3.8122   30.0488 N.am    1  UNL1       -0.2794
      4 C           6.6856   -5.0090   29.1470 C.3     1  UNL1        0.0953
      5 C           6.7330   -4.8253   27.6590 C.3     1  UNL1        0.0442
      6 C           6.7148   -3.4446   27.0728 C.3     1  UNL1        0.0933
      7 C           6.6492   -2.2479   27.9746 C.3     1  UNL1        0.0442
      8 C           6.6018   -2.4316   29.4626 C.3     1  UNL1        0.0953
      9 N           6.7622   -3.2609   25.5849 N.ar    1  UNL1       -0.2817
     10 C           7.8466   -3.7486   24.6704 C.ar    1  UNL1        0.3314
     11 O           9.0740   -4.5055   25.0833 O.2     1  UNL1       -0.2463
     12 N           7.4881   -3.3463   23.2705 N.ar    1  UNL1       -0.2817
     13 C           6.1821   -2.6101   23.3198 C.ar    1  UNL1        0.0819
     14 C           5.3435   -1.9809   22.2471 C.ar    1  UNL1        0.0484
     15 C           4.0563   -1.2990   22.6047 C.ar    1  UNL1        0.1417
     16 F           3.2176   -0.6698   21.5319 F       1  UNL1       -0.2041
     17 C           3.6076   -1.2462   24.0350 C.ar    1  UNL1        0.0312
     18 C           4.4462   -1.8754   25.1078 C.ar    1  UNL1        0.0211
     19 C           5.7335   -2.5573   24.7502 C.ar    1  UNL1        0.0798
     20 C           8.2940   -3.6304   22.0377 C.3     1  UNL1        0.0899
     21 C           8.7678   -4.9798   21.5856 C.3     1  UNL1        0.0227
     22 C           9.5343   -4.7984   20.3091 C.3     1  UNL1        0.0020
     23 C           9.5342   -3.3367   19.9723 C.3     1  UNL1        0.0020
     24 C           8.7677   -2.6148   21.0406 C.3     1  UNL1        0.0227
     25 N           6.3758   -0.4053   34.2420 N.3     1  UNL1       -0.2689
     26 C           5.1330   -1.1928   33.9492 C.3     1  UNL1        0.0729
     27 C           5.1986   -2.3896   33.0474 C.3     1  UNL1        0.0264
     28 C           6.5069   -2.7990   32.4385 C.3     1  UNL1        0.0795
     29 C           7.7496   -2.0116   32.7312 C.3     1  UNL1        0.0264
     30 C           7.6840   -0.8147   33.6330 C.3     1  UNL1        0.0729
     31 C           6.3102    0.7916   35.1438 C.3     1  UNL1        0.0993
     32 N           2.8594    0.4663   39.0150 N.pl3   1  UNL1       -0.3426
     33 C           3.2774    1.0359   37.6917 C.ar    1  UNL1        0.1251
     34 C           4.5848    0.6290   37.0793 C.ar    1  UNL1        0.0310
     35 C           5.0028    1.1986   35.7561 C.ar    1  UNL1       -0.0018
     36 C           4.1133    2.1752   35.0454 C.ar    1  UNL1        0.0179
     37 C           2.8059    2.5821   35.6578 C.ar    1  UNL1        0.1000
     38 N           2.3880    2.0125   36.9810 N.ar    1  UNL1       -0.2296
     39 H           3.4431   -0.1747   39.4815 H       1  UNL1        0.1437
     40 H           2.0013    0.7334   39.4169 H       1  UNL1        0.1437
@<TRIPOS>BOND
     1    32    33    1
     2    33    34   ar
     3    34    35   ar
     4    35    31    1
     5    31    25    1
     6    25    26    1
     7    26    27    1
     8    27    28    1
     9    28     1    1
    10     1     2    2
    11     1     3   am
    12     3     4    1
    13     4     5    1
    14     5     6    1
    15     6     9    1
    16     9    10   ar
    17    10    11    2
    18    10    12   ar
    19    12    20    1
    20    20    21    1
    21    21    22    1
    22    22    23    1
    23    23    24    1
    24    12    13   ar
    25    13    14   ar
    26    14    15   ar
    27    15    16    1
    28    15    17   ar
    29    17    18   ar
    30    18    19   ar
    31     6     7    1
    32     7     8    1
    33    28    29    1
    34    29    30    1
    35    35    36   ar
    36    36    37   ar
    37    37    38   ar
    38    38    33   ar
    39    30    25    1
    40     8     3    1
    41    19     9   ar
    42    24    20    1
    43    19    13   ar
    44    32    39    1
    45    32    40    1
@<TRIPOS>MOLECULE
*****
 40 45 0 0 0
SMALL
GASTEIGER

@<TRIPOS>ATOM
      1 C           3.1127   -0.2144   30.6881 C.2     1  UNL1        0.2252
      2 O           1.7242    0.3214   30.5010 O.2     1  UNL1       -0.2749
      3 N           3.8402   -0.8328   29.5312 N.am    1  UNL1       -0.2794
      4 C           3.1792   -0.9152   28.1873 C.3     1  UNL1        0.0953
      5 C           3.9067   -1.5335   27.0303 C.3     1  UNL1        0.0442
      6 C           5.2953   -2.0694   27.2174 C.3     1  UNL1        0.0933
      7 C           5.9561   -1.9869   28.5614 C.3     1  UNL1        0.0442
      8 C           5.2286   -1.3686   29.7183 C.3     1  UNL1        0.0953
      9 N           6.0228   -2.6877   26.0605 N.ar    1  UNL1       -0.2817
     10 C           6.3432   -2.0144   24.7590 C.ar    1  UNL1        0.3314
     11 O           5.9924   -0.6046   24.3859 O.2     1  UNL1       -0.2463
     12 N           7.0760   -2.9985   23.8962 N.ar    1  UNL1       -0.2817
     13 C           7.2085   -4.2800   24.6644 C.ar    1  UNL1        0.0819
     14 C           7.8378   -5.5970   24.3187 C.ar    1  UNL1        0.0484
     15 C           7.8161   -6.7219   25.3107 C.ar    1  UNL1        0.1417
     16 F           8.4454   -8.0389   24.9651 F       1  UNL1       -0.2041
     17 C           7.1652   -6.5298   26.6484 C.ar    1  UNL1        0.0312
     18 C           6.5359   -5.2128   26.9941 C.ar    1  UNL1        0.0211
     19 C           6.5576   -4.0879   26.0021 C.ar    1  UNL1        0.0798
     20 C           7.5867   -2.7455   22.5087 C.3     1  UNL1        0.0899
     21 C           6.7470   -2.5738   21.2777 C.3     1  UNL1        0.0227
     22 C           7.6681   -2.3420   20.1167 C.3     1  UNL1        0.0020
     23 C           9.0772   -2.3705   20.6303 C.3     1  UNL1        0.0020
     24 C           9.0269   -2.6199   22.1085 C.3     1  UNL1        0.0227
     25 N           5.0955    0.0330   34.7201 N.3     1  UNL1       -0.2689
     26 C           4.9579    1.2648   33.8751 C.3     1  UNL1        0.0729
     27 C           4.2969    1.1823   32.5311 C.3     1  UNL1        0.0264
     28 C           3.7736   -0.1320   32.0321 C.3     1  UNL1        0.0795
     29 C           3.9113   -1.3637   32.8771 C.3     1  UNL1        0.0264
     30 C           4.5722   -1.2812   34.2210 C.3     1  UNL1        0.0729
     31 C           5.7565    0.1155   36.0641 C.3     1  UNL1        0.0993
     32 N           1.4604    1.4165   38.6815 N.pl3   1  UNL1       -0.3426
     33 C           2.9449    1.5150   38.4902 C.ar    1  UNL1        0.1251
     34 C           3.6085    0.7660   37.3727 C.ar    1  UNL1        0.0310
     35 C           5.0930    0.8645   37.1815 C.ar    1  UNL1       -0.0018
     36 C           5.9139    1.7119   38.1078 C.ar    1  UNL1        0.0179
     37 C           5.2504    2.4609   39.2252 C.ar    1  UNL1        0.1000
     38 N           3.7659    2.3624   39.4164 N.ar    1  UNL1       -0.2296
     39 H           0.9215    0.8604   38.0736 H       1  UNL1        0.1437
     40 H           1.0249    1.9082   39.4149 H       1  UNL1        0.1437
@<TRIPOS>BOND
     1    32    33    1
     2    33    34   ar
     3    34    35   ar
     4    35    31    1
     5    31    25    1
     6    25    26    1
     7    26    27    1
     8    27    28    1
     9    28     1    1
    10     1     2    2
    11     1     3   am
    12     3     4    1
    13     4     5    1
    14     5     6    1
    15     6     9    1
    16     9    10   ar
    17    10    11    2
    18    10    12   ar
    19    12    20    1
    20    20    21    1
    21    21    22    1
    22    22    23    1
    23    23    24    1
    24    12    13   ar
    25    13    14   ar
    26    14    15   ar
    27    15    16    1
    28    15    17   ar
    29    17    18   ar
    30    18    19   ar
    31     6     7    1
    32     7     8    1
    33    28    29    1
    34    29    30    1
    35    35    36   ar
    36    36    37   ar
    37    37    38   ar
    38    38    33   ar
    39    30    25    1
    40     8     3    1
    41    19     9   ar
    42    24    20    1
    43    19    13   ar
    44    32    39    1
    45    32    40    1
@<TRIPOS>MOLECULE
*****
 40 45 0 0 0
SMALL
GASTEIGER

@<TRIPOS>ATOM
      1 C           0.1455    1.1702   27.8074 C.2     1  UNL1        0.2252
      2 O          -1.3178    1.4038   28.0401 O.2     1  UNL1       -0.2749
      3 N           0.7062    1.2508   26.4184 N.am    1  UNL1       -0.2794
      4 C          -0.1964    1.5650   25.2623 C.3     1  UNL1        0.0953
      5 C           0.3643    1.6455   23.8734 C.3     1  UNL1        0.0442
      6 C           1.8276    1.4119   23.6406 C.3     1  UNL1        0.0933
      7 C           2.7301    1.0977   24.7967 C.3     1  UNL1        0.0442
      8 C           2.1694    1.0171   26.1856 C.3     1  UNL1        0.0953
      9 N           2.3883    1.4925   22.2516 N.ar    1  UNL1       -0.2817
     10 C           2.5268    2.7382   21.4276 C.ar    1  UNL1        0.3314
     11 O           2.1288    4.1220   21.8478 O.2     1  UNL1       -0.2463
     12 N           3.1330    2.3570   20.1096 N.ar    1  UNL1       -0.2817
     13 C           3.3692    0.8757   20.1190 C.ar    1  UNL1        0.0819
     14 C           3.9440   -0.0555   19.0932 C.ar    1  UNL1        0.0484
     15 C           4.0584   -1.5211   19.3912 C.ar    1  UNL1        0.1417
     16 F           4.6332   -2.4525   18.3654 F       1  UNL1       -0.2041
     17 C           3.5982   -2.0554   20.7151 C.ar    1  UNL1        0.0312
     18 C           3.0234   -1.1242   21.7410 C.ar    1  UNL1        0.0211
     19 C           2.9090    0.3414   21.4429 C.ar    1  UNL1        0.0798
     20 C           3.4478    3.2928   18.9803 C.3     1  UNL1        0.0899
     21 C           2.4736    4.2007   18.2900 C.3     1  UNL1        0.0227
     22 C           3.2157    4.9541   17.2261 C.3     1  UNL1        0.0020
     23 C           4.6487    4.5116   17.2590 C.3     1  UNL1        0.0020
     24 C           4.7921    3.4849   18.3432 C.3     1  UNL1        0.0227
     25 N           2.8532    0.2276   31.2757 N.3     1  UNL1       -0.2689
     26 C           2.2182    1.5823   31.1665 C.3     1  UNL1        0.0729
     27 C           1.3156    1.8965   30.0104 C.3     1  UNL1        0.0264
     28 C           1.0480    0.8560   28.9635 C.3     1  UNL1        0.0795
     29 C           1.6830   -0.4986   29.0727 C.3     1  UNL1        0.0264
     30 C           2.5856   -0.8128   30.2288 C.3     1  UNL1        0.0729
     31 C           3.7558   -0.0866   32.4318 C.3     1  UNL1        0.0993
     32 N           6.1402   -4.6996   32.6184 N.pl3   1  UNL1       -0.3426
     33 C           6.1738   -3.2312   32.3135 C.ar    1  UNL1        0.1251
     34 C           4.9480   -2.3930   32.5251 C.ar    1  UNL1        0.0310
     35 C           4.9816   -0.9247   32.2202 C.ar    1  UNL1       -0.0018
     36 C           6.2411   -0.2946   31.7037 C.ar    1  UNL1        0.0179
     37 C           7.4668   -1.1329   31.4921 C.ar    1  UNL1        0.1000
     38 N           7.4332   -2.6012   31.7970 N.ar    1  UNL1       -0.2296
     39 H           5.3136   -5.1132   32.9574 H       1  UNL1        0.1437
     40 H           6.9448   -5.2497   32.4795 H       1  UNL1        0.1437
@<TRIPOS>BOND
     1    32    33    1
     2    33    34   ar
     3    34    35   ar
     4    35    31    1
     5    31    25    1
     6    25    26    1
     7    26    27    1
     8    27    28    1
     9    28     1    1
    10     1     2    2
    11     1     3   am
    12     3     4    1
    13     4     5    1
    14     5     6    1
    15     6     9    1
    16     9    10   ar
    17    10    11    2
    18    10    12   ar
    19    12    20    1
    20    20    21    1
    21    21    22    1
    22    22    23    1
    23    23    24    1
    24    12    13   ar
    25    13    14   ar
    26    14    15   ar
    27    15    16    1
    28    15    17   ar
    29    17    18   ar
    30    18    19   ar
    31     6     7    1
    32     7     8    1
    33    28    29    1
    34    29    30    1
    35    35    36   ar
    36    36    37   ar
    37    37    38   ar
    38    38    33   ar
    39    30    25    1
    40     8     3    1
    41    19     9   ar
    42    24    20    1
    43    19    13   ar
    44    32    39    1
    45    32    40    1
@<TRIPOS>MOLECULE
*****
 40 45 0 0 0
SMALL
GASTEIGER

@<TRIPOS>ATOM
      1 C         -18.0876   -3.1690   18.9034 C.2     1  UNL1        0.2252
      2 O         -19.4731   -3.6265   18.5553 O.2     1  UNL1       -0.2749
      3 N         -17.8817   -1.8414   19.5704 N.am    1  UNL1       -0.2794
      4 C         -19.0612   -0.9713   19.8894 C.3     1  UNL1        0.0953
      5 C         -18.8552    0.3563   20.5565 C.3     1  UNL1        0.0442
      6 C         -17.4697    0.8139   20.9046 C.3     1  UNL1        0.0933
      7 C         -16.2903   -0.0562   20.5856 C.3     1  UNL1        0.0442
      8 C         -16.4963   -1.3838   19.9185 C.3     1  UNL1        0.0953
      9 N         -17.2638    2.1416   21.5716 N.ar    1  UNL1       -0.2817
     10 C         -17.7352    2.5213   22.9441 C.ar    1  UNL1        0.3314
     11 O         -18.4954    1.6400   23.8904 O.2     1  UNL1       -0.2463
     12 N         -17.3130    3.9370   23.2040 N.ar    1  UNL1       -0.2817
     13 C         -16.5806    4.4322   21.9922 C.ar    1  UNL1        0.0819
     14 C         -15.9376    5.7502   21.6771 C.ar    1  UNL1        0.0484
     15 C         -15.2640    5.9585   20.3531 C.ar    1  UNL1        0.1417
     16 F         -14.6209    7.2765   20.0380 F       1  UNL1       -0.2041
     17 C         -15.2336    4.8488   19.3443 C.ar    1  UNL1        0.0312
     18 C         -15.8767    3.5309   19.6594 C.ar    1  UNL1        0.0211
     19 C         -16.5502    3.3226   20.9834 C.ar    1  UNL1        0.0798
     20 C         -17.5769    4.7200   24.4559 C.3     1  UNL1        0.0899
     21 C         -16.5397    5.3560   25.3331 C.3     1  UNL1        0.0227
     22 C         -17.2460    6.0336   26.4698 C.3     1  UNL1        0.0020
     23 C         -18.7199    5.8164   26.2949 C.3     1  UNL1        0.0020
     24 C         -18.9244    5.0045   25.0502 C.3     1  UNL1        0.0227
     25 N         -14.5492   -5.7792   17.9465 N.3     1  UNL1       -0.2689
     26 C         -15.0636   -4.8090   16.9246 C.3     1  UNL1        0.0729
     27 C         -16.2431   -3.9389   17.2436 C.3     1  UNL1        0.0264
     28 C         -16.9081   -4.0391   18.5844 C.3     1  UNL1        0.0795
     29 C         -16.3937   -5.0093   19.6062 C.3     1  UNL1        0.0264
     30 C         -15.2142   -5.8793   19.2872 C.3     1  UNL1        0.0729
     31 C         -13.3697   -6.6493   17.6275 C.3     1  UNL1        0.0993
     32 N          -9.9172   -3.0804   19.1584 N.pl3   1  UNL1       -0.3426
     33 C         -10.2871   -4.5161   18.9301 C.ar    1  UNL1        0.1251
     34 C         -11.6435   -4.8649   18.3929 C.ar    1  UNL1        0.0310
     35 C         -12.0133   -6.3006   18.1647 C.ar    1  UNL1       -0.0018
     36 C         -11.0268   -7.3874   18.4736 C.ar    1  UNL1        0.0179
     37 C          -9.6704   -7.0386   19.0108 C.ar    1  UNL1        0.1000
     38 N          -9.3006   -5.6030   19.2390 N.ar    1  UNL1       -0.2296
     39 H         -10.5647   -2.3670   18.9556 H       1  UNL1        0.1437
     40 H          -9.0270   -2.8515   19.5110 H       1  UNL1        0.1437
@<TRIPOS>BOND
     1    32    33    1
     2    33    34   ar
     3    34    35   ar
     4    35    31    1
     5    31    25    1
     6    25    26    1
     7    26    27    1
     8    27    28    1
     9    28     1    1
    10     1     2    2
    11     1     3   am
    12     3     4    1
    13     4     5    1
    14     5     6    1
    15     6     9    1
    16     9    10   ar
    17    10    11    2
    18    10    12   ar
    19    12    20    1
    20    20    21    1
    21    21    22    1
    22    22    23    1
    23    23    24    1
    24    12    13   ar
    25    13    14   ar
    26    14    15   ar
    27    15    16    1
    28    15    17   ar
    29    17    18   ar
    30    18    19   ar
    31     6     7    1
    32     7     8    1
    33    28    29    1
    34    29    30    1
    35    35    36   ar
    36    36    37   ar
    37    37    38   ar
    38    38    33   ar
    39    30    25    1
    40     8     3    1
    41    19     9   ar
    42    24    20    1
    43    19    13   ar
    44    32    39    1
    45    32    40    1
