@<TRIPOS>MOLECULE
*****
 27 30 0 0 0
SMALL
GASTEIGER

@<TRIPOS>ATOM
      1 C          -4.3442  -17.4951   23.0984 C.ar    1  UNL1       -0.0046
      2 C          -4.4455  -16.1801   23.8128 C.ar    1  UNL1       -0.0028
      3 C          -5.7913  -15.6217   24.1689 C.ar    1  UNL1        0.0013
      4 C          -7.0359  -16.3783   23.8105 C.ar    1  UNL1        0.0189
      5 C          -6.9347  -17.6933   23.0961 C.ar    1  UNL1        0.0823
      6 C          -5.5889  -18.2517   22.7400 C.ar    1  UNL1        0.0164
      7 C          -5.8008  -19.5619   22.0408 C.ar    1  UNL1        0.0217
      8 C          -7.2776  -19.8131   21.9648 C.ar    1  UNL1        0.0999
      9 N          -7.9784  -18.6583   22.6170 N.ar    1  UNL1       -0.2077
     10 S          -9.4624  -18.4968   22.7643 S.O2    1  UNL1        0.0864
     11 O          -9.5978  -19.9694   23.0152 O.2     1  UNL1       -0.1476
     12 O          -9.3270  -17.0242   22.5133 O.2     1  UNL1       -0.1476
     13 C         -10.9465  -18.3352   22.9115 C.ar    1  UNL1        0.1338
     14 C         -11.5798  -18.4267   24.2681 C.ar    1  UNL1        0.0209
     15 C         -13.0638  -18.2651   24.4155 C.ar    1  UNL1        0.0014
     16 C         -13.9144  -18.0121   23.2061 C.ar    1  UNL1        0.0006
     17 C         -13.2810  -17.9207   21.8495 C.ar    1  UNL1        0.0081
     18 C         -11.7970  -18.0823   21.7022 C.ar    1  UNL1        0.0536
     19 BR        -11.1636  -17.9909   20.3456 Br      1  UNL1       -0.0476
     20 C          -2.9983  -18.0536   22.7423 C.3     1  UNL1        0.0993
     21 C          -1.0850  -17.8758   17.0583 C.3     1  UNL1        0.0897
     22 N          -1.5634  -17.9202   18.4793 N.3     1  UNL1       -0.2691
     23 C          -2.6971  -18.8251   18.8610 C.3     1  UNL1        0.0897
     24 C          -3.1754  -18.8696   20.2820 C.3     1  UNL1        0.0899
     25 N          -2.5200  -18.0091   21.3213 N.3     1  UNL1       -0.2665
     26 C          -1.3862  -17.1042   20.9395 C.3     1  UNL1        0.0899
     27 C          -0.9079  -17.0597   19.5185 C.3     1  UNL1        0.0897
@<TRIPOS>BOND
     1    21    22    1
     2    22    23    1
     3    23    24    1
     4    24    25    1
     5    25    20    1
     6    20     1    1
     7     1     2   ar
     8     2     3   ar
     9     3     4   ar
    10     4     5   ar
    11     5     6   ar
    12     6     7   ar
    13     7     8   ar
    14     8     9   ar
    15     9    10    1
    16    10    11    2
    17    10    12    2
    18    10    13    1
    19    13    14   ar
    20    14    15   ar
    21    15    16   ar
    22    16    17   ar
    23    17    18   ar
    24    18    19    1
    25    25    26    1
    26    26    27    1
    27    27    22    1
    28     6     1   ar
    29    18    13   ar
    30     9     5   ar
@<TRIPOS>MOLECULE
*****
 27 30 0 0 0
SMALL
GASTEIGER

@<TRIPOS>ATOM
      1 C         -15.7173    0.9105   18.6043 C.ar    1  UNL1       -0.0046
      2 C         -14.5392    1.7503   18.2084 C.ar    1  UNL1       -0.0028
      3 C         -13.1856    1.1211   18.0607 C.ar    1  UNL1        0.0013
      4 C         -13.0101   -0.3478   18.3088 C.ar    1  UNL1        0.0189
      5 C         -14.1882   -1.1875   18.7046 C.ar    1  UNL1        0.0823
      6 C         -15.5418   -0.5584   18.8524 C.ar    1  UNL1        0.0164
      7 C         -16.5108   -1.6316   19.2517 C.ar    1  UNL1        0.0217
      8 C         -15.7560   -2.9241   19.3507 C.ar    1  UNL1        0.0999
      9 N         -14.3206   -2.6496   19.0126 N.ar    1  UNL1       -0.2077
     10 S         -13.2121   -3.6598   18.9870 S.O2    1  UNL1        0.0864
     11 O         -13.3189   -3.7392   17.4929 O.2     1  UNL1       -0.1476
     12 O         -13.1052   -3.5804   20.4810 O.2     1  UNL1       -0.1476
     13 C         -12.1035   -4.6701   18.9614 C.ar    1  UNL1        0.1338
     14 C         -10.6743   -4.2150   18.9475 C.ar    1  UNL1        0.0209
     15 C          -9.5658   -5.2251   18.9220 C.ar    1  UNL1        0.0014
     16 C          -9.8864   -6.6904   18.9103 C.ar    1  UNL1        0.0006
     17 C         -11.3156   -7.1455   18.9241 C.ar    1  UNL1        0.0081
     18 C         -12.4242   -6.1353   18.9497 C.ar    1  UNL1        0.0536
     19 BR        -13.8534   -6.5904   18.9636 Br      1  UNL1       -0.0476
     20 C         -17.0710    1.5397   18.7520 C.3     1  UNL1        0.0993
     21 C         -19.6002    1.9765   24.1753 C.3     1  UNL1        0.0897
     22 N         -18.9679    1.8673   22.8195 N.3     1  UNL1       -0.2691
     23 C         -19.7673    1.3552   21.6582 C.3     1  UNL1        0.0897
     24 C         -19.1350    1.2460   20.3024 C.3     1  UNL1        0.0899
     25 N         -17.7033    1.6489   20.1078 N.3     1  UNL1       -0.2665
     26 C         -16.9038    2.1610   21.2692 C.3     1  UNL1        0.0899
     27 C         -17.5361    2.2702   22.6250 C.3     1  UNL1        0.0897
@<TRIPOS>BOND
     1    21    22    1
     2    22    23    1
     3    23    24    1
     4    24    25    1
     5    25    20    1
     6    20     1    1
     7     1     2   ar
     8     2     3   ar
     9     3     4   ar
    10     4     5   ar
    11     5     6   ar
    12     6     7   ar
    13     7     8   ar
    14     8     9   ar
    15     9    10    1
    16    10    11    2
    17    10    12    2
    18    10    13    1
    19    13    14   ar
    20    14    15   ar
    21    15    16   ar
    22    16    17   ar
    23    17    18   ar
    24    18    19    1
    25    25    26    1
    26    26    27    1
    27    27    22    1
    28     6     1   ar
    29    18    13   ar
    30     9     5   ar
@<TRIPOS>MOLECULE
*****
 27 30 0 0 0
SMALL
GASTEIGER

@<TRIPOS>ATOM
      1 C         -17.7520   -0.9773   19.6627 C.ar    1  UNL1       -0.0046
      2 C         -18.5416   -2.1965   20.0369 C.ar    1  UNL1       -0.0028
      3 C         -17.8671   -3.5345   20.1070 C.ar    1  UNL1        0.0013
      4 C         -16.4031   -3.6532   19.8029 C.ar    1  UNL1        0.0189
      5 C         -15.6135   -2.4340   19.4288 C.ar    1  UNL1        0.0823
      6 C         -16.2880   -1.0960   19.3587 C.ar    1  UNL1        0.0164
      7 C         -15.2590   -0.0782   18.9646 C.ar    1  UNL1        0.0217
      8 C         -13.9485   -0.7871   18.7912 C.ar    1  UNL1        0.0999
      9 N         -14.1676   -2.2431   19.0781 N.ar    1  UNL1       -0.2077
     10 S         -13.1241   -3.3192   19.0237 S.O2    1  UNL1        0.0864
     11 O         -13.2828   -3.3979   17.5342 O.2     1  UNL1       -0.1476
     12 O         -12.9654   -3.2405   20.5132 O.2     1  UNL1       -0.1476
     13 C         -12.0805   -4.3954   18.9695 C.ar    1  UNL1        0.1338
     14 C         -10.6310   -4.0290   18.8485 C.ar    1  UNL1        0.0209
     15 C          -9.5874   -5.1050   18.7942 C.ar    1  UNL1        0.0014
     16 C          -9.9933   -6.5475   18.8610 C.ar    1  UNL1        0.0006
     17 C         -11.4428   -6.9140   18.9820 C.ar    1  UNL1        0.0081
     18 C         -12.4864   -5.8378   19.0362 C.ar    1  UNL1        0.0536
     19 BR        -13.9359   -6.2042   19.1573 Br      1  UNL1       -0.0476
     20 C         -18.4265    0.3607   19.5926 C.3     1  UNL1        0.0993
     21 C         -19.3389    3.5267   24.6070 C.3     1  UNL1        0.0897
     22 N         -19.1108    2.7352   23.3534 N.3     1  UNL1       -0.2691
     23 C         -17.7146    2.5023   22.8571 C.3     1  UNL1        0.0897
     24 C         -17.4865    1.7108   21.6035 C.3     1  UNL1        0.0899
     25 N         -18.6546    1.1522   20.8462 N.3     1  UNL1       -0.2665
     26 C         -20.0509    1.3851   21.3426 C.3     1  UNL1        0.0899
     27 C         -20.2790    2.1766   22.5962 C.3     1  UNL1        0.0897
@<TRIPOS>BOND
     1    21    22    1
     2    22    23    1
     3    23    24    1
     4    24    25    1
     5    25    20    1
     6    20     1    1
     7     1     2   ar
     8     2     3   ar
     9     3     4   ar
    10     4     5   ar
    11     5     6   ar
    12     6     7   ar
    13     7     8   ar
    14     8     9   ar
    15     9    10    1
    16    10    11    2
    17    10    12    2
    18    10    13    1
    19    13    14   ar
    20    14    15   ar
    21    15    16   ar
    22    16    17   ar
    23    17    18   ar
    24    18    19    1
    25    25    26    1
    26    26    27    1
    27    27    22    1
    28     6     1   ar
    29    18    13   ar
    30     9     5   ar
@<TRIPOS>MOLECULE
*****
 27 30 0 0 0
SMALL
GASTEIGER

@<TRIPOS>ATOM
      1 C          -0.5322    3.2584   21.9299 C.ar    1  UNL1       -0.0046
      2 C          -0.3572    2.8587   23.3650 C.ar    1  UNL1       -0.0028
      3 C           0.5552    1.7226   23.7211 C.ar    1  UNL1        0.0013
      4 C           1.2925    0.9862   22.6422 C.ar    1  UNL1        0.0189
      5 C           1.1174    1.3859   21.2071 C.ar    1  UNL1        0.0823
      6 C           0.2051    2.5219   20.8509 C.ar    1  UNL1        0.0164
      7 C           0.2318    2.6882   19.3603 C.ar    1  UNL1        0.0217
      8 C           1.1607    1.6548   18.7954 C.ar    1  UNL1        0.0999
      9 N           1.7080    0.8499   19.9367 N.ar    1  UNL1       -0.2077
     10 S           2.6760   -0.2906   19.8270 S.O2    1  UNL1        0.0864
     11 O           1.5306   -1.2576   19.7727 O.2     1  UNL1       -0.1476
     12 O           3.8215    0.6763   19.8812 O.2     1  UNL1       -0.1476
     13 C           3.6442   -1.4312   19.7172 C.ar    1  UNL1        0.1338
     14 C           3.9865   -2.2437   20.9307 C.ar    1  UNL1        0.0209
     15 C           4.9545   -3.3843   20.8211 C.ar    1  UNL1        0.0014
     16 C           5.5803   -3.7123   19.4979 C.ar    1  UNL1        0.0006
     17 C           5.2379   -2.8998   18.2843 C.ar    1  UNL1        0.0081
     18 C           4.2698   -1.7592   18.3941 C.ar    1  UNL1        0.0536
     19 BR          3.9275   -0.9467   17.1806 Br      1  UNL1       -0.0476
     20 C          -1.4446    4.3945   21.5736 C.3     1  UNL1        0.0993
     21 C          -6.6391    3.3062   18.7749 C.3     1  UNL1        0.0897
     22 N          -5.3405    3.5783   19.4746 N.3     1  UNL1       -0.2691
     23 C          -5.1811    3.2257   20.9238 C.3     1  UNL1        0.0897
     24 C          -3.8825    3.4978   21.6235 C.3     1  UNL1        0.0899
     25 N          -2.7432    4.1224   20.8739 N.3     1  UNL1       -0.2665
     26 C          -2.9026    4.4750   19.4246 C.3     1  UNL1        0.0899
     27 C          -4.2012    4.2029   18.7250 C.3     1  UNL1        0.0897
@<TRIPOS>BOND
     1    21    22    1
     2    22    23    1
     3    23    24    1
     4    24    25    1
     5    25    20    1
     6    20     1    1
     7     1     2   ar
     8     2     3   ar
     9     3     4   ar
    10     4     5   ar
    11     5     6   ar
    12     6     7   ar
    13     7     8   ar
    14     8     9   ar
    15     9    10    1
    16    10    11    2
    17    10    12    2
    18    10    13    1
    19    13    14   ar
    20    14    15   ar
    21    15    16   ar
    22    16    17   ar
    23    17    18   ar
    24    18    19    1
    25    25    26    1
    26    26    27    1
    27    27    22    1
    28     6     1   ar
    29    18    13   ar
    30     9     5   ar
@<TRIPOS>MOLECULE
*****
 27 30 0 0 0
SMALL
GASTEIGER

@<TRIPOS>ATOM
      1 C          -1.0188    3.4394   24.1985 C.ar    1  UNL1       -0.0046
      2 C          -0.8884    2.6004   25.4350 C.ar    1  UNL1       -0.0028
      3 C          -0.0602    1.3500   25.4089 C.ar    1  UNL1        0.0013
      4 C           0.6375    0.9387   24.1463 C.ar    1  UNL1        0.0189
      5 C           0.5070    1.7778   22.9098 C.ar    1  UNL1        0.0823
      6 C          -0.3211    3.0281   22.9359 C.ar    1  UNL1        0.0164
      7 C          -0.2656    3.6494   21.5717 C.ar    1  UNL1        0.0217
      8 C           0.5968    2.7830   20.7026 C.ar    1  UNL1        0.0999
      9 N           1.0743    1.6263   21.5296 N.ar    1  UNL1       -0.2077
     10 S           1.9632    0.5134   21.0589 S.O2    1  UNL1        0.0864
     11 O           3.1715    1.3341   21.4003 O.2     1  UNL1       -0.1476
     12 O           0.7549   -0.3072   20.7176 O.2     1  UNL1       -0.1476
     13 C           2.8520   -0.5996   20.5883 C.ar    1  UNL1        0.1338
     14 C           3.3648   -1.6145   21.5665 C.ar    1  UNL1        0.0209
     15 C           4.2535   -2.7274   21.0959 C.ar    1  UNL1        0.0014
     16 C           4.6295   -2.8254   19.6471 C.ar    1  UNL1        0.0006
     17 C           4.1167   -1.8105   18.6689 C.ar    1  UNL1        0.0081
     18 C           3.2279   -0.6975   19.1396 C.ar    1  UNL1        0.0536
     19 BR          2.7151    0.3174   18.1613 Br      1  UNL1       -0.0476
     20 C          -1.8470    4.6899   24.2245 C.3     1  UNL1        0.0993
     21 C          -7.7914    4.3671   23.4757 C.3     1  UNL1        0.0897
     22 N          -6.3053    4.4478   23.6629 N.3     1  UNL1       -0.2691
     23 C          -5.4000    3.5501   22.8727 C.3     1  UNL1        0.0897
     24 C          -3.9139    3.6308   23.0599 C.3     1  UNL1        0.0899
     25 N          -3.3331    4.6092   24.0373 N.3     1  UNL1       -0.2665
     26 C          -4.2384    5.5070   24.8276 C.3     1  UNL1        0.0899
     27 C          -5.7245    5.4263   24.6404 C.3     1  UNL1        0.0897
@<TRIPOS>BOND
     1    21    22    1
     2    22    23    1
     3    23    24    1
     4    24    25    1
     5    25    20    1
     6    20     1    1
     7     1     2   ar
     8     2     3   ar
     9     3     4   ar
    10     4     5   ar
    11     5     6   ar
    12     6     7   ar
    13     7     8   ar
    14     8     9   ar
    15     9    10    1
    16    10    11    2
    17    10    12    2
    18    10    13    1
    19    13    14   ar
    20    14    15   ar
    21    15    16   ar
    22    16    17   ar
    23    17    18   ar
    24    18    19    1
    25    25    26    1
    26    26    27    1
    27    27    22    1
    28     6     1   ar
    29    18    13   ar
    30     9     5   ar
@<TRIPOS>MOLECULE
*****
 27 30 0 0 0
SMALL
GASTEIGER

@<TRIPOS>ATOM
      1 C          -5.8075  -15.7554   24.5093 C.ar    1  UNL1       -0.0046
      2 C          -5.9889  -15.4707   25.9708 C.ar    1  UNL1       -0.0028
      3 C          -7.3162  -15.7188   26.6240 C.ar    1  UNL1        0.0013
      4 C          -8.4620  -16.2516   25.8158 C.ar    1  UNL1        0.0189
      5 C          -8.2805  -16.5363   24.3543 C.ar    1  UNL1        0.0823
      6 C          -6.9533  -16.2882   23.7011 C.ar    1  UNL1        0.0164
      7 C          -7.0726  -16.6605   22.2528 C.ar    1  UNL1        0.0217
      8 C          -8.4736  -17.1386   22.0111 C.ar    1  UNL1        0.0999
      9 N          -9.2201  -17.0619   23.3099 N.ar    1  UNL1       -0.2077
     10 S         -10.6545  -17.4437   23.5262 S.O2    1  UNL1        0.0864
     11 O         -10.2558  -18.8865   23.6230 O.2     1  UNL1       -0.1476
     12 O         -11.0531  -16.0009   23.4295 O.2     1  UNL1       -0.1476
     13 C         -12.0889  -17.8255   23.7426 C.ar    1  UNL1        0.1338
     14 C         -12.5702  -18.1847   25.1171 C.ar    1  UNL1        0.0209
     15 C         -14.0046  -18.5664   25.3336 C.ar    1  UNL1        0.0014
     16 C         -14.9577  -18.5890   24.1755 C.ar    1  UNL1        0.0006
     17 C         -14.4764  -18.2298   22.8010 C.ar    1  UNL1        0.0081
     18 C         -13.0419  -17.8480   22.5846 C.ar    1  UNL1        0.0536
     19 BR        -12.5606  -17.4888   21.2101 Br      1  UNL1       -0.0476
     20 C          -4.4801  -15.5073   23.8560 C.3     1  UNL1        0.0993
     21 C          -1.8455  -19.8554   20.6695 C.3     1  UNL1        0.0897
     22 N          -2.5042  -18.7684   21.4662 N.3     1  UNL1       -0.2691
     23 C          -3.5559  -19.1127   22.4787 C.3     1  UNL1        0.0897
     24 C          -4.2145  -18.0257   23.2753 C.3     1  UNL1        0.0899
     25 N          -3.8215  -16.5943   23.0594 N.3     1  UNL1       -0.2665
     26 C          -2.7697  -16.2499   22.0468 C.3     1  UNL1        0.0899
     27 C          -2.1111  -17.3369   21.2502 C.3     1  UNL1        0.0897
@<TRIPOS>BOND
     1    21    22    1
     2    22    23    1
     3    23    24    1
     4    24    25    1
     5    25    20    1
     6    20     1    1
     7     1     2   ar
     8     2     3   ar
     9     3     4   ar
    10     4     5   ar
    11     5     6   ar
    12     6     7   ar
    13     7     8   ar
    14     8     9   ar
    15     9    10    1
    16    10    11    2
    17    10    12    2
    18    10    13    1
    19    13    14   ar
    20    14    15   ar
    21    15    16   ar
    22    16    17   ar
    23    17    18   ar
    24    18    19    1
    25    25    26    1
    26    26    27    1
    27    27    22    1
    28     6     1   ar
    29    18    13   ar
    30     9     5   ar
@<TRIPOS>MOLECULE
*****
 27 30 0 0 0
SMALL
GASTEIGER

@<TRIPOS>ATOM
      1 C           5.9771   -3.4631   20.2470 C.ar    1  UNL1       -0.0046
      2 C           4.8032   -4.3131   19.8605 C.ar    1  UNL1       -0.0028
      3 C           3.5451   -3.6701   19.3570 C.ar    1  UNL1        0.0013
      4 C           3.4608   -2.1770   19.2401 C.ar    1  UNL1        0.0189
      5 C           4.6347   -1.3270   19.6267 C.ar    1  UNL1        0.0823
      6 C           5.8928   -1.9700   20.1301 C.ar    1  UNL1        0.0164
      7 C           6.8800   -0.8822   20.4338 C.ar    1  UNL1        0.0217
      8 C           6.2319    0.4332   20.1180 C.ar    1  UNL1        0.0999
      9 N           4.8442    0.1583   19.6192 N.ar    1  UNL1       -0.2077
     10 S           3.8420    1.1879   19.1885 S.O2    1  UNL1        0.0864
     11 O           4.0303    0.7733   17.7593 O.2     1  UNL1       -0.1476
     12 O           3.6537    1.6025   20.6177 O.2     1  UNL1       -0.1476
     13 C           2.8398    2.2175   18.7578 C.ar    1  UNL1        0.1338
     14 C           3.3032    3.5642   18.2870 C.ar    1  UNL1        0.0209
     15 C           2.3010    4.5939   17.8563 C.ar    1  UNL1        0.0014
     16 C           0.8355    4.2768   17.8965 C.ar    1  UNL1        0.0006
     17 C           0.3720    2.9302   18.3673 C.ar    1  UNL1        0.0081
     18 C           1.3743    1.9005   18.7980 C.ar    1  UNL1        0.0536
     19 BR          0.9109    0.5538   19.2688 Br      1  UNL1       -0.0476
     20 C           7.2353   -4.1062   20.7505 C.3     1  UNL1        0.0993
     21 C           7.7114   -5.6477   26.5295 C.3     1  UNL1        0.0897
     22 N           7.5924   -5.2623   25.0848 N.3     1  UNL1       -0.2691
     23 C           6.5360   -4.2890   24.6527 C.3     1  UNL1        0.0897
     24 C           6.4170   -3.9036   23.2080 C.3     1  UNL1        0.0899
     25 N           7.3543   -4.4915   22.1953 N.3     1  UNL1       -0.2665
     26 C           8.4108   -5.4649   22.6273 C.3     1  UNL1        0.0899
     27 C           8.5298   -5.8503   24.0720 C.3     1  UNL1        0.0897
@<TRIPOS>BOND
     1    21    22    1
     2    22    23    1
     3    23    24    1
     4    24    25    1
     5    25    20    1
     6    20     1    1
     7     1     2   ar
     8     2     3   ar
     9     3     4   ar
    10     4     5   ar
    11     5     6   ar
    12     6     7   ar
    13     7     8   ar
    14     8     9   ar
    15     9    10    1
    16    10    11    2
    17    10    12    2
    18    10    13    1
    19    13    14   ar
    20    14    15   ar
    21    15    16   ar
    22    16    17   ar
    23    17    18   ar
    24    18    19    1
    25    25    26    1
    26    26    27    1
    27    27    22    1
    28     6     1   ar
    29    18    13   ar
    30     9     5   ar
@<TRIPOS>MOLECULE
*****
 27 30 0 0 0
SMALL
GASTEIGER

@<TRIPOS>ATOM
      1 C           2.4477   -0.1165   18.8493 C.ar    1  UNL1       -0.0046
      2 C           3.1383   -0.2360   17.5231 C.ar    1  UNL1       -0.0028
      3 C           4.4005   -1.0376   17.4044 C.ar    1  UNL1        0.0013
      4 C           4.9722   -1.7197   18.6119 C.ar    1  UNL1        0.0189
      5 C           4.2816   -1.6001   19.9380 C.ar    1  UNL1        0.0823
      6 C           3.0193   -0.7986   20.0567 C.ar    1  UNL1        0.0164
      7 C           2.5639   -0.8597   21.4847 C.ar    1  UNL1        0.0217
      8 C           3.5447   -1.6991   22.2484 C.ar    1  UNL1        0.0999
      9 N           4.6063   -2.1567   21.2925 N.ar    1  UNL1       -0.2077
     10 S           5.7855   -3.0195   21.6316 S.O2    1  UNL1        0.0864
     11 O           6.6358   -1.7942   21.7922 O.2     1  UNL1       -0.1476
     12 O           4.9353   -4.2448   21.4711 O.2     1  UNL1       -0.1476
     13 C           6.9648   -3.8823   21.9708 C.ar    1  UNL1        0.1338
     14 C           7.8746   -4.3703   20.8826 C.ar    1  UNL1        0.0209
     15 C           9.0538   -5.2331   21.2216 C.ar    1  UNL1        0.0014
     16 C           9.3233   -5.6079   22.6488 C.ar    1  UNL1        0.0006
     17 C           8.4135   -5.1199   23.7370 C.ar    1  UNL1        0.0081
     18 C           7.2342   -4.2571   23.3979 C.ar    1  UNL1        0.0536
     19 BR          6.3244   -3.7691   24.4861 Br      1  UNL1       -0.0476
     20 C           1.1853    0.6852   18.9680 C.3     1  UNL1        0.0993
     21 C           0.8734    5.2288   22.8741 C.3     1  UNL1        0.0897
     22 N           0.9514    4.0929   21.8976 N.3     1  UNL1       -0.2691
     23 C          -0.1103    3.0333   21.8933 C.3     1  UNL1        0.0897
     24 C          -0.0323    1.8974   20.9168 C.3     1  UNL1        0.0899
     25 N           1.1074    1.8211   19.9445 N.3     1  UNL1       -0.2665
     26 C           2.1691    2.8807   19.9488 C.3     1  UNL1        0.0899
     27 C           2.0911    4.0166   20.9253 C.3     1  UNL1        0.0897
@<TRIPOS>BOND
     1    21    22    1
     2    22    23    1
     3    23    24    1
     4    24    25    1
     5    25    20    1
     6    20     1    1
     7     1     2   ar
     8     2     3   ar
     9     3     4   ar
    10     4     5   ar
    11     5     6   ar
    12     6     7   ar
    13     7     8   ar
    14     8     9   ar
    15     9    10    1
    16    10    11    2
    17    10    12    2
    18    10    13    1
    19    13    14   ar
    20    14    15   ar
    21    15    16   ar
    22    16    17   ar
    23    17    18   ar
    24    18    19    1
    25    25    26    1
    26    26    27    1
    27    27    22    1
    28     6     1   ar
    29    18    13   ar
    30     9     5   ar
@<TRIPOS>MOLECULE
*****
 27 30 0 0 0
SMALL
GASTEIGER

@<TRIPOS>ATOM
      1 C           3.9451   -2.0409   19.3177 C.ar    1  UNL1       -0.0046
      2 C           3.4537   -3.4106   18.9536 C.ar    1  UNL1       -0.0028
      3 C           3.8969   -4.6024   19.7492 C.ar    1  UNL1        0.0013
      4 C           4.8316   -4.4245   20.9089 C.ar    1  UNL1        0.0189
      5 C           5.3230   -3.0549   21.2729 C.ar    1  UNL1        0.0823
      6 C           4.8797   -1.8631   20.4773 C.ar    1  UNL1        0.0164
      7 C           5.5258   -0.6450   21.0681 C.ar    1  UNL1        0.0217
      8 C           6.3683   -1.0841   22.2289 C.ar    1  UNL1        0.0999
      9 N           6.2430   -2.5735   22.3554 N.ar    1  UNL1       -0.2077
     10 S           6.9189   -3.4309   23.3840 S.O2    1  UNL1        0.0864
     11 O           5.6427   -3.4945   24.1696 O.2     1  UNL1       -0.1476
     12 O           8.1951   -3.3673   22.5983 O.2     1  UNL1       -0.1476
     13 C           7.5950   -4.2884   24.4125 C.ar    1  UNL1        0.1338
     14 C           7.6637   -5.7746   24.2220 C.ar    1  UNL1        0.0209
     15 C           8.3397   -6.6321   25.2504 C.ar    1  UNL1        0.0014
     16 C           8.9470   -6.0033   26.4694 C.ar    1  UNL1        0.0006
     17 C           8.8783   -4.5171   26.6599 C.ar    1  UNL1        0.0081
     18 C           8.2022   -3.6596   25.6314 C.ar    1  UNL1        0.0536
     19 BR          8.1335   -2.1734   25.8219 Br      1  UNL1       -0.0476
     20 C           3.5018   -0.8490   18.5220 C.3     1  UNL1        0.0993
     21 C          -0.9496    2.6252   20.5506 C.3     1  UNL1        0.0897
     22 N           0.1633    1.7566   20.0435 N.3     1  UNL1       -0.2691
     23 C           1.1824    2.3194   19.0976 C.3     1  UNL1        0.0897
     24 C           2.2952    1.4509   18.5905 C.3     1  UNL1        0.0899
     25 N           2.3890    0.0195   19.0292 N.3     1  UNL1       -0.2665
     26 C           1.3699   -0.5433   19.9751 C.3     1  UNL1        0.0899
     27 C           0.2570    0.3253   20.4822 C.3     1  UNL1        0.0897
@<TRIPOS>BOND
     1    21    22    1
     2    22    23    1
     3    23    24    1
     4    24    25    1
     5    25    20    1
     6    20     1    1
     7     1     2   ar
     8     2     3   ar
     9     3     4   ar
    10     4     5   ar
    11     5     6   ar
    12     6     7   ar
    13     7     8   ar
    14     8     9   ar
    15     9    10    1
    16    10    11    2
    17    10    12    2
    18    10    13    1
    19    13    14   ar
    20    14    15   ar
    21    15    16   ar
    22    16    17   ar
    23    17    18   ar
    24    18    19    1
    25    25    26    1
    26    26    27    1
    27    27    22    1
    28     6     1   ar
    29    18    13   ar
    30     9     5   ar
