@<TRIPOS>MOLECULE
*****
 33 37 0 0 0
SMALL
GASTEIGER

@<TRIPOS>ATOM
      1 C           6.7759   -6.1463   26.5386 C.ar    1  UNL1        0.0540
      2 C           7.4071   -7.5066   26.5747 C.ar    1  UNL1        0.0152
      3 C           8.3085   -7.9448   25.4588 C.ar    1  UNL1        0.0010
      4 C           8.5788   -7.0229   24.3069 C.ar    1  UNL1       -0.0032
      5 C           7.9477   -5.6627   24.2708 C.ar    1  UNL1       -0.0091
      6 C           7.0462   -5.2244   25.3867 C.ar    1  UNL1       -0.0091
      7 C           6.4150   -3.8641   25.3507 C.3     1  UNL1        0.0445
      8 C           6.6853   -2.9421   24.1987 C.3     1  UNL1        0.0749
      9 N           7.5868   -3.3805   23.0828 N.3     1  UNL1       -0.2934
     10 C           8.2180   -4.7407   23.1189 C.3     1  UNL1        0.0954
     11 H           8.3484   -2.7036   23.0364 H       1  UNL1        0.1236
     12 N           5.8744   -5.7080   27.6545 N.pl3   1  UNL1       -0.2755
     13 H           4.9088   -5.8945   27.6094 H       1  UNL1        0.1665
     14 C           8.1535   -2.8179   32.3930 C.3     1  UNL1        0.0897
     15 N           7.5838   -3.5404   31.2084 N.3     1  UNL1       -0.2690
     16 C           7.5460   -5.0398   31.1914 C.3     1  UNL1        0.0915
     17 C           6.9762   -5.7623   30.0068 C.3     1  UNL1        0.1091
     18 N           6.4442   -4.9855   28.8392 N.3     1  UNL1       -0.2052
     19 C           6.4819   -3.4860   28.8561 C.3     1  UNL1        0.1091
     20 C           7.0517   -2.7635   30.0407 C.3     1  UNL1        0.0915
     21 C           6.0541   -1.5819   24.1627 C.3     1  UNL1        0.0886
     22 N           5.9466   -0.8391   22.8639 N.3     1  UNL1       -0.2667
     23 C           7.0617    0.0607   22.4200 C.3     1  UNL1        0.0899
     24 C           4.7241   -0.9962   22.0091 C.3     1  UNL1        0.0978
     25 C           3.5616   -0.0644   22.1844 C.3     1  UNL1        0.0224
     26 C           2.3391   -0.2214   21.3296 C.3     1  UNL1        0.0065
     27 C           2.2789   -1.3102   20.2995 C.3     1  UNL1        0.0277
     28 C           3.4413   -2.2419   20.1243 C.ar    1  UNL1       -0.0073
     29 C           3.3811   -3.3306   19.0942 C.ar    1  UNL1       -0.0015
     30 C           4.5435   -4.2624   18.9190 C.ar    1  UNL1        0.0203
     31 C           5.7661   -4.1054   19.7738 C.ar    1  UNL1        0.0985
     32 N           5.8262   -3.0166   20.8038 N.ar    1  UNL1       -0.2471
     33 C           4.6639   -2.0849   20.9791 C.ar    1  UNL1        0.0695
@<TRIPOS>BOND
     1    14    15    1
     2    15    16    1
     3    16    17    1
     4    17    18    1
     5    18    12    1
     6    12     1    1
     7     1     2   ar
     8     2     3   ar
     9     3     4   ar
    10     4     5   ar
    11     5     6   ar
    12     6     7    1
    13     7     8    1
    14     8    21    1
    15    21    22    1
    16    22    23    1
    17    24    22    1
    18    24    25    1
    19    25    26    1
    20    26    27    1
    21    27    28    1
    22    28    29   ar
    23    29    30   ar
    24    30    31   ar
    25    31    32   ar
    26    32    33   ar
    27     8     9    1
    28     9    10    1
    29    18    19    1
    30    19    20    1
    31    20    15    1
    32     6     1   ar
    33    33    24    1
    34    10     5    1
    35    33    28   ar
    36    12    13    1
    37     9    11    1
@<TRIPOS>MOLECULE
*****
 33 37 0 0 0
SMALL
GASTEIGER

@<TRIPOS>ATOM
      1 C           6.8694   -6.1998   26.4731 C.ar    1  UNL1        0.0540
      2 C           7.5232   -7.5287   26.7104 C.ar    1  UNL1        0.0152
      3 C           8.4873   -8.0808   25.7026 C.ar    1  UNL1        0.0010
      4 C           8.7976   -7.3040   24.4575 C.ar    1  UNL1       -0.0032
      5 C           8.1438   -5.9750   24.2202 C.ar    1  UNL1       -0.0091
      6 C           7.1797   -5.4229   25.2280 C.ar    1  UNL1       -0.0091
      7 C           6.5259   -4.0939   24.9908 C.3     1  UNL1        0.0445
      8 C           6.8362   -3.3170   23.7457 C.3     1  UNL1        0.0749
      9 N           7.8003   -3.8692   22.7379 N.3     1  UNL1       -0.2934
     10 C           8.4541   -5.1981   22.9752 C.3     1  UNL1        0.0954
     11 H           8.5506   -3.1848   22.6424 H       1  UNL1        0.1236
     12 N           5.9053   -5.6476   27.4809 N.pl3   1  UNL1       -0.2755
     13 H           4.9364   -5.7643   27.3506 H       1  UNL1        0.1665
     14 C           7.9535   -2.7279   32.3058 C.3     1  UNL1        0.0897
     15 N           7.4414   -3.4578   31.0996 N.3     1  UNL1       -0.2690
     16 C           7.3840   -4.9567   31.0983 C.3     1  UNL1        0.0915
     17 C           6.8720   -5.6866   29.8921 C.3     1  UNL1        0.1091
     18 N           6.4173   -4.9177   28.6871 N.3     1  UNL1       -0.2052
     19 C           6.4747   -3.4187   28.6884 C.3     1  UNL1        0.1091
     20 C           6.9868   -2.6888   29.8946 C.3     1  UNL1        0.0915
     21 C           6.1824   -1.9880   23.5084 C.3     1  UNL1        0.0886
     22 N           4.7835   -1.9257   22.9708 N.3     1  UNL1       -0.2667
     23 C           3.6943   -1.2930   23.7854 C.3     1  UNL1        0.0899
     24 C           4.4736   -2.4960   21.6185 C.3     1  UNL1        0.0978
     25 C           4.2794   -3.9744   21.4545 C.3     1  UNL1        0.0224
     26 C           3.9696   -4.5447   20.1022 C.3     1  UNL1        0.0065
     27 C           3.8539   -3.6367   18.9139 C.3     1  UNL1        0.0277
     28 C           4.0481   -2.1584   19.0778 C.ar    1  UNL1       -0.0073
     29 C           3.9324   -1.2504   17.8894 C.ar    1  UNL1       -0.0015
     30 C           4.1266    0.2279   18.0534 C.ar    1  UNL1        0.0203
     31 C           4.4365    0.7982   19.4057 C.ar    1  UNL1        0.0985
     32 N           4.5521   -0.1097   20.5940 N.ar    1  UNL1       -0.2471
     33 C           4.3579   -1.5880   20.4301 C.ar    1  UNL1        0.0695
@<TRIPOS>BOND
     1    14    15    1
     2    15    16    1
     3    16    17    1
     4    17    18    1
     5    18    12    1
     6    12     1    1
     7     1     2   ar
     8     2     3   ar
     9     3     4   ar
    10     4     5   ar
    11     5     6   ar
    12     6     7    1
    13     7     8    1
    14     8    21    1
    15    21    22    1
    16    22    23    1
    17    24    22    1
    18    24    25    1
    19    25    26    1
    20    26    27    1
    21    27    28    1
    22    28    29   ar
    23    29    30   ar
    24    30    31   ar
    25    31    32   ar
    26    32    33   ar
    27     8     9    1
    28     9    10    1
    29    18    19    1
    30    19    20    1
    31    20    15    1
    32     6     1   ar
    33    33    24    1
    34    10     5    1
    35    33    28   ar
    36    12    13    1
    37     9    11    1
@<TRIPOS>MOLECULE
*****
 33 37 0 0 0
SMALL
GASTEIGER

@<TRIPOS>ATOM
      1 C         -15.3563   -8.7872   17.3468 C.ar    1  UNL1        0.0540
      2 C         -15.5192  -10.1882   17.8574 C.ar    1  UNL1        0.0152
      3 C         -16.7382  -10.5613   18.6478 C.ar    1  UNL1        0.0010
      4 C         -17.7943   -9.5335   18.9276 C.ar    1  UNL1       -0.0032
      5 C         -17.6314   -8.1326   18.4169 C.ar    1  UNL1       -0.0091
      6 C         -16.4124   -7.7594   17.6265 C.ar    1  UNL1       -0.0091
      7 C         -16.2495   -6.3584   17.1158 C.3     1  UNL1        0.0445
      8 C         -17.3056   -5.3306   17.3955 C.3     1  UNL1        0.0749
      9 N         -18.5246   -5.7038   18.1859 N.3     1  UNL1       -0.2934
     10 C         -18.6875   -7.1048   18.6966 C.3     1  UNL1        0.0954
     11 H         -19.3311   -5.5114   17.5918 H       1  UNL1        0.1236
     12 N         -14.1372   -8.4140   16.5563 N.pl3   1  UNL1       -0.2755
     13 H         -14.0219   -8.7538   15.6395 H       1  UNL1        0.1665
     14 C          -9.9640   -4.8503   18.9820 C.3     1  UNL1        0.0897
     15 N         -11.0073   -5.7413   18.3756 N.3     1  UNL1       -0.2690
     16 C         -11.0766   -5.9094   16.8867 C.3     1  UNL1        0.0915
     17 C         -12.1199   -6.8003   16.2802 C.3     1  UNL1        0.1091
     18 N         -13.0939   -7.5231   17.1627 N.3     1  UNL1       -0.2052
     19 C         -13.0247   -7.3550   18.6517 C.3     1  UNL1        0.1091
     20 C         -11.9814   -6.4640   19.2581 C.3     1  UNL1        0.0915
     21 C         -17.1427   -3.9297   16.8848 C.3     1  UNL1        0.0886
     22 N         -16.7903   -2.8221   17.8329 N.3     1  UNL1       -0.2667
     23 C         -17.6384   -1.5861   17.8908 C.3     1  UNL1        0.0899
     24 C         -15.5899   -2.9503   18.7231 C.3     1  UNL1        0.0978
     25 C         -15.6641   -3.7858   19.9667 C.3     1  UNL1        0.0224
     26 C         -14.4637   -3.9140   20.8569 C.3     1  UNL1        0.0065
     27 C         -13.1890   -3.2067   20.5036 C.3     1  UNL1        0.0277
     28 C         -13.1147   -2.3712   19.2600 C.ar    1  UNL1       -0.0073
     29 C         -11.8400   -1.6640   18.9067 C.ar    1  UNL1       -0.0015
     30 C         -11.7657   -0.8284   17.6631 C.ar    1  UNL1        0.0203
     31 C         -12.9661   -0.7002   16.7729 C.ar    1  UNL1        0.0985
     32 N         -14.2409   -1.4075   17.1263 N.ar    1  UNL1       -0.2471
     33 C         -14.3151   -2.2430   18.3698 C.ar    1  UNL1        0.0695
@<TRIPOS>BOND
     1    14    15    1
     2    15    16    1
     3    16    17    1
     4    17    18    1
     5    18    12    1
     6    12     1    1
     7     1     2   ar
     8     2     3   ar
     9     3     4   ar
    10     4     5   ar
    11     5     6   ar
    12     6     7    1
    13     7     8    1
    14     8    21    1
    15    21    22    1
    16    22    23    1
    17    24    22    1
    18    24    25    1
    19    25    26    1
    20    26    27    1
    21    27    28    1
    22    28    29   ar
    23    29    30   ar
    24    30    31   ar
    25    31    32   ar
    26    32    33   ar
    27     8     9    1
    28     9    10    1
    29    18    19    1
    30    19    20    1
    31    20    15    1
    32     6     1   ar
    33    33    24    1
    34    10     5    1
    35    33    28   ar
    36    12    13    1
    37     9    11    1
@<TRIPOS>MOLECULE
*****
 33 37 0 0 0
SMALL
GASTEIGER

@<TRIPOS>ATOM
      1 C           7.5849   -6.0215   25.4595 C.ar    1  UNL1        0.0540
      2 C           8.4846   -7.1252   25.9312 C.ar    1  UNL1        0.0152
      3 C           9.4582   -7.7568   24.9809 C.ar    1  UNL1        0.0010
      4 C           9.5322   -7.2848   23.5591 C.ar    1  UNL1       -0.0032
      5 C           8.6325   -6.1812   23.0874 C.ar    1  UNL1       -0.0091
      6 C           7.6589   -5.5495   24.0376 C.ar    1  UNL1       -0.0091
      7 C           6.7591   -4.4458   23.5660 C.3     1  UNL1        0.0445
      8 C           6.8331   -3.9738   22.1441 C.3     1  UNL1        0.0749
      9 N           7.8068   -4.6055   21.1939 N.3     1  UNL1       -0.2934
     10 C           8.7065   -5.7091   21.6655 C.3     1  UNL1        0.0954
     11 H           8.4114   -3.8585   20.8521 H       1  UNL1        0.1236
     12 N           6.6112   -5.3898   26.4098 N.pl3   1  UNL1       -0.2755
     13 H           5.6632   -5.3040   26.1584 H       1  UNL1        0.1665
     14 C           8.4939   -3.3863   31.7428 C.3     1  UNL1        0.0897
     15 N           8.0232   -3.8872   30.4095 N.3     1  UNL1       -0.2690
     16 C           8.6176   -3.3343   29.1482 C.3     1  UNL1        0.0915
     17 C           8.1469   -3.8352   27.8149 C.3     1  UNL1        0.1091
     18 N           7.0818   -4.8890   27.7430 N.3     1  UNL1       -0.2052
     19 C           6.4874   -5.4419   29.0044 C.3     1  UNL1        0.1091
     20 C           6.9581   -4.9410   30.3377 C.3     1  UNL1        0.0915
     21 C           5.9334   -2.8702   21.6725 C.3     1  UNL1        0.0886
     22 N           5.0940   -3.0601   20.4439 N.3     1  UNL1       -0.2667
     23 C           4.3550   -4.3482   20.2323 C.3     1  UNL1        0.0899
     24 C           4.9936   -1.9620   19.4271 C.3     1  UNL1        0.0978
     25 C           6.1547   -1.6675   18.5241 C.3     1  UNL1        0.0224
     26 C           6.0543   -0.5694   17.5073 C.3     1  UNL1        0.0065
     27 C           4.7928    0.2342   17.3932 C.3     1  UNL1        0.0277
     28 C           3.6318   -0.0603   18.2961 C.ar    1  UNL1       -0.0073
     29 C           2.3703    0.7433   18.1821 C.ar    1  UNL1       -0.0015
     30 C           1.2092    0.4487   19.0850 C.ar    1  UNL1        0.0203
     31 C           1.3097   -0.6494   20.1019 C.ar    1  UNL1        0.0985
     32 N           2.5711   -1.4530   20.2159 N.ar    1  UNL1       -0.2471
     33 C           3.7321   -1.1585   19.3131 C.ar    1  UNL1        0.0695
@<TRIPOS>BOND
     1    14    15    1
     2    15    16    1
     3    16    17    1
     4    17    18    1
     5    18    12    1
     6    12     1    1
     7     1     2   ar
     8     2     3   ar
     9     3     4   ar
    10     4     5   ar
    11     5     6   ar
    12     6     7    1
    13     7     8    1
    14     8    21    1
    15    21    22    1
    16    22    23    1
    17    24    22    1
    18    24    25    1
    19    25    26    1
    20    26    27    1
    21    27    28    1
    22    28    29   ar
    23    29    30   ar
    24    30    31   ar
    25    31    32   ar
    26    32    33   ar
    27     8     9    1
    28     9    10    1
    29    18    19    1
    30    19    20    1
    31    20    15    1
    32     6     1   ar
    33    33    24    1
    34    10     5    1
    35    33    28   ar
    36    12    13    1
    37     9    11    1
@<TRIPOS>MOLECULE
*****
 33 37 0 0 0
SMALL
GASTEIGER

@<TRIPOS>ATOM
      1 C           7.0783   -6.3311   26.5122 C.ar    1  UNL1        0.0540
      2 C           7.8727   -7.5264   26.9481 C.ar    1  UNL1        0.0152
      3 C           8.9159   -8.1057   26.0392 C.ar    1  UNL1        0.0010
      4 C           9.1647   -7.4896   24.6944 C.ar    1  UNL1       -0.0032
      5 C           8.3703   -6.2943   24.2584 C.ar    1  UNL1       -0.0091
      6 C           7.3271   -5.7151   25.1673 C.ar    1  UNL1       -0.0091
      7 C           6.5326   -4.5197   24.7314 C.3     1  UNL1        0.0445
      8 C           6.7814   -3.9037   23.3865 C.3     1  UNL1        0.0749
      9 N           7.8246   -4.4830   22.4776 N.3     1  UNL1       -0.2934
     10 C           8.6191   -5.6783   22.9136 C.3     1  UNL1        0.0954
     11 H           8.4946   -3.7382   22.2859 H       1  UNL1        0.1236
     12 N           6.0350   -5.7518   27.4211 N.pl3   1  UNL1       -0.2755
     13 H           5.0801   -5.8806   27.2195 H       1  UNL1        0.1665
     14 C           7.6823   -2.6493   32.2854 C.3     1  UNL1        0.0897
     15 N           7.2705   -3.4249   31.0693 N.3     1  UNL1       -0.2690
     16 C           6.8519   -2.7009   29.8241 C.3     1  UNL1        0.0915
     17 C           6.4401   -3.4765   28.6081 C.3     1  UNL1        0.1091
     18 N           6.4469   -4.9762   28.6372 N.3     1  UNL1       -0.2052
     19 C           6.8654   -5.7003   29.8824 C.3     1  UNL1        0.1091
     20 C           7.2773   -4.9247   31.0984 C.3     1  UNL1        0.0915
     21 C           5.9869   -2.7084   22.9506 C.3     1  UNL1        0.0886
     22 N           4.7433   -2.8922   22.1322 N.3     1  UNL1       -0.2667
     23 C           4.3411   -4.2637   21.6768 C.3     1  UNL1        0.0899
     24 C           3.9020   -1.7046   21.7693 C.3     1  UNL1        0.0978
     25 C           3.1568   -0.9591   22.8366 C.3     1  UNL1        0.0224
     26 C           2.3154    0.2285   22.4737 C.3     1  UNL1        0.0065
     27 C           2.2192    0.6706   21.0436 C.3     1  UNL1        0.0277
     28 C           2.9643   -0.0749   19.9764 C.ar    1  UNL1       -0.0073
     29 C           2.8680    0.3672   18.5462 C.ar    1  UNL1       -0.0015
     30 C           3.6132   -0.3783   17.4790 C.ar    1  UNL1        0.0203
     31 C           4.4545   -1.5659   17.8418 C.ar    1  UNL1        0.0985
     32 N           4.5508   -2.0080   19.2720 N.ar    1  UNL1       -0.2471
     33 C           3.8057   -1.2625   20.3392 C.ar    1  UNL1        0.0695
@<TRIPOS>BOND
     1    14    15    1
     2    15    16    1
     3    16    17    1
     4    17    18    1
     5    18    12    1
     6    12     1    1
     7     1     2   ar
     8     2     3   ar
     9     3     4   ar
    10     4     5   ar
    11     5     6   ar
    12     6     7    1
    13     7     8    1
    14     8    21    1
    15    21    22    1
    16    22    23    1
    17    24    22    1
    18    24    25    1
    19    25    26    1
    20    26    27    1
    21    27    28    1
    22    28    29   ar
    23    29    30   ar
    24    30    31   ar
    25    31    32   ar
    26    32    33   ar
    27     8     9    1
    28     9    10    1
    29    18    19    1
    30    19    20    1
    31    20    15    1
    32     6     1   ar
    33    33    24    1
    34    10     5    1
    35    33    28   ar
    36    12    13    1
    37     9    11    1
@<TRIPOS>MOLECULE
*****
 33 37 0 0 0
SMALL
GASTEIGER

@<TRIPOS>ATOM
      1 C           7.1357   -5.7405   25.9616 C.ar    1  UNL1        0.0540
      2 C           7.4749   -7.1190   26.4460 C.ar    1  UNL1        0.0152
      3 C           8.3096   -8.0289   25.5944 C.ar    1  UNL1        0.0010
      4 C           8.8052   -7.5603   24.2584 C.ar    1  UNL1       -0.0032
      5 C           8.4660   -6.1818   23.7740 C.ar    1  UNL1       -0.0091
      6 C           7.6313   -5.2719   24.6257 C.ar    1  UNL1       -0.0091
      7 C           7.2921   -3.8933   24.1413 C.3     1  UNL1        0.0445
      8 C           7.7876   -3.4247   22.8053 C.3     1  UNL1        0.0749
      9 N           8.6224   -4.3347   21.9537 N.3     1  UNL1       -0.2934
     10 C           8.9615   -5.7132   22.4381 C.3     1  UNL1        0.0954
     11 H           9.5071   -3.8545   21.7891 H       1  UNL1        0.1236
     12 N           6.3010   -4.8305   26.8133 N.pl3   1  UNL1       -0.2755
     13 H           5.4209   -4.5268   26.4932 H       1  UNL1        0.1665
     14 C           8.3258   -3.0417   32.1706 C.3     1  UNL1        0.0897
     15 N           7.8196   -3.4889   30.8313 N.3     1  UNL1       -0.2690
     16 C           7.0777   -4.7865   30.7049 C.3     1  UNL1        0.0915
     17 C           6.5715   -5.2337   29.3656 C.3     1  UNL1        0.1091
     18 N           6.8072   -4.3833   28.1526 N.3     1  UNL1       -0.2052
     19 C           7.5491   -3.0857   28.2789 C.3     1  UNL1        0.1091
     20 C           8.0552   -2.6385   29.6183 C.3     1  UNL1        0.0915
     21 C           7.4484   -2.0462   22.3210 C.3     1  UNL1        0.0886
     22 N           7.1143   -1.8199   20.8763 N.3     1  UNL1       -0.2667
     23 C           8.0740   -1.0811   19.9913 C.3     1  UNL1        0.0899
     24 C           5.8205   -2.3325   20.3166 C.3     1  UNL1        0.0978
     25 C           5.7819   -3.6520   19.6040 C.3     1  UNL1        0.0224
     26 C           4.4881   -4.1645   19.0443 C.3     1  UNL1        0.0065
     27 C           3.2329   -3.3578   19.1971 C.3     1  UNL1        0.0277
     28 C           3.2714   -2.0384   19.9096 C.ar    1  UNL1       -0.0073
     29 C           2.0161   -1.2316   20.0624 C.ar    1  UNL1       -0.0015
     30 C           2.0546    0.0878   20.7750 C.ar    1  UNL1        0.0203
     31 C           3.3484    0.6004   21.3347 C.ar    1  UNL1        0.0985
     32 N           4.6037   -0.2064   21.1819 N.ar    1  UNL1       -0.2471
     33 C           4.5652   -1.5257   20.4694 C.ar    1  UNL1        0.0695
@<TRIPOS>BOND
     1    14    15    1
     2    15    16    1
     3    16    17    1
     4    17    18    1
     5    18    12    1
     6    12     1    1
     7     1     2   ar
     8     2     3   ar
     9     3     4   ar
    10     4     5   ar
    11     5     6   ar
    12     6     7    1
    13     7     8    1
    14     8    21    1
    15    21    22    1
    16    22    23    1
    17    24    22    1
    18    24    25    1
    19    25    26    1
    20    26    27    1
    21    27    28    1
    22    28    29   ar
    23    29    30   ar
    24    30    31   ar
    25    31    32   ar
    26    32    33   ar
    27     8     9    1
    28     9    10    1
    29    18    19    1
    30    19    20    1
    31    20    15    1
    32     6     1   ar
    33    33    24    1
    34    10     5    1
    35    33    28   ar
    36    12    13    1
    37     9    11    1
@<TRIPOS>MOLECULE
*****
 33 37 0 0 0
SMALL
GASTEIGER

@<TRIPOS>ATOM
      1 C           6.8473   -5.0047   25.5792 C.ar    1  UNL1        0.0540
      2 C           6.7369   -5.9388   26.7476 C.ar    1  UNL1        0.0152
      3 C           7.3262   -7.3157   26.6653 C.ar    1  UNL1        0.0010
      4 C           8.0258   -7.7586   25.4145 C.ar    1  UNL1       -0.0032
      5 C           8.1362   -6.8245   24.2461 C.ar    1  UNL1       -0.0091
      6 C           7.5469   -5.4476   24.3285 C.ar    1  UNL1       -0.0091
      7 C           7.6573   -4.5134   23.1600 C.3     1  UNL1        0.0445
      8 C           8.3569   -4.9562   21.9092 C.3     1  UNL1        0.0749
      9 N           8.9462   -6.3332   21.8269 N.3     1  UNL1       -0.2934
     10 C           8.8358   -7.2673   22.9954 C.3     1  UNL1        0.0954
     11 H           9.9414   -6.2167   21.6361 H       1  UNL1        0.1236
     12 N           6.2580   -3.6277   25.6615 N.pl3   1  UNL1       -0.2755
     13 H           5.7167   -3.2786   24.9170 H       1  UNL1        0.1665
     14 C           7.2001   -0.2475   30.5284 C.3     1  UNL1        0.0897
     15 N           6.9646   -1.0925   29.3117 N.3     1  UNL1       -0.2690
     16 C           8.1263   -1.5535   28.4824 C.3     1  UNL1        0.0915
     17 C           7.8908   -2.3986   27.2656 C.3     1  UNL1        0.1091
     18 N           6.4936   -2.7827   26.8782 N.3     1  UNL1       -0.2052
     19 C           5.3317   -2.3217   27.7076 C.3     1  UNL1        0.1091
     20 C           5.5673   -1.4766   28.9243 C.3     1  UNL1        0.0915
     21 C           8.4673   -4.0222   20.7408 C.3     1  UNL1        0.0886
     22 N           7.8603   -2.6525   20.8156 N.3     1  UNL1       -0.2667
     23 C           8.6214   -1.5286   21.4541 C.3     1  UNL1        0.0899
     24 C           6.4922   -2.4068   20.2518 C.3     1  UNL1        0.0978
     25 C           6.2300   -2.6356   18.7926 C.3     1  UNL1        0.0224
     26 C           4.8619   -2.3898   18.2289 C.3     1  UNL1        0.0065
     27 C           3.7559   -1.9152   19.1241 C.3     1  UNL1        0.0277
     28 C           4.0180   -1.6864   20.5832 C.ar    1  UNL1       -0.0073
     29 C           2.9120   -1.2118   21.4785 C.ar    1  UNL1       -0.0015
     30 C           3.1742   -0.9830   22.9376 C.ar    1  UNL1        0.0203
     31 C           4.5423   -1.2287   23.5014 C.ar    1  UNL1        0.0985
     32 N           5.6483   -1.7033   22.6061 N.ar    1  UNL1       -0.2471
     33 C           5.3862   -1.9322   21.1471 C.ar    1  UNL1        0.0695
@<TRIPOS>BOND
     1    14    15    1
     2    15    16    1
     3    16    17    1
     4    17    18    1
     5    18    12    1
     6    12     1    1
     7     1     2   ar
     8     2     3   ar
     9     3     4   ar
    10     4     5   ar
    11     5     6   ar
    12     6     7    1
    13     7     8    1
    14     8    21    1
    15    21    22    1
    16    22    23    1
    17    24    22    1
    18    24    25    1
    19    25    26    1
    20    26    27    1
    21    27    28    1
    22    28    29   ar
    23    29    30   ar
    24    30    31   ar
    25    31    32   ar
    26    32    33   ar
    27     8     9    1
    28     9    10    1
    29    18    19    1
    30    19    20    1
    31    20    15    1
    32     6     1   ar
    33    33    24    1
    34    10     5    1
    35    33    28   ar
    36    12    13    1
    37     9    11    1
@<TRIPOS>MOLECULE
*****
 33 37 0 0 0
SMALL
GASTEIGER

@<TRIPOS>ATOM
      1 C           7.2713   -6.0700   26.0380 C.ar    1  UNL1        0.0540
      2 C           7.9931   -7.2458   26.6265 C.ar    1  UNL1        0.0152
      3 C           8.9552   -8.0323   25.7865 C.ar    1  UNL1        0.0010
      4 C           9.1955   -7.6431   24.3579 C.ar    1  UNL1       -0.0032
      5 C           8.4737   -6.4673   23.7694 C.ar    1  UNL1       -0.0091
      6 C           7.5116   -5.6807   24.6094 C.ar    1  UNL1       -0.0091
      7 C           6.7897   -4.5049   24.0209 C.3     1  UNL1        0.0445
      8 C           7.0300   -4.1156   22.5923 C.3     1  UNL1        0.0749
      9 N           7.9921   -4.9023   21.7523 N.3     1  UNL1       -0.2934
     10 C           8.7139   -6.0781   22.3408 C.3     1  UNL1        0.0954
     11 H           8.7065   -4.2483   21.4323 H       1  UNL1        0.1236
     12 N           6.3092   -5.2833   26.8780 N.pl3   1  UNL1       -0.2755
     13 H           5.3791   -5.1625   26.5786 H       1  UNL1        0.1665
     14 C           8.1292   -2.8730   32.0624 C.3     1  UNL1        0.0897
     15 N           7.6742   -3.4756   30.7663 N.3     1  UNL1       -0.2690
     16 C           7.0666   -4.8469   30.7491 C.3     1  UNL1        0.0915
     17 C           6.6116   -5.4495   29.4530 C.3     1  UNL1        0.1091
     18 N           6.7642   -4.6807   28.1741 N.3     1  UNL1       -0.2052
     19 C           7.3718   -3.3094   28.1912 C.3     1  UNL1        0.1091
     20 C           7.8268   -2.7068   29.4873 C.3     1  UNL1        0.0915
     21 C           6.3082   -2.9398   22.0038 C.3     1  UNL1        0.0886
     22 N           4.9148   -3.1040   21.4731 N.3     1  UNL1       -0.2667
     23 C           4.5097   -4.3894   20.8144 C.3     1  UNL1        0.0899
     24 C           3.9266   -1.9829   21.6010 C.3     1  UNL1        0.0978
     25 C           3.2078   -1.4745   20.3865 C.3     1  UNL1        0.0224
     26 C           2.2195   -0.3533   20.5145 C.3     1  UNL1        0.0065
     27 C           1.9500    0.2594   21.8568 C.3     1  UNL1        0.0277
     28 C           2.6687   -0.2490   23.0713 C.ar    1  UNL1       -0.0073
     29 C           2.3992    0.3637   24.4136 C.ar    1  UNL1       -0.0015
     30 C           3.1180   -0.1447   25.6281 C.ar    1  UNL1        0.0203
     31 C           4.1063   -1.2658   25.5002 C.ar    1  UNL1        0.0985
     32 N           4.3758   -1.8786   24.1578 N.ar    1  UNL1       -0.2471
     33 C           3.6571   -1.3702   22.9434 C.ar    1  UNL1        0.0695
@<TRIPOS>BOND
     1    14    15    1
     2    15    16    1
     3    16    17    1
     4    17    18    1
     5    18    12    1
     6    12     1    1
     7     1     2   ar
     8     2     3   ar
     9     3     4   ar
    10     4     5   ar
    11     5     6   ar
    12     6     7    1
    13     7     8    1
    14     8    21    1
    15    21    22    1
    16    22    23    1
    17    24    22    1
    18    24    25    1
    19    25    26    1
    20    26    27    1
    21    27    28    1
    22    28    29   ar
    23    29    30   ar
    24    30    31   ar
    25    31    32   ar
    26    32    33   ar
    27     8     9    1
    28     9    10    1
    29    18    19    1
    30    19    20    1
    31    20    15    1
    32     6     1   ar
    33    33    24    1
    34    10     5    1
    35    33    28   ar
    36    12    13    1
    37     9    11    1
@<TRIPOS>MOLECULE
*****
 33 37 0 0 0
SMALL
GASTEIGER

@<TRIPOS>ATOM
      1 C           3.3436   -2.1100   20.1592 C.ar    1  UNL1        0.0540
      2 C           3.7968   -2.7560   18.8836 C.ar    1  UNL1        0.0152
      3 C           5.0052   -3.6447   18.8811 C.ar    1  UNL1        0.0010
      4 C           5.7603   -3.8874   20.1543 C.ar    1  UNL1       -0.0032
      5 C           5.3070   -3.2414   21.4299 C.ar    1  UNL1       -0.0091
      6 C           4.0987   -2.3527   21.4323 C.ar    1  UNL1       -0.0091
      7 C           3.6453   -1.7067   22.7080 C.3     1  UNL1        0.0445
      8 C           4.4004   -1.9494   23.9811 C.3     1  UNL1        0.0749
      9 N           5.6089   -2.8382   23.9786 N.3     1  UNL1       -0.2934
     10 C           6.0621   -3.4841   22.7030 C.3     1  UNL1        0.0954
     11 H           5.4215   -3.5918   24.6399 H       1  UNL1        0.1236
     12 N           2.1351   -1.2213   20.1617 N.pl3   1  UNL1       -0.2755
     13 H           1.2829   -1.5502   20.5289 H       1  UNL1        0.1665
     14 C           2.4953    4.3381   17.9339 C.3     1  UNL1        0.0897
     15 N           2.4053    2.9483   18.4908 N.3     1  UNL1       -0.2690
     16 C           3.6228    2.2930   19.0724 C.3     1  UNL1        0.0915
     17 C           3.5327    0.9031   19.6294 C.3     1  UNL1        0.1091
     18 N           2.2252    0.1686   19.6047 N.3     1  UNL1       -0.2052
     19 C           1.0076    0.8238   19.0231 C.3     1  UNL1        0.1091
     20 C           1.0976    2.2137   18.4662 C.3     1  UNL1        0.0915
     21 C           3.9472   -1.3035   25.2568 C.3     1  UNL1        0.0886
     22 N           3.7430    0.1814   25.3142 N.3     1  UNL1       -0.2667
     23 C           4.9269    1.0985   25.4003 C.3     1  UNL1        0.0899
     24 C           2.3549    0.7493   25.2855 C.3     1  UNL1        0.0978
     25 C           1.7836    1.2690   23.9996 C.3     1  UNL1        0.0224
     26 C           0.3956    1.8368   23.9709 C.3     1  UNL1        0.0065
     27 C          -0.4212    1.8850   25.2281 C.3     1  UNL1        0.0277
     28 C           0.1500    1.3654   26.5140 C.ar    1  UNL1       -0.0073
     29 C          -0.6667    1.4135   27.7712 C.ar    1  UNL1       -0.0015
     30 C          -0.0954    0.8938   29.0571 C.ar    1  UNL1        0.0203
     31 C           1.2927    0.3260   29.0858 C.ar    1  UNL1        0.0985
     32 N           2.1094    0.2778   27.8286 N.ar    1  UNL1       -0.2471
     33 C           1.5382    0.7975   26.5427 C.ar    1  UNL1        0.0695
@<TRIPOS>BOND
     1    14    15    1
     2    15    16    1
     3    16    17    1
     4    17    18    1
     5    18    12    1
     6    12     1    1
     7     1     2   ar
     8     2     3   ar
     9     3     4   ar
    10     4     5   ar
    11     5     6   ar
    12     6     7    1
    13     7     8    1
    14     8    21    1
    15    21    22    1
    16    22    23    1
    17    24    22    1
    18    24    25    1
    19    25    26    1
    20    26    27    1
    21    27    28    1
    22    28    29   ar
    23    29    30   ar
    24    30    31   ar
    25    31    32   ar
    26    32    33   ar
    27     8     9    1
    28     9    10    1
    29    18    19    1
    30    19    20    1
    31    20    15    1
    32     6     1   ar
    33    33    24    1
    34    10     5    1
    35    33    28   ar
    36    12    13    1
    37     9    11    1
