@<TRIPOS>MOLECULE
*****
 27 29 0 0 0
SMALL
GASTEIGER

@<TRIPOS>ATOM
      1 N           9.3551   -2.0375   28.8486 N.pl3   1  UNL1       -0.3375
      2 C           9.0414   -3.4189   28.3552 C.ar    1  UNL1        0.1568
      3 N           8.5849   -3.7787   26.9724 N.ar    1  UNL1       -0.2214
      4 C           8.3905   -5.2652   26.9205 C.ar    1  UNL1        0.1227
      5 C           7.9506   -6.1820   25.8179 C.ar    1  UNL1        0.1518
      6 O           7.6142   -5.6232   24.4671 O.3     1  UNL1       -0.5040
      7 C           7.8471   -7.6578   26.0659 C.ar    1  UNL1        0.0427
      8 C           8.1835   -8.2167   27.4167 C.ar    1  UNL1        0.0570
      9 C           8.6234   -7.2997   28.5194 C.ar    1  UNL1        0.0128
     10 C           8.7269   -5.8240   28.2713 C.ar    1  UNL1        0.0528
     11 S           9.1291   -4.6830   29.1579 S.2     1  UNL1       -0.0519
     12 H           9.2668   -1.2666   28.2427 H       1  UNL1        0.1442
     13 H           9.6492   -1.9019   29.7783 H       1  UNL1        0.1442
     14 H           7.6789   -4.7013   24.3122 H       1  UNL1        0.2923
     15 C           8.0801   -9.6923   27.6648 C.2     1  UNL1        0.2462
     16 O           9.3240  -10.5231   27.7767 O.2     1  UNL1       -0.2701
     17 N           6.7327  -10.3373   27.8009 N.am    1  UNL1       -0.2969
     18 H           5.9163   -9.7920   27.7275 H       1  UNL1        0.1501
     19 C           6.6292  -11.8131   28.0490 C.3     1  UNL1        0.1166
     20 C           5.2901  -12.4878   28.0114 C.ar    1  UNL1       -0.0017
     21 C           4.9354  -13.3872   26.8645 C.ar    1  UNL1       -0.0017
     22 C           3.5962  -14.0620   26.8269 C.ar    1  UNL1        0.0120
     23 C           2.6118  -13.8373   27.9361 C.ar    1  UNL1        0.0682
     24 CL          1.2727  -14.5120   27.8985 Cl      1  UNL1       -0.0814
     25 C           2.9665  -12.9379   29.0830 C.ar    1  UNL1        0.0679
     26 CL          1.9820  -12.7132   30.1922 Cl      1  UNL1       -0.0814
     27 C           4.3056  -12.2632   29.1206 C.ar    1  UNL1        0.0096
@<TRIPOS>BOND
     1     1     2    1
     2     2     3   ar
     3     3     4   ar
     4     4     5   ar
     5     5     6    1
     6     5     7   ar
     7     7     8   ar
     8     8    15    1
     9    15    16    2
    10    15    17   am
    11    17    19    1
    12    19    20    1
    13    20    21   ar
    14    21    22   ar
    15    22    23   ar
    16    23    24    1
    17    23    25   ar
    18    25    26    1
    19    25    27   ar
    20     8     9   ar
    21     9    10   ar
    22    10    11   ar
    23    11     2   ar
    24    10     4   ar
    25    27    20   ar
    26     1    12    1
    27     1    13    1
    28     6    14    1
    29    17    18    1
@<TRIPOS>MOLECULE
*****
 27 29 0 0 0
SMALL
GASTEIGER

@<TRIPOS>ATOM
      1 N          -0.0626    0.6365   20.3813 N.pl3   1  UNL1       -0.3375
      2 C           1.2445   -0.0181   20.0449 C.ar    1  UNL1        0.1568
      3 N           1.7843   -0.2514   18.6650 N.ar    1  UNL1       -0.2214
      4 C           3.1146   -0.9319   18.7965 C.ar    1  UNL1        0.1227
      5 C           4.1053   -1.4051   17.7745 C.ar    1  UNL1        0.1518
      6 O           3.8229   -1.2179   16.3133 O.3     1  UNL1       -0.5040
      7 C           5.3784   -2.0657   18.2138 C.ar    1  UNL1        0.0427
      8 C           5.6608   -2.2529   19.6750 C.ar    1  UNL1        0.0570
      9 C           4.6700   -1.7796   20.6970 C.ar    1  UNL1        0.0128
     10 C           3.3970   -1.1191   20.2578 C.ar    1  UNL1        0.0528
     11 S           2.2412   -0.5544   21.0293 S.2     1  UNL1       -0.0519
     12 H          -0.6520    0.9577   19.6612 H       1  UNL1        0.1442
     13 H          -0.3310    0.7449   21.3223 H       1  UNL1        0.1442
     14 H           3.0276   -0.8053   16.0389 H       1  UNL1        0.2923
     15 C           6.9339   -2.9134   20.1142 C.2     1  UNL1        0.2462
     16 O           8.1825   -2.7524   19.2988 O.2     1  UNL1       -0.2701
     17 N           6.9583   -3.7351   21.3689 N.am    1  UNL1       -0.2969
     18 H           6.1387   -3.8408   21.9041 H       1  UNL1        0.1501
     19 C           8.2314   -4.3956   21.8082 C.3     1  UNL1        0.1166
     20 C           8.2177   -5.3623   22.9551 C.ar    1  UNL1       -0.0017
     21 C           8.9764   -6.6527   22.8574 C.ar    1  UNL1       -0.0017
     22 C           8.9627   -7.6194   24.0043 C.ar    1  UNL1        0.0120
     23 C           8.1904   -7.2958   25.2488 C.ar    1  UNL1        0.0682
     24 CL          8.1768   -8.2625   26.3956 Cl      1  UNL1       -0.0814
     25 C           7.4318   -6.0055   25.3465 C.ar    1  UNL1        0.0679
     26 CL          6.6596   -5.6818   26.5910 Cl      1  UNL1       -0.0814
     27 C           7.4455   -5.0387   24.1997 C.ar    1  UNL1        0.0096
@<TRIPOS>BOND
     1     1     2    1
     2     2     3   ar
     3     3     4   ar
     4     4     5   ar
     5     5     6    1
     6     5     7   ar
     7     7     8   ar
     8     8    15    1
     9    15    16    2
    10    15    17   am
    11    17    19    1
    12    19    20    1
    13    20    21   ar
    14    21    22   ar
    15    22    23   ar
    16    23    24    1
    17    23    25   ar
    18    25    26    1
    19    25    27   ar
    20     8     9   ar
    21     9    10   ar
    22    10    11   ar
    23    11     2   ar
    24    10     4   ar
    25    27    20   ar
    26     1    12    1
    27     1    13    1
    28     6    14    1
    29    17    18    1
@<TRIPOS>MOLECULE
*****
 27 29 0 0 0
SMALL
GASTEIGER

@<TRIPOS>ATOM
      1 N         -13.2261   -8.0219   18.9931 N.pl3   1  UNL1       -0.3375
      2 C         -13.1264   -6.5255   18.9639 C.ar    1  UNL1        0.1568
      3 N         -11.8576   -5.7257   18.9894 N.ar    1  UNL1       -0.2214
      4 C         -12.2250   -4.2721   18.9453 C.ar    1  UNL1        0.1227
      5 C         -11.3908   -3.0255   18.9463 C.ar    1  UNL1        0.1518
      6 O          -9.8950   -3.1241   18.9991 O.3     1  UNL1       -0.5040
      7 C         -12.0524   -1.6802   18.8946 C.ar    1  UNL1        0.0427
      8 C         -13.5482   -1.5816   18.8418 C.ar    1  UNL1        0.0570
      9 C         -14.3825   -2.8282   18.8407 C.ar    1  UNL1        0.0128
     10 C         -13.7209   -4.1734   18.8925 C.ar    1  UNL1        0.0528
     11 S         -14.2779   -5.5661   18.9040 S.2     1  UNL1       -0.0519
     12 H         -12.4085   -8.5690   19.0327 H       1  UNL1        0.1442
     13 H         -14.1090   -8.4569   18.9727 H       1  UNL1        0.1442
     14 H          -9.4817   -3.9644   19.0315 H       1  UNL1        0.2923
     15 C         -14.2098   -0.2364   18.7901 C.2     1  UNL1        0.2462
     16 O         -13.3845    0.9975   18.5744 O.2     1  UNL1       -0.2701
     17 N         -15.6966   -0.1251   18.9540 N.am    1  UNL1       -0.2969
     18 H         -16.2382   -0.9349   19.0956 H       1  UNL1        0.1501
     19 C         -16.3583    1.2202   18.9023 C.3     1  UNL1        0.1166
     20 C         -16.3629    2.1009   20.1165 C.ar    1  UNL1       -0.0017
     21 C         -15.5526    3.3631   20.1305 C.ar    1  UNL1       -0.0017
     22 C         -15.5573    4.2438   21.3448 C.ar    1  UNL1        0.0120
     23 C         -16.3722    3.8623   22.5449 C.ar    1  UNL1        0.0682
     24 CL        -16.3769    4.7430   23.7591 Cl      1  UNL1       -0.0814
     25 C         -17.1825    2.6001   22.5308 C.ar    1  UNL1        0.0679
     26 CL        -17.9974    2.2185   23.7309 Cl      1  UNL1       -0.0814
     27 C         -17.1779    1.7194   21.3167 C.ar    1  UNL1        0.0096
@<TRIPOS>BOND
     1     1     2    1
     2     2     3   ar
     3     3     4   ar
     4     4     5   ar
     5     5     6    1
     6     5     7   ar
     7     7     8   ar
     8     8    15    1
     9    15    16    2
    10    15    17   am
    11    17    19    1
    12    19    20    1
    13    20    21   ar
    14    21    22   ar
    15    22    23   ar
    16    23    24    1
    17    23    25   ar
    18    25    26    1
    19    25    27   ar
    20     8     9   ar
    21     9    10   ar
    22    10    11   ar
    23    11     2   ar
    24    10     4   ar
    25    27    20   ar
    26     1    12    1
    27     1    13    1
    28     6    14    1
    29    17    18    1
@<TRIPOS>MOLECULE
*****
 27 29 0 0 0
SMALL
GASTEIGER

@<TRIPOS>ATOM
      1 N           6.5862   -4.4075   32.2677 N.pl3   1  UNL1       -0.3375
      2 C           6.6601   -4.5050   30.7727 C.ar    1  UNL1        0.1568
      3 N           6.8885   -5.7584   29.9811 N.ar    1  UNL1       -0.2214
      4 C           6.8882   -5.3943   28.5260 C.ar    1  UNL1        0.1227
      5 C           7.0665   -6.2180   27.2852 C.ar    1  UNL1        0.1518
      6 O           7.2951   -7.6965   27.3929 O.3     1  UNL1       -0.5040
      7 C           7.0162   -5.5631   25.9365 C.ar    1  UNL1        0.0427
      8 C           6.7875   -4.0846   25.8288 C.ar    1  UNL1        0.0570
      9 C           6.6092   -3.2609   27.0697 C.ar    1  UNL1        0.0128
     10 C           6.6595   -3.9157   28.4183 C.ar    1  UNL1        0.0528
     11 S           6.5186   -3.3661   29.8068 S.2     1  UNL1       -0.0519
     12 H           6.6919   -5.2159   32.8196 H       1  UNL1        0.1442
     13 H           6.4320   -3.5351   32.6971 H       1  UNL1        0.1442
     14 H           7.3265   -8.1056   28.2353 H       1  UNL1        0.2923
     15 C           6.7372   -3.4297   24.4803 C.2     1  UNL1        0.2462
     16 O           7.2992   -2.0514   24.2944 O.2     1  UNL1       -0.2701
     17 N           6.1250   -4.1531   23.3177 N.am    1  UNL1       -0.2969
     18 H           5.7562   -5.0577   23.4397 H       1  UNL1        0.1501
     19 C           6.0746   -3.4983   21.9690 C.3     1  UNL1        0.1166
     20 C           4.8668   -2.7062   21.5645 C.ar    1  UNL1       -0.0017
     21 C           4.3254   -2.8234   20.1706 C.ar    1  UNL1       -0.0017
     22 C           3.1174   -2.0313   19.7661 C.ar    1  UNL1        0.0120
     23 C           2.4510   -1.1220   20.7555 C.ar    1  UNL1        0.0682
     24 CL          1.2432   -0.3300   20.3510 Cl      1  UNL1       -0.0814
     25 C           2.9925   -1.0048   22.1495 C.ar    1  UNL1        0.0679
     26 CL          2.3260   -0.0955   23.1389 Cl      1  UNL1       -0.0814
     27 C           4.2003   -1.7969   22.5540 C.ar    1  UNL1        0.0096
@<TRIPOS>BOND
     1     1     2    1
     2     2     3   ar
     3     3     4   ar
     4     4     5   ar
     5     5     6    1
     6     5     7   ar
     7     7     8   ar
     8     8    15    1
     9    15    16    2
    10    15    17   am
    11    17    19    1
    12    19    20    1
    13    20    21   ar
    14    21    22   ar
    15    22    23   ar
    16    23    24    1
    17    23    25   ar
    18    25    26    1
    19    25    27   ar
    20     8     9   ar
    21     9    10   ar
    22    10    11   ar
    23    11     2   ar
    24    10     4   ar
    25    27    20   ar
    26     1    12    1
    27     1    13    1
    28     6    14    1
    29    17    18    1
@<TRIPOS>MOLECULE
*****
 27 29 0 0 0
SMALL
GASTEIGER

@<TRIPOS>ATOM
      1 N           1.8826    3.1540   19.5718 N.pl3   1  UNL1       -0.3375
      2 C           2.6332    1.8643   19.4194 C.ar    1  UNL1        0.1568
      3 N           2.8060    1.0898   18.1465 N.ar    1  UNL1       -0.2214
      4 C           3.6224   -0.1306   18.4535 C.ar    1  UNL1        0.1227
      5 C           4.1066   -1.2576   17.5902 C.ar    1  UNL1        0.1518
      6 O           3.7748   -1.2778   16.1274 O.3     1  UNL1       -0.5040
      7 C           4.9225   -2.3644   18.1895 C.ar    1  UNL1        0.0427
      8 C           5.2542   -2.3442   19.6522 C.ar    1  UNL1        0.0570
      9 C           4.7700   -1.2171   20.5156 C.ar    1  UNL1        0.0128
     10 C           3.9541   -0.1103   19.9162 C.ar    1  UNL1        0.0528
     11 S           3.3428    1.1225   20.5132 S.2     1  UNL1       -0.0519
     12 H           1.4477    3.5657   18.7904 H       1  UNL1        0.1442
     13 H           1.8248    3.5887   20.4532 H       1  UNL1        0.1442
     14 H           3.2652   -0.5864   15.7530 H       1  UNL1        0.2923
     15 C           6.0701   -3.4510   20.2516 C.2     1  UNL1        0.2462
     16 O           5.6379   -4.8775   20.0828 O.2     1  UNL1       -0.2701
     17 N           7.3182   -3.1314   21.0198 N.am    1  UNL1       -0.2969
     18 H           7.6018   -2.1951   21.1306 H       1  UNL1        0.1501
     19 C           8.1341   -4.2382   21.6192 C.3     1  UNL1        0.1166
     20 C           7.8216   -4.7381   22.9985 C.ar    1  UNL1       -0.0017
     21 C           6.9824   -3.9086   23.9246 C.ar    1  UNL1       -0.0017
     22 C           6.6698   -4.4086   25.3039 C.ar    1  UNL1        0.0120
     23 C           7.1965   -5.7379   25.7570 C.ar    1  UNL1        0.0682
     24 CL          6.8840   -6.2378   27.1363 Cl      1  UNL1       -0.0814
     25 C           8.0357   -6.5674   24.8309 C.ar    1  UNL1        0.0679
     26 CL          8.5624   -7.8968   25.2840 Cl      1  UNL1       -0.0814
     27 C           8.3483   -6.0675   23.4516 C.ar    1  UNL1        0.0096
@<TRIPOS>BOND
     1     1     2    1
     2     2     3   ar
     3     3     4   ar
     4     4     5   ar
     5     5     6    1
     6     5     7   ar
     7     7     8   ar
     8     8    15    1
     9    15    16    2
    10    15    17   am
    11    17    19    1
    12    19    20    1
    13    20    21   ar
    14    21    22   ar
    15    22    23   ar
    16    23    24    1
    17    23    25   ar
    18    25    26    1
    19    25    27   ar
    20     8     9   ar
    21     9    10   ar
    22    10    11   ar
    23    11     2   ar
    24    10     4   ar
    25    27    20   ar
    26     1    12    1
    27     1    13    1
    28     6    14    1
    29    17    18    1
@<TRIPOS>MOLECULE
*****
 27 29 0 0 0
SMALL
GASTEIGER

@<TRIPOS>ATOM
      1 N           6.6547   -4.0903   30.5845 N.pl3   1  UNL1       -0.3375
      2 C           6.9353   -4.6777   29.2331 C.ar    1  UNL1        0.1568
      3 N           7.0432   -6.1390   28.9120 N.ar    1  UNL1       -0.2214
      4 C           7.3318   -6.2714   27.4460 C.ar    1  UNL1        0.1227
      5 C           7.5396   -7.4698   26.5682 C.ar    1  UNL1        0.1518
      6 O           7.4690   -8.8492   27.1531 O.3     1  UNL1       -0.5040
      7 C           7.8179   -7.2888   25.1053 C.ar    1  UNL1        0.0427
      8 C           7.8884   -5.9093   24.5204 C.ar    1  UNL1        0.0570
      9 C           7.6807   -4.7109   25.3983 C.ar    1  UNL1        0.0128
     10 C           7.4024   -4.8919   26.8610 C.ar    1  UNL1        0.0528
     11 S           7.1573   -3.9070   27.9656 S.2     1  UNL1       -0.0519
     12 H           6.5225   -4.6817   31.3604 H       1  UNL1        0.1442
     13 H           6.6027   -3.1135   30.6955 H       1  UNL1        0.1442
     14 H           7.2952   -8.9623   28.0669 H       1  UNL1        0.2923
     15 C           8.1667   -5.7283   23.0576 C.2     1  UNL1        0.2462
     16 O           8.6124   -6.8963   22.2287 O.2     1  UNL1       -0.2701
     17 N           7.9993   -4.3792   22.4237 N.am    1  UNL1       -0.2969
     18 H           7.7067   -3.6126   22.9677 H       1  UNL1        0.1501
     19 C           8.2775   -4.1981   20.9608 C.3     1  UNL1        0.1166
     20 C           7.2751   -3.5042   20.0870 C.ar    1  UNL1       -0.0017
     21 C           7.7172   -2.4091   19.1621 C.ar    1  UNL1       -0.0017
     22 C           6.7147   -1.7152   18.2882 C.ar    1  UNL1        0.0120
     23 C           5.2703   -2.1164   18.3392 C.ar    1  UNL1        0.0682
     24 CL          4.2679   -1.4225   17.4654 Cl      1  UNL1       -0.0814
     25 C           4.8282   -3.2115   19.2641 C.ar    1  UNL1        0.0679
     26 CL          3.3838   -3.6127   19.3152 Cl      1  UNL1       -0.0814
     27 C           5.8306   -3.9054   20.1380 C.ar    1  UNL1        0.0096
@<TRIPOS>BOND
     1     1     2    1
     2     2     3   ar
     3     3     4   ar
     4     4     5   ar
     5     5     6    1
     6     5     7   ar
     7     7     8   ar
     8     8    15    1
     9    15    16    2
    10    15    17   am
    11    17    19    1
    12    19    20    1
    13    20    21   ar
    14    21    22   ar
    15    22    23   ar
    16    23    24    1
    17    23    25   ar
    18    25    26    1
    19    25    27   ar
    20     8     9   ar
    21     9    10   ar
    22    10    11   ar
    23    11     2   ar
    24    10     4   ar
    25    27    20   ar
    26     1    12    1
    27     1    13    1
    28     6    14    1
    29    17    18    1
@<TRIPOS>MOLECULE
*****
 27 29 0 0 0
SMALL
GASTEIGER

@<TRIPOS>ATOM
      1 N           6.5997   -4.7636   32.1074 N.pl3   1  UNL1       -0.3375
      2 C           6.9426   -5.1466   30.6982 C.ar    1  UNL1        0.1568
      3 N           7.7194   -6.3591   30.2783 N.ar    1  UNL1       -0.2214
      4 C           7.8258   -6.3462   28.7821 C.ar    1  UNL1        0.1227
      5 C           8.4783   -7.2882   27.8141 C.ar    1  UNL1        0.1518
      6 O           9.1893   -8.5087   28.3189 O.3     1  UNL1       -0.5040
      7 C           8.4198   -7.0096   26.3413 C.ar    1  UNL1        0.0427
      8 C           7.7088   -5.7891   25.8366 C.ar    1  UNL1        0.0570
      9 C           7.0563   -4.8471   26.8046 C.ar    1  UNL1        0.0128
     10 C           7.1148   -5.1257   28.2773 C.ar    1  UNL1        0.0528
     11 S           6.5690   -4.3843   29.4616 S.2     1  UNL1       -0.0519
     12 H           6.8913   -5.3317   32.8567 H       1  UNL1        0.1442
     13 H           6.0830   -3.9442   32.2829 H       1  UNL1        0.1442
     14 H           9.2259   -8.6827   29.2389 H       1  UNL1        0.2923
     15 C           7.6503   -5.5105   24.3639 C.2     1  UNL1        0.2462
     16 O           8.0615   -6.5687   23.3835 O.2     1  UNL1       -0.2701
     17 N           7.1806   -4.1737   23.8716 N.am    1  UNL1       -0.2969
     18 H           6.9107   -3.4792   24.5151 H       1  UNL1        0.1501
     19 C           7.1221   -3.8951   22.3988 C.3     1  UNL1        0.1166
     20 C           5.8985   -3.2645   21.8029 C.ar    1  UNL1       -0.0017
     21 C           5.4147   -1.9388   22.3113 C.ar    1  UNL1       -0.0017
     22 C           4.1910   -1.3082   21.7153 C.ar    1  UNL1        0.0120
     23 C           3.4513   -2.0033   20.6109 C.ar    1  UNL1        0.0682
     24 CL          2.2277   -1.3727   20.0150 Cl      1  UNL1       -0.0814
     25 C           3.9351   -3.3290   20.1025 C.ar    1  UNL1        0.0679
     26 CL          3.1954   -4.0241   18.9982 Cl      1  UNL1       -0.0814
     27 C           5.1587   -3.9596   20.6985 C.ar    1  UNL1        0.0096
@<TRIPOS>BOND
     1     1     2    1
     2     2     3   ar
     3     3     4   ar
     4     4     5   ar
     5     5     6    1
     6     5     7   ar
     7     7     8   ar
     8     8    15    1
     9    15    16    2
    10    15    17   am
    11    17    19    1
    12    19    20    1
    13    20    21   ar
    14    21    22   ar
    15    22    23   ar
    16    23    24    1
    17    23    25   ar
    18    25    26    1
    19    25    27   ar
    20     8     9   ar
    21     9    10   ar
    22    10    11   ar
    23    11     2   ar
    24    10     4   ar
    25    27    20   ar
    26     1    12    1
    27     1    13    1
    28     6    14    1
    29    17    18    1
@<TRIPOS>MOLECULE
*****
 27 29 0 0 0
SMALL
GASTEIGER

@<TRIPOS>ATOM
      1 N           7.0092   -4.6897   23.4777 N.pl3   1  UNL1       -0.3375
      2 C           5.9576   -3.8767   22.7825 C.ar    1  UNL1        0.1568
      3 N           5.5376   -4.0187   21.3495 N.ar    1  UNL1       -0.2214
      4 C           4.4619   -3.0087   21.0795 C.ar    1  UNL1        0.1227
      5 C           3.6736   -2.6878   19.8444 C.ar    1  UNL1        0.1518
      6 O           3.9184   -3.4539   18.5783 O.3     1  UNL1       -0.5040
      7 C           2.6405   -1.6006   19.8753 C.ar    1  UNL1        0.0427
      8 C           2.3958   -0.8344   21.1414 C.ar    1  UNL1        0.0570
      9 C           3.1841   -1.1554   22.3766 C.ar    1  UNL1        0.0128
     10 C           4.2171   -2.2425   22.3456 C.ar    1  UNL1        0.0528
     11 S           5.1415   -2.7790   23.3981 S.2     1  UNL1       -0.0519
     12 H           7.4934   -5.3920   22.9862 H       1  UNL1        0.1442
     13 H           7.2151   -4.5210   24.4255 H       1  UNL1        0.1442
     14 H           4.5637   -4.1331   18.5589 H       1  UNL1        0.2923
     15 C           1.3628    0.2527   21.1724 C.2     1  UNL1        0.2462
     16 O           0.0004    0.0095   20.5937 O.2     1  UNL1       -0.2701
     17 N           1.6921    1.5830   21.7821 N.am    1  UNL1       -0.2969
     18 H           2.5863    1.7426   22.1619 H       1  UNL1        0.1501
     19 C           0.6591    2.6702   21.8131 C.3     1  UNL1        0.1166
     20 C          -0.2146    2.8405   23.0204 C.ar    1  UNL1       -0.0017
     21 C          -1.3927    3.7675   22.9690 C.ar    1  UNL1       -0.0017
     22 C          -2.2664    3.9377   24.1764 C.ar    1  UNL1        0.0120
     23 C          -1.9619    3.1809   25.4352 C.ar    1  UNL1        0.0682
     24 CL         -2.8355    3.3512   26.6425 Cl      1  UNL1       -0.0814
     25 C          -0.7838    2.2539   25.4866 C.ar    1  UNL1        0.0679
     26 CL         -0.4793    1.4971   26.7454 Cl      1  UNL1       -0.0814
     27 C           0.0899    2.0837   24.2793 C.ar    1  UNL1        0.0096
@<TRIPOS>BOND
     1     1     2    1
     2     2     3   ar
     3     3     4   ar
     4     4     5   ar
     5     5     6    1
     6     5     7   ar
     7     7     8   ar
     8     8    15    1
     9    15    16    2
    10    15    17   am
    11    17    19    1
    12    19    20    1
    13    20    21   ar
    14    21    22   ar
    15    22    23   ar
    16    23    24    1
    17    23    25   ar
    18    25    26    1
    19    25    27   ar
    20     8     9   ar
    21     9    10   ar
    22    10    11   ar
    23    11     2   ar
    24    10     4   ar
    25    27    20   ar
    26     1    12    1
    27     1    13    1
    28     6    14    1
    29    17    18    1
@<TRIPOS>MOLECULE
*****
 27 29 0 0 0
SMALL
GASTEIGER

@<TRIPOS>ATOM
      1 N          -9.4859   -8.0590   19.0448 N.pl3   1  UNL1       -0.3375
      2 C         -10.4725   -6.9296   19.0119 C.ar    1  UNL1        0.1568
      3 N         -11.9570   -7.0501   19.1906 N.ar    1  UNL1       -0.2214
      4 C         -12.5498   -5.6764   19.0836 C.ar    1  UNL1        0.1227
      5 C         -13.9632   -5.1831   19.1775 C.ar    1  UNL1        0.1518
      6 O         -15.0813   -6.1526   19.4223 O.3     1  UNL1       -0.5040
      7 C         -14.2587   -3.7202   19.0266 C.ar    1  UNL1        0.0427
      8 C         -13.1406   -2.7506   18.7818 C.ar    1  UNL1        0.0570
      9 C         -11.7271   -3.2440   18.6880 C.ar    1  UNL1        0.0128
     10 C         -11.4317   -4.7068   18.8389 C.ar    1  UNL1        0.0528
     11 S         -10.1479   -5.4813   18.7945 S.2     1  UNL1       -0.0519
     12 H          -9.7977   -8.9807   19.1947 H       1  UNL1        0.1442
     13 H          -8.5267   -7.8785   18.9165 H       1  UNL1        0.1442
     14 H         -14.8967   -7.0665   19.5165 H       1  UNL1        0.2923
     15 C         -13.4360   -1.2878   18.6310 C.2     1  UNL1        0.2462
     16 O         -12.3105   -0.2985   18.5628 O.2     1  UNL1       -0.2701
     17 N         -14.8568   -0.8142   18.5482 N.am    1  UNL1       -0.2969
     18 H         -15.5955   -1.4635   18.5930 H       1  UNL1        0.1501
     19 C         -15.1523    0.6487   18.3973 C.3     1  UNL1        0.1166
     20 C         -15.7837    1.4067   19.5272 C.ar    1  UNL1       -0.0017
     21 C         -16.7413    0.7152   20.4517 C.ar    1  UNL1       -0.0017
     22 C         -17.3728    1.4734   21.5816 C.ar    1  UNL1        0.0120
     23 C         -17.0466    2.9230   21.7869 C.ar    1  UNL1        0.0682
     24 CL        -17.6780    3.6810   22.9168 Cl      1  UNL1       -0.0814
     25 C         -16.0889    3.6145   20.8624 C.ar    1  UNL1        0.0679
     26 CL        -15.7627    5.0641   21.0678 Cl      1  UNL1       -0.0814
     27 C         -15.4575    2.8564   19.7326 C.ar    1  UNL1        0.0096
@<TRIPOS>BOND
     1     1     2    1
     2     2     3   ar
     3     3     4   ar
     4     4     5   ar
     5     5     6    1
     6     5     7   ar
     7     7     8   ar
     8     8    15    1
     9    15    16    2
    10    15    17   am
    11    17    19    1
    12    19    20    1
    13    20    21   ar
    14    21    22   ar
    15    22    23   ar
    16    23    24    1
    17    23    25   ar
    18    25    26    1
    19    25    27   ar
    20     8     9   ar
    21     9    10   ar
    22    10    11   ar
    23    11     2   ar
    24    10     4   ar
    25    27    20   ar
    26     1    12    1
    27     1    13    1
    28     6    14    1
    29    17    18    1
