@<TRIPOS>MOLECULE
*****
 30 34 0 0 0
SMALL
GASTEIGER

@<TRIPOS>ATOM
      1 C          -6.2316  -18.2711   22.3857 C.3     1  UNL1        0.1420
      2 C          -7.0837  -19.1632   21.5325 C.3     1  UNL1        0.0268
      3 C          -6.4409  -20.1541   20.6080 C.3     1  UNL1        0.0021
      4 C          -4.9458  -20.2529   20.5366 C.3     1  UNL1        0.0027
      5 C          -4.0937  -19.3608   21.3898 C.3     1  UNL1        0.0352
      6 C          -3.1171  -18.5393   22.1782 C.3     1  UNL1        0.0347
      7 C          -1.7326  -18.9693   21.7931 C.3     1  UNL1        0.1422
      8 O          -1.8535  -20.0564   20.7667 O.3     1  UNL1       -0.3538
      9 C          -3.3127  -20.2984   20.5174 C.3     1  UNL1        0.1423
     10 C          -4.7365  -18.3699   22.3143 C.3     1  UNL1        0.0709
     11 C          -3.8843  -17.4778   23.1675 C.3     1  UNL1        0.2075
     12 O          -4.5271  -16.4869   24.0921 O.3     1  UNL1       -0.4733
     13 C          -6.0222  -16.3880   24.1635 C.ar    1  UNL1        0.1654
     14 C          -6.6651  -15.3971   25.0881 C.ar    1  UNL1        0.1737
     15 F          -5.8129  -14.5050   25.9412 F       1  UNL1       -0.2010
     16 C          -8.1601  -15.2984   25.1595 C.ar    1  UNL1        0.0351
     17 C          -9.0123  -16.1905   24.3063 C.ar    1  UNL1        0.0319
     18 C          -8.3694  -17.1814   23.3817 C.ar    1  UNL1        0.1407
     19 F          -9.4950  -17.8947   22.6931 F       1  UNL1       -0.2043
     20 C          -6.8744  -17.2802   23.3103 C.ar    1  UNL1        0.0616
     21 O          -8.0528  -16.9822   21.6042 O.2     1  UNL1       -0.1684
     22 S          -7.7266  -18.1723   22.4572 S.O2    1  UNL1        0.0093
     23 O          -8.1169  -18.7115   22.8958 O.2     1  UNL1       -0.1684
     24 C          -9.2216  -18.0734   22.5286 C.ar    1  UNL1        0.1059
     25 C          -9.9606  -17.1807   21.5761 C.ar    1  UNL1        0.0192
     26 C         -11.4555  -17.0818   21.6475 C.ar    1  UNL1        0.0127
     27 C         -12.2117  -17.8755   22.6713 C.ar    1  UNL1        0.0578
     28 CL        -13.7067  -17.7767   22.7428 Cl      1  UNL1       -0.0822
     29 C         -11.4727  -18.7682   23.6238 C.ar    1  UNL1        0.0127
     30 C          -9.9777  -18.8671   23.5524 C.ar    1  UNL1        0.0192
@<TRIPOS>BOND
     1    21    22    2
     2    22    23    2
     3    22    24    1
     4    24    25   ar
     5    25    26   ar
     6    26    27   ar
     7    27    28    1
     8    27    29   ar
     9    29    30   ar
    10     1    22    1
    11     1     2    1
    12     2     3    1
    13     3     4    1
    14     5     4    1
    15     5     6    1
    16     6     7    1
    17     7     8    1
    18     8     9    1
    19     5    10    1
    20    10    11    1
    21    11    12    1
    22    12    13    1
    23    13    14   ar
    24    14    15    1
    25    14    16   ar
    26    16    17   ar
    27    17    18   ar
    28    18    19    1
    29    18    20   ar
    30    30    24   ar
    31    10     1    1
    32    20    13   ar
    33    20     1    1
    34     9     5    1
@<TRIPOS>MOLECULE
*****
 30 34 0 0 0
SMALL
GASTEIGER

@<TRIPOS>ATOM
      1 C          -6.4801  -18.5926   21.6822 C.3     1  UNL1        0.1420
      2 C          -6.7262  -17.5937   22.7738 C.3     1  UNL1        0.0268
      3 C          -5.5759  -17.0591   23.5744 C.3     1  UNL1        0.0021
      4 C          -4.1796  -17.5234   23.2834 C.3     1  UNL1        0.0027
      5 C          -3.9335  -18.5223   22.1918 C.3     1  UNL1        0.0352
      6 C          -3.5351  -19.5115   21.1370 C.3     1  UNL1        0.0347
      7 C          -2.0458  -19.6794   21.1979 C.3     1  UNL1        0.1422
      8 O          -1.5237  -18.7940   22.2904 O.3     1  UNL1       -0.3538
      9 C          -2.6904  -18.0788   22.9047 C.3     1  UNL1        0.1423
     10 C          -5.0838  -19.0569   21.3912 C.3     1  UNL1        0.0709
     11 C          -4.8377  -20.0558   20.2996 C.3     1  UNL1        0.2075
     12 O          -5.9879  -20.5904   19.4989 O.3     1  UNL1       -0.4733
     13 C          -7.3843  -20.1262   19.7898 C.ar    1  UNL1        0.1654
     14 C          -8.5345  -20.6608   18.9892 C.ar    1  UNL1        0.1737
     15 F          -8.2885  -21.6597   17.8976 F       1  UNL1       -0.2010
     16 C          -9.9309  -20.1965   19.2801 C.ar    1  UNL1        0.0351
     17 C         -10.1770  -19.1976   20.3717 C.ar    1  UNL1        0.0319
     18 C          -9.0267  -18.6630   21.1724 C.ar    1  UNL1        0.1407
     19 F          -9.6213  -17.7036   22.1603 F       1  UNL1       -0.2043
     20 C          -7.6304  -19.1273   20.8814 C.ar    1  UNL1        0.0616
     21 O          -7.9022  -16.7163   21.4674 O.2     1  UNL1       -0.1684
     22 S          -7.8765  -18.1283   21.9730 S.O2    1  UNL1        0.0093
     23 O          -8.3759  -18.6409   22.3242 O.2     1  UNL1       -0.1684
     24 C          -9.2728  -17.6640   22.2639 C.ar    1  UNL1        0.1059
     25 C         -10.0918  -18.3597   23.3105 C.ar    1  UNL1        0.0192
     26 C         -11.4881  -17.8954   23.6014 C.ar    1  UNL1        0.0127
     27 C         -12.0655  -16.7355   22.8457 C.ar    1  UNL1        0.0578
     28 CL        -13.4619  -16.2711   23.1365 Cl      1  UNL1       -0.0822
     29 C         -11.2466  -16.0399   21.7990 C.ar    1  UNL1        0.0127
     30 C          -9.8502  -16.5041   21.5082 C.ar    1  UNL1        0.0192
@<TRIPOS>BOND
     1    21    22    2
     2    22    23    2
     3    22    24    1
     4    24    25   ar
     5    25    26   ar
     6    26    27   ar
     7    27    28    1
     8    27    29   ar
     9    29    30   ar
    10     1    22    1
    11     1     2    1
    12     2     3    1
    13     3     4    1
    14     5     4    1
    15     5     6    1
    16     6     7    1
    17     7     8    1
    18     8     9    1
    19     5    10    1
    20    10    11    1
    21    11    12    1
    22    12    13    1
    23    13    14   ar
    24    14    15    1
    25    14    16   ar
    26    16    17   ar
    27    17    18   ar
    28    18    19    1
    29    18    20   ar
    30    30    24   ar
    31    10     1    1
    32    20    13   ar
    33    20     1    1
    34     9     5    1
