@<TRIPOS>MOLECULE
*****
 33 36 0 0 0
SMALL
GASTEIGER

@<TRIPOS>ATOM
      1 C          -6.1803  -17.6512   22.6317 C.ar    1  UNL1        0.1462
      2 N          -7.6437  -17.4662   22.9042 N.ar    1  UNL1       -0.2119
      3 C          -8.6473  -18.3762   22.2606 C.ar    1  UNL1        0.1515
      4 C          -8.1876  -19.4714   21.3444 C.ar    1  UNL1        0.0388
      5 C          -6.7242  -19.6564   21.0719 C.ar    1  UNL1        0.0187
      6 C          -5.9784  -20.6405   20.2203 C.ar    1  UNL1       -0.0086
      7 C          -6.5899  -21.7345   19.3960 C.3     1  UNL1        0.0322
      8 C          -4.5138  -20.3387   20.3377 C.ar    1  UNL1        0.0336
      9 C          -3.4035  -21.0778   19.6513 C.3     1  UNL1        0.0497
     10 N          -4.3544  -19.1680   21.2618 N.ar    1  UNL1       -0.3262
     11 C          -5.7206  -18.7463   21.7156 C.ar    1  UNL1        0.0913
     12 N         -10.1108  -18.1912   22.5330 N.ar    1  UNL1       -0.2577
     13 C         -10.6883  -18.6184   23.8498 C.ar    1  UNL1        0.0844
     14 C         -12.1517  -18.4334   24.1223 C.ar    1  UNL1        0.0193
     15 C         -13.0376  -17.8212   23.0780 C.ar    1  UNL1        0.0064
     16 C         -12.4600  -17.3941   21.7612 C.ar    1  UNL1        0.0612
     17 C         -10.9966  -17.5791   21.4887 C.ar    1  UNL1        0.2659
     18 O         -10.4190  -17.1519   20.1720 O.2     1  UNL1       -0.2666
     19 N          -5.1765  -16.7411   23.2754 N.pl3   1  UNL1       -0.3133
     20 H          -4.2216  -16.9803   23.2716 H       1  UNL1        0.1485
     21 C          -5.6279  -15.4666   23.9250 C.3     1  UNL1        0.1148
     22 C          -4.4764  -16.3279   26.5579 C.3     1  UNL1        0.0307
     23 C          -5.9234  -15.9449   26.4615 C.ar    1  UNL1       -0.0245
     24 C          -6.7947  -15.9925   27.6816 C.ar    1  UNL1       -0.0045
     25 C          -8.2418  -15.6095   27.5852 C.ar    1  UNL1       -0.0007
     26 C          -8.8176  -15.1789   26.2688 C.ar    1  UNL1       -0.0045
     27 C          -7.9463  -15.1312   25.0487 C.ar    1  UNL1       -0.0245
     28 C          -8.5221  -14.7006   23.7323 C.3     1  UNL1        0.0307
     29 C          -6.4992  -15.5142   25.1450 C.ar    1  UNL1       -0.0105
     30 C          -3.0568  -18.5308   21.6619 C.3     1  UNL1        0.1374
     31 C          -2.5412  -17.3413   20.9074 C.3     1  UNL1        0.1616
     32 O          -2.6675  -15.9674   21.4959 O.3     1  UNL1       -0.3799
     33 H          -3.6052  -15.7268   21.5571 H       1  UNL1        0.2105
@<TRIPOS>BOND
     1    22    23    1
     2    23    24   ar
     3    24    25   ar
     4    25    26   ar
     5    26    27   ar
     6    27    28    1
     7    27    29   ar
     8    29    21    1
     9    21    19    1
    10    19     1    1
    11     1     2   ar
    12     2     3   ar
    13     3    12    1
    14    12    13   ar
    15    13    14   ar
    16    14    15   ar
    17    15    16   ar
    18    16    17   ar
    19    17    18    2
    20     3     4   ar
    21     4     5   ar
    22     5     6   ar
    23     6     7    1
    24     6     8   ar
    25     8     9    1
    26     8    10   ar
    27    10    30    1
    28    30    31    1
    29    31    32    1
    30    10    11   ar
    31    29    23   ar
    32    11     1   ar
    33    17    12   ar
    34    11     5   ar
    35    19    20    1
    36    32    33    1
@<TRIPOS>MOLECULE
*****
 33 36 0 0 0
SMALL
GASTEIGER

@<TRIPOS>ATOM
      1 C          -6.1952  -17.6662   22.6331 C.ar    1  UNL1        0.1462
      2 N          -7.6583  -17.4757   22.9032 N.ar    1  UNL1       -0.2119
      3 C          -8.6645  -18.3799   22.2553 C.ar    1  UNL1        0.1515
      4 C          -8.2076  -19.4747   21.3373 C.ar    1  UNL1        0.0388
      5 C          -6.7445  -19.6653   21.0673 C.ar    1  UNL1        0.0187
      6 C          -6.0011  -20.6504   20.2147 C.ar    1  UNL1       -0.0086
      7 C          -6.6156  -21.7398   19.3866 C.3     1  UNL1        0.0322
      8 C          -4.5355  -20.3551   20.3358 C.ar    1  UNL1        0.0336
      9 C          -3.4269  -21.0972   19.6498 C.3     1  UNL1        0.0497
     10 N          -4.3730  -19.1873   21.2631 N.ar    1  UNL1       -0.3262
     11 C          -5.7383  -18.7610   21.7152 C.ar    1  UNL1        0.0913
     12 N         -10.1277  -18.1894   22.5253 N.ar    1  UNL1       -0.2577
     13 C         -10.7093  -18.6154   23.8407 C.ar    1  UNL1        0.0844
     14 C         -12.1724  -18.4249   24.1108 C.ar    1  UNL1        0.0193
     15 C         -13.0540  -17.8084   23.0654 C.ar    1  UNL1        0.0064
     16 C         -12.4724  -17.3824   21.7500 C.ar    1  UNL1        0.0612
     17 C         -11.0092  -17.5729   21.4800 C.ar    1  UNL1        0.2659
     18 O         -10.4277  -17.1469   20.1646 O.2     1  UNL1       -0.2666
     19 N          -5.1889  -16.7619   23.2810 N.pl3   1  UNL1       -0.3133
     20 H          -4.2354  -17.0070   23.2818 H       1  UNL1        0.1485
     21 C          -5.6354  -15.4843   23.9277 C.3     1  UNL1        0.1148
     22 C          -8.5292  -14.7179   23.7297 C.3     1  UNL1        0.0307
     23 C          -7.9543  -15.1427   25.0484 C.ar    1  UNL1       -0.0245
     24 C          -8.8264  -15.1844   26.2682 C.ar    1  UNL1       -0.0045
     25 C          -8.2516  -15.6091   27.5870 C.ar    1  UNL1       -0.0007
     26 C          -6.8047  -15.9923   27.6860 C.ar    1  UNL1       -0.0045
     27 C          -5.9327  -15.9507   26.4663 C.ar    1  UNL1       -0.0245
     28 C          -4.4858  -16.3338   26.5653 C.3     1  UNL1        0.0307
     29 C          -6.5075  -15.5259   25.1474 C.ar    1  UNL1       -0.0105
     30 C          -3.0735  -18.5566   21.6673 C.3     1  UNL1        0.1374
     31 C          -2.5510  -17.3680   20.9161 C.3     1  UNL1        0.1616
     32 O          -2.6674  -15.9953   21.5095 O.3     1  UNL1       -0.3799
     33 H          -3.6033  -15.7487   21.5727 H       1  UNL1        0.2105
@<TRIPOS>BOND
     1    22    23    1
     2    23    24   ar
     3    24    25   ar
     4    25    26   ar
     5    26    27   ar
     6    27    28    1
     7    27    29   ar
     8    29    21    1
     9    21    19    1
    10    19     1    1
    11     1     2   ar
    12     2     3   ar
    13     3    12    1
    14    12    13   ar
    15    13    14   ar
    16    14    15   ar
    17    15    16   ar
    18    16    17   ar
    19    17    18    2
    20     3     4   ar
    21     4     5   ar
    22     5     6   ar
    23     6     7    1
    24     6     8   ar
    25     8     9    1
    26     8    10   ar
    27    10    30    1
    28    30    31    1
    29    31    32    1
    30    10    11   ar
    31    29    23   ar
    32    11     1   ar
    33    17    12   ar
    34    11     5   ar
    35    19    20    1
    36    32    33    1
@<TRIPOS>MOLECULE
*****
 33 36 0 0 0
SMALL
GASTEIGER

@<TRIPOS>ATOM
      1 C          -6.7505  -18.1808   22.6017 C.ar    1  UNL1        0.1462
      2 N          -5.4444  -18.3179   21.8770 N.ar    1  UNL1       -0.2119
      3 C          -4.2548  -17.5175   22.3174 C.ar    1  UNL1        0.1515
      4 C          -4.3712  -16.5800   23.4825 C.ar    1  UNL1        0.0388
      5 C          -5.6773  -16.4429   24.2072 C.ar    1  UNL1        0.0187
      6 C          -6.0909  -15.6055   25.3810 C.ar    1  UNL1       -0.0086
      7 C          -5.2132  -14.6525   26.1370 C.3     1  UNL1        0.0322
      8 C          -7.5361  -15.8884   25.6660 C.ar    1  UNL1        0.0336
      9 C          -8.3575  -15.2679   26.7571 C.3     1  UNL1        0.0497
     10 N          -8.0158  -16.9006   24.6684 N.ar    1  UNL1       -0.3262
     11 C          -6.8670  -17.2433   23.7668 C.ar    1  UNL1        0.0913
     12 N          -2.9486  -17.6546   21.5927 N.ar    1  UNL1       -0.2577
     13 C          -2.1380  -16.4343   21.2705 C.ar    1  UNL1        0.0844
     14 C          -0.8318  -16.5713   20.5458 C.ar    1  UNL1        0.0193
     15 C          -0.3362  -17.9287   20.1433 C.ar    1  UNL1        0.0064
     16 C          -1.1468  -19.1490   20.4654 C.ar    1  UNL1        0.0612
     17 C          -2.4530  -19.0119   21.1902 C.ar    1  UNL1        0.2659
     18 O          -3.2636  -20.2322   21.5123 O.2     1  UNL1       -0.2666
     19 N          -7.9403  -18.9813   22.1613 N.pl3   1  UNL1       -0.3133
     20 H          -8.1271  -19.8543   22.5761 H       1  UNL1        0.1485
     21 C          -8.8453  -18.4514   21.0888 C.3     1  UNL1        0.1148
     22 C          -9.1752  -15.4842   21.3832 C.3     1  UNL1        0.0307
     23 C         -10.3478  -16.3943   21.5992 C.ar    1  UNL1       -0.0245
     24 C         -11.6855  -15.8207   21.9624 C.ar    1  UNL1       -0.0045
     25 C         -12.8581  -16.7308   22.1784 C.ar    1  UNL1       -0.0007
     26 C         -12.6932  -18.2144   22.0312 C.ar    1  UNL1       -0.0045
     27 C         -11.3556  -18.7880   21.6680 C.ar    1  UNL1       -0.0245
     28 C         -11.1906  -20.2716   21.5209 C.3     1  UNL1        0.0307
     29 C         -10.1829  -17.8779   21.4520 C.ar    1  UNL1       -0.0105
     30 C          -9.4011  -17.4701   24.5867 C.3     1  UNL1        0.1374
     31 C          -9.7417  -18.7244   25.3356 C.3     1  UNL1        0.1616
     32 O          -9.5024  -20.0636   24.7038 O.3     1  UNL1       -0.3799
     33 H         -10.0872  -20.1685   23.9370 H       1  UNL1        0.2105
@<TRIPOS>BOND
     1    22    23    1
     2    23    24   ar
     3    24    25   ar
     4    25    26   ar
     5    26    27   ar
     6    27    28    1
     7    27    29   ar
     8    29    21    1
     9    21    19    1
    10    19     1    1
    11     1     2   ar
    12     2     3   ar
    13     3    12    1
    14    12    13   ar
    15    13    14   ar
    16    14    15   ar
    17    15    16   ar
    18    16    17   ar
    19    17    18    2
    20     3     4   ar
    21     4     5   ar
    22     5     6   ar
    23     6     7    1
    24     6     8   ar
    25     8     9    1
    26     8    10   ar
    27    10    30    1
    28    30    31    1
    29    31    32    1
    30    10    11   ar
    31    29    23   ar
    32    11     1   ar
    33    17    12   ar
    34    11     5   ar
    35    19    20    1
    36    32    33    1
@<TRIPOS>MOLECULE
*****
 33 36 0 0 0
SMALL
GASTEIGER

@<TRIPOS>ATOM
      1 C          -6.7540  -18.1750   22.5973 C.ar    1  UNL1        0.1462
      2 N          -5.4489  -18.3135   21.8711 N.ar    1  UNL1       -0.2119
      3 C          -4.2565  -17.5182   22.3134 C.ar    1  UNL1        0.1515
      4 C          -4.3692  -16.5845   23.4819 C.ar    1  UNL1        0.0388
      5 C          -5.6743  -16.4461   24.2082 C.ar    1  UNL1        0.0187
      6 C          -6.0844  -15.6116   25.3852 C.ar    1  UNL1       -0.0086
      7 C          -5.2033  -14.6640   26.1439 C.3     1  UNL1        0.0322
      8 C          -7.5303  -15.8912   25.6704 C.ar    1  UNL1        0.0336
      9 C          -8.3489  -15.2721   26.7644 C.3     1  UNL1        0.0497
     10 N          -8.0138  -16.8984   24.6696 N.ar    1  UNL1       -0.3262
     11 C          -6.8667  -17.2413   23.7659 C.ar    1  UNL1        0.0913
     12 N          -2.9513  -17.6566   21.5871 N.ar    1  UNL1       -0.2577
     13 C          -2.1374  -16.4376   21.2685 C.ar    1  UNL1        0.0844
     14 C          -0.8323  -16.5760   20.5423 C.ar    1  UNL1        0.0193
     15 C          -0.3410  -17.9334   20.1347 C.ar    1  UNL1        0.0064
     16 C          -1.1549  -19.1524   20.4533 C.ar    1  UNL1        0.0612
     17 C          -2.4601  -19.0140   21.1796 C.ar    1  UNL1        0.2659
     18 O          -3.2740  -20.2330   21.4982 O.2     1  UNL1       -0.2666
     19 N          -7.9465  -18.9703   22.1550 N.pl3   1  UNL1       -0.3133
     20 H          -8.1334  -19.8461   22.5640 H       1  UNL1        0.1485
     21 C          -8.8543  -18.4311   21.0896 C.3     1  UNL1        0.1148
     22 C         -11.1868  -20.2639   21.5375 C.3     1  UNL1        0.0307
     23 C         -11.3590  -18.7811   21.6846 C.ar    1  UNL1       -0.0245
     24 C         -12.6975  -18.2146   22.0558 C.ar    1  UNL1       -0.0045
     25 C         -12.8696  -16.7318   22.2029 C.ar    1  UNL1       -0.0007
     26 C         -11.7034  -15.8155   21.9790 C.ar    1  UNL1       -0.0045
     27 C         -10.3650  -16.3819   21.6079 C.ar    1  UNL1       -0.0245
     28 C          -9.1987  -15.4655   21.3839 C.3     1  UNL1        0.0307
     29 C         -10.1927  -17.8647   21.4607 C.ar    1  UNL1       -0.0105
     30 C          -9.4008  -17.4635   24.5870 C.3     1  UNL1        0.1374
     31 C          -9.7428  -18.7231   25.3262 C.3     1  UNL1        0.1616
     32 O          -9.4921  -20.0579   24.6897 O.3     1  UNL1       -0.3799
     33 H         -10.0695  -20.1613   23.9172 H       1  UNL1        0.2105
@<TRIPOS>BOND
     1    22    23    1
     2    23    24   ar
     3    24    25   ar
     4    25    26   ar
     5    26    27   ar
     6    27    28    1
     7    27    29   ar
     8    29    21    1
     9    21    19    1
    10    19     1    1
    11     1     2   ar
    12     2     3   ar
    13     3    12    1
    14    12    13   ar
    15    13    14   ar
    16    14    15   ar
    17    15    16   ar
    18    16    17   ar
    19    17    18    2
    20     3     4   ar
    21     4     5   ar
    22     5     6   ar
    23     6     7    1
    24     6     8   ar
    25     8     9    1
    26     8    10   ar
    27    10    30    1
    28    30    31    1
    29    31    32    1
    30    10    11   ar
    31    29    23   ar
    32    11     1   ar
    33    17    12   ar
    34    11     5   ar
    35    19    20    1
    36    32    33    1
@<TRIPOS>MOLECULE
*****
 33 36 0 0 0
SMALL
GASTEIGER

@<TRIPOS>ATOM
      1 C          -7.1031  -18.3399   21.8260 C.ar    1  UNL1        0.1462
      2 N          -6.8357  -17.6485   23.1300 N.ar    1  UNL1       -0.2119
      3 C          -7.9594  -16.9894   23.8736 C.ar    1  UNL1        0.1515
      4 C          -9.3504  -17.0219   23.3132 C.ar    1  UNL1        0.0388
      5 C          -9.6178  -17.7133   22.0092 C.ar    1  UNL1        0.0187
      6 C         -10.8756  -17.9072   21.2153 C.ar    1  UNL1       -0.0086
      7 C         -12.2401  -17.4096   21.5899 C.3     1  UNL1        0.0322
      8 C         -10.5292  -18.6861   19.9810 C.ar    1  UNL1        0.0336
      9 C         -11.4867  -19.1040   18.9046 C.3     1  UNL1        0.0497
     10 N          -9.0574  -18.9736   20.0121 N.ar    1  UNL1       -0.3262
     11 C          -8.4941  -18.3724   21.2656 C.ar    1  UNL1        0.0913
     12 N          -7.6921  -16.2979   25.1776 N.ar    1  UNL1       -0.2577
     13 C          -8.5166  -16.6307   26.3858 C.ar    1  UNL1        0.0844
     14 C          -8.2493  -15.9392   27.6897 C.ar    1  UNL1        0.0193
     15 C          -7.1576  -14.9150   27.7856 C.ar    1  UNL1        0.0064
     16 C          -6.3332  -14.5822   26.5775 C.ar    1  UNL1        0.0612
     17 C          -6.6004  -15.2737   25.2735 C.ar    1  UNL1        0.2659
     18 O          -5.7760  -14.9410   24.0653 O.2     1  UNL1       -0.2666
     19 N          -5.9793  -18.9990   21.0824 N.pl3   1  UNL1       -0.3133
     20 H          -6.1110  -19.2947   20.1526 H       1  UNL1        0.1485
     21 C          -4.6551  -19.2074   21.7553 C.3     1  UNL1        0.1148
     22 C          -3.4355  -16.9144   23.2570 C.3     1  UNL1        0.0307
     23 C          -2.8180  -17.3831   21.9728 C.ar    1  UNL1       -0.0245
     24 C          -1.5907  -16.7053   21.4394 C.ar    1  UNL1       -0.0045
     25 C          -0.9733  -17.1740   20.1553 C.ar    1  UNL1       -0.0007
     26 C          -1.5831  -18.3205   19.4045 C.ar    1  UNL1       -0.0045
     27 C          -2.8104  -18.9983   19.9378 C.ar    1  UNL1       -0.0245
     28 C          -3.4202  -20.1448   19.1870 C.3     1  UNL1        0.0307
     29 C          -3.4278  -18.5296   21.2220 C.ar    1  UNL1       -0.0105
     30 C          -8.2845  -19.7295   18.9723 C.3     1  UNL1        0.1374
     31 C          -8.7791  -21.0613   18.4910 C.3     1  UNL1        0.1616
     32 O          -9.1078  -21.2601   17.0411 O.3     1  UNL1       -0.3799
     33 H          -9.8697  -20.7087   16.8038 H       1  UNL1        0.2105
@<TRIPOS>BOND
     1    22    23    1
     2    23    24   ar
     3    24    25   ar
     4    25    26   ar
     5    26    27   ar
     6    27    28    1
     7    27    29   ar
     8    29    21    1
     9    21    19    1
    10    19     1    1
    11     1     2   ar
    12     2     3   ar
    13     3    12    1
    14    12    13   ar
    15    13    14   ar
    16    14    15   ar
    17    15    16   ar
    18    16    17   ar
    19    17    18    2
    20     3     4   ar
    21     4     5   ar
    22     5     6   ar
    23     6     7    1
    24     6     8   ar
    25     8     9    1
    26     8    10   ar
    27    10    30    1
    28    30    31    1
    29    31    32    1
    30    10    11   ar
    31    29    23   ar
    32    11     1   ar
    33    17    12   ar
    34    11     5   ar
    35    19    20    1
    36    32    33    1
@<TRIPOS>MOLECULE
*****
 33 36 0 0 0
SMALL
GASTEIGER

@<TRIPOS>ATOM
      1 C          -8.0311  -17.6855   21.7002 C.ar    1  UNL1        0.1462
      2 N          -8.0824  -16.9076   22.9817 N.ar    1  UNL1       -0.2119
      3 C          -6.8852  -16.8699   23.8846 C.ar    1  UNL1        0.1515
      4 C          -5.6366  -17.6100   23.5059 C.ar    1  UNL1        0.0388
      5 C          -5.5853  -18.3878   22.2244 C.ar    1  UNL1        0.0187
      6 C          -4.5016  -19.2096   21.5918 C.ar    1  UNL1       -0.0086
      7 C          -3.1311  -19.4445   22.1543 C.3     1  UNL1        0.0322
      8 C          -5.0291  -19.7553   20.2979 C.ar    1  UNL1        0.0336
      9 C          -4.2785  -20.6317   19.3394 C.3     1  UNL1        0.0497
     10 N          -6.4388  -19.2707   20.1309 N.ar    1  UNL1       -0.3262
     11 C          -6.7825  -18.4255   21.3216 C.ar    1  UNL1        0.0913
     12 N          -6.9365  -16.0920   25.1662 N.ar    1  UNL1       -0.2577
     13 C          -5.7673  -15.2475   25.5782 C.ar    1  UNL1        0.0844
     14 C          -5.8185  -14.4697   26.8597 C.ar    1  UNL1        0.0193
     15 C          -7.0390  -14.5363   27.7292 C.ar    1  UNL1        0.0064
     16 C          -8.2082  -15.3809   27.3172 C.ar    1  UNL1        0.0612
     17 C          -8.1569  -16.1587   26.0356 C.ar    1  UNL1        0.2659
     18 O          -9.3261  -17.0033   25.6236 O.2     1  UNL1       -0.2666
     19 N          -9.2283  -17.7232   20.7973 N.pl3   1  UNL1       -0.3133
     20 H          -9.3059  -17.0806   20.0555 H       1  UNL1        0.1485
     21 C         -10.3073  -18.7402   21.0246 C.3     1  UNL1        0.1148
     22 C          -9.6805  -20.2619   23.5328 C.3     1  UNL1        0.0307
     23 C         -10.8953  -19.3842   23.4719 C.ar    1  UNL1       -0.0245
     24 C         -11.7969  -19.2674   24.6651 C.ar    1  UNL1       -0.0045
     25 C         -13.0117  -18.3896   24.6041 C.ar    1  UNL1       -0.0007
     26 C         -13.3251  -17.6288   23.3500 C.ar    1  UNL1       -0.0045
     27 C         -12.4237  -17.7456   22.1568 C.ar    1  UNL1       -0.0245
     28 C         -12.7370  -16.9847   20.9027 C.3     1  UNL1        0.0307
     29 C         -11.2087  -18.6233   22.2177 C.ar    1  UNL1       -0.0105
     30 C          -7.3455  -19.5774   18.9760 C.3     1  UNL1        0.1374
     31 C          -8.2711  -20.7560   19.0416 C.3     1  UNL1        0.1616
     32 O          -8.9210  -21.2698   17.7912 O.3     1  UNL1       -0.3799
     33 H          -9.5337  -20.6012   17.4471 H       1  UNL1        0.2105
@<TRIPOS>BOND
     1    22    23    1
     2    23    24   ar
     3    24    25   ar
     4    25    26   ar
     5    26    27   ar
     6    27    28    1
     7    27    29   ar
     8    29    21    1
     9    21    19    1
    10    19     1    1
    11     1     2   ar
    12     2     3   ar
    13     3    12    1
    14    12    13   ar
    15    13    14   ar
    16    14    15   ar
    17    15    16   ar
    18    16    17   ar
    19    17    18    2
    20     3     4   ar
    21     4     5   ar
    22     5     6   ar
    23     6     7    1
    24     6     8   ar
    25     8     9    1
    26     8    10   ar
    27    10    30    1
    28    30    31    1
    29    31    32    1
    30    10    11   ar
    31    29    23   ar
    32    11     1   ar
    33    17    12   ar
    34    11     5   ar
    35    19    20    1
    36    32    33    1
@<TRIPOS>MOLECULE
*****
 33 36 0 0 0
SMALL
GASTEIGER

@<TRIPOS>ATOM
      1 C          -8.1434  -17.7177   21.7063 C.ar    1  UNL1        0.1462
      2 N          -8.2385  -16.9610   22.9979 N.ar    1  UNL1       -0.2119
      3 C          -7.0599  -16.9070   23.9241 C.ar    1  UNL1        0.1515
      4 C          -5.7861  -17.6097   23.5587 C.ar    1  UNL1        0.0388
      5 C          -5.6909  -18.3665   22.2671 C.ar    1  UNL1        0.0187
      6 C          -4.5750  -19.1512   21.6434 C.ar    1  UNL1       -0.0086
      7 C          -3.2098  -19.3602   22.2287 C.3     1  UNL1        0.0322
      8 C          -5.0640  -19.6902   20.3318 C.ar    1  UNL1        0.0336
      9 C          -4.2735  -20.5329   19.3751 C.3     1  UNL1        0.0497
     10 N          -6.4821  -19.2386   20.1448 N.ar    1  UNL1       -0.3262
     11 C          -6.8695  -18.4205   21.3409 C.ar    1  UNL1        0.0913
     12 N          -7.1551  -16.1502   25.2157 N.ar    1  UNL1       -0.2577
     13 C          -8.3228  -16.3721   26.1307 C.ar    1  UNL1        0.0844
     14 C          -8.4179  -15.6154   27.4223 C.ar    1  UNL1        0.0193
     15 C          -7.3454  -14.6367   27.7990 C.ar    1  UNL1        0.0064
     16 C          -6.1777  -14.4147   26.8840 C.ar    1  UNL1        0.0612
     17 C          -6.0826  -15.1715   25.5923 C.ar    1  UNL1        0.2659
     18 O          -4.9149  -14.9495   24.6773 O.2     1  UNL1       -0.2666
     19 N          -9.3220  -17.7717   20.7800 N.pl3   1  UNL1       -0.3133
     20 H          -9.3748  -17.1556   20.0140 H       1  UNL1        0.1485
     21 C         -10.4203  -18.7645   21.0210 C.3     1  UNL1        0.1148
     22 C         -12.8351  -16.9858   20.9528 C.3     1  UNL1        0.0307
     23 C         -12.5004  -17.7484   22.2003 C.ar    1  UNL1       -0.0245
     24 C         -13.3731  -17.6217   23.4137 C.ar    1  UNL1       -0.0045
     25 C         -13.0384  -18.3844   24.6612 C.ar    1  UNL1       -0.0007
     26 C         -11.8310  -19.2738   24.6953 C.ar    1  UNL1       -0.0045
     27 C         -10.9583  -19.4005   23.4819 C.ar    1  UNL1       -0.0245
     28 C          -9.7509  -20.2899   23.5160 C.3     1  UNL1        0.0307
     29 C         -11.2930  -18.6378   22.2344 C.ar    1  UNL1       -0.0105
     30 C          -7.3588  -19.5503   18.9683 C.3     1  UNL1        0.1374
     31 C          -8.2753  -20.7371   19.0095 C.3     1  UNL1        0.1616
     32 O          -9.0507  -21.1288   17.7867 O.3     1  UNL1       -0.3799
     33 H          -9.6940  -20.4342   17.5756 H       1  UNL1        0.2105
@<TRIPOS>BOND
     1    22    23    1
     2    23    24   ar
     3    24    25   ar
     4    25    26   ar
     5    26    27   ar
     6    27    28    1
     7    27    29   ar
     8    29    21    1
     9    21    19    1
    10    19     1    1
    11     1     2   ar
    12     2     3   ar
    13     3    12    1
    14    12    13   ar
    15    13    14   ar
    16    14    15   ar
    17    15    16   ar
    18    16    17   ar
    19    17    18    2
    20     3     4   ar
    21     4     5   ar
    22     5     6   ar
    23     6     7    1
    24     6     8   ar
    25     8     9    1
    26     8    10   ar
    27    10    30    1
    28    30    31    1
    29    31    32    1
    30    10    11   ar
    31    29    23   ar
    32    11     1   ar
    33    17    12   ar
    34    11     5   ar
    35    19    20    1
    36    32    33    1
@<TRIPOS>MOLECULE
*****
 33 36 0 0 0
SMALL
GASTEIGER

@<TRIPOS>ATOM
      1 C          -7.1121  -18.5142   21.7211 C.ar    1  UNL1        0.1462
      2 N          -6.8451  -17.8197   23.0235 N.ar    1  UNL1       -0.2119
      3 C          -7.9589  -17.1152   23.7399 C.ar    1  UNL1        0.1515
      4 C          -9.3397  -17.1053   23.1539 C.ar    1  UNL1        0.0388
      5 C          -9.6067  -17.7999   21.8515 C.ar    1  UNL1        0.0187
      6 C         -10.8556  -17.9581   21.0359 C.ar    1  UNL1       -0.0086
      7 C         -12.2088  -17.4103   21.3804 C.3     1  UNL1        0.0322
      8 C         -10.5137  -18.7604   19.8155 C.ar    1  UNL1        0.0336
      9 C         -11.4651  -19.1557   18.7252 C.3     1  UNL1        0.0497
     10 N          -9.0535  -19.0980   19.8767 N.ar    1  UNL1       -0.3262
     11 C          -8.4929  -18.5043   21.1351 C.ar    1  UNL1        0.0913
     12 N          -7.6919  -16.4206   25.0423 N.ar    1  UNL1       -0.2577
     13 C          -6.6270  -15.3676   25.1262 C.ar    1  UNL1        0.0844
     14 C          -6.3600  -14.6730   26.4286 C.ar    1  UNL1        0.0193
     15 C          -7.1580  -15.0315   27.6472 C.ar    1  UNL1        0.0064
     16 C          -8.2229  -16.0845   27.5633 C.ar    1  UNL1        0.0612
     17 C          -8.4899  -16.7791   26.2608 C.ar    1  UNL1        0.2659
     18 O          -9.5548  -17.8321   26.1769 O.2     1  UNL1       -0.2666
     19 N          -5.9983  -19.2187   21.0046 N.pl3   1  UNL1       -0.3133
     20 H          -6.1353  -19.5514   20.0882 H       1  UNL1        0.1485
     21 C          -4.6759  -19.4163   21.6845 C.3     1  UNL1        0.1148
     22 C          -3.2049  -19.8054   19.0990 C.3     1  UNL1        0.0307
     23 C          -2.7805  -18.7241   20.0479 C.ar    1  UNL1       -0.0245
     24 C          -1.6205  -17.8373   19.7042 C.ar    1  UNL1       -0.0045
     25 C          -1.1961  -16.7560   20.6531 C.ar    1  UNL1       -0.0007
     26 C          -1.9316  -16.5614   21.9459 C.ar    1  UNL1       -0.0045
     27 C          -3.0915  -17.4481   22.2897 C.ar    1  UNL1       -0.0245
     28 C          -3.8270  -17.2536   23.5824 C.3     1  UNL1        0.0307
     29 C          -3.5160  -18.5295   21.3407 C.ar    1  UNL1       -0.0105
     30 C          -8.2882  -19.8901   18.8585 C.3     1  UNL1        0.1374
     31 C          -8.8474  -21.1807   18.3373 C.3     1  UNL1        0.1616
     32 O          -9.1948  -21.3151   16.8843 O.3     1  UNL1       -0.3799
     33 H          -9.9318  -20.7213   16.6718 H       1  UNL1        0.2105
@<TRIPOS>BOND
     1    22    23    1
     2    23    24   ar
     3    24    25   ar
     4    25    26   ar
     5    26    27   ar
     6    27    28    1
     7    27    29   ar
     8    29    21    1
     9    21    19    1
    10    19     1    1
    11     1     2   ar
    12     2     3   ar
    13     3    12    1
    14    12    13   ar
    15    13    14   ar
    16    14    15   ar
    17    15    16   ar
    18    16    17   ar
    19    17    18    2
    20     3     4   ar
    21     4     5   ar
    22     5     6   ar
    23     6     7    1
    24     6     8   ar
    25     8     9    1
    26     8    10   ar
    27    10    30    1
    28    30    31    1
    29    31    32    1
    30    10    11   ar
    31    29    23   ar
    32    11     1   ar
    33    17    12   ar
    34    11     5   ar
    35    19    20    1
    36    32    33    1
@<TRIPOS>MOLECULE
*****
 33 36 0 0 0
SMALL
GASTEIGER

@<TRIPOS>ATOM
      1 C         -15.0147   -4.7569   19.2986 C.ar    1  UNL1        0.1462
      2 N         -16.0604   -5.7900   18.9998 N.ar    1  UNL1       -0.2119
      3 C         -15.6550   -7.1436   18.4965 C.ar    1  UNL1        0.1515
      4 C         -14.2040   -7.4641   18.2919 C.ar    1  UNL1        0.0388
      5 C         -13.1583   -6.4310   18.5907 C.ar    1  UNL1        0.0187
      6 C         -11.6622   -6.4580   18.4869 C.ar    1  UNL1       -0.0086
      7 C         -10.8313   -7.6182   18.0250 C.3     1  UNL1        0.0322
      8 C         -11.1429   -5.1210   18.9260 C.ar    1  UNL1        0.0336
      9 C          -9.7014   -4.7095   18.9804 C.3     1  UNL1        0.0497
     10 N         -12.3181   -4.2677   19.3012 N.ar    1  UNL1       -0.3262
     11 C         -13.5637   -5.0774   19.0940 C.ar    1  UNL1        0.0913
     12 N         -16.7006   -8.1768   18.1977 N.ar    1  UNL1       -0.2577
     13 C         -17.5510   -8.0496   16.9687 C.ar    1  UNL1        0.0844
     14 C         -18.5966   -9.0827   16.6699 C.ar    1  UNL1        0.0193
     15 C         -18.7919  -10.2432   17.6002 C.ar    1  UNL1        0.0064
     16 C         -17.9415  -10.3704   18.8292 C.ar    1  UNL1        0.0612
     17 C         -16.8958   -9.3372   19.1280 C.ar    1  UNL1        0.2659
     18 O         -16.0454   -9.4644   20.3571 O.2     1  UNL1       -0.2666
     19 N         -15.4201   -3.4032   19.8019 N.pl3   1  UNL1       -0.3133
     20 H         -15.1695   -3.1208   20.7111 H       1  UNL1        0.1485
     21 C         -16.2072   -2.4799   18.9199 C.3     1  UNL1        0.1148
     22 C         -18.9621   -3.0942   19.9364 C.3     1  UNL1        0.0307
     23 C         -18.4195   -1.6993   20.0363 C.ar    1  UNL1       -0.0245
     24 C         -19.2544   -0.6116   20.6445 C.ar    1  UNL1       -0.0045
     25 C         -18.7118    0.7832   20.7444 C.ar    1  UNL1       -0.0007
     26 C         -17.3343    1.0904   20.2362 C.ar    1  UNL1       -0.0045
     27 C         -16.4995    0.0027   19.6280 C.ar    1  UNL1       -0.0245
     28 C         -15.1220    0.3098   19.1198 C.3     1  UNL1        0.0307
     29 C         -17.0421   -1.3922   19.5281 C.ar    1  UNL1       -0.0105
     30 C         -12.2582   -2.8532   19.7967 C.3     1  UNL1        0.1374
     31 C         -12.0418   -1.7280   18.8287 C.3     1  UNL1        0.1616
     32 O         -10.6574   -1.4077   18.3484 O.3     1  UNL1       -0.3799
     33 H         -10.1232   -1.0871   19.0919 H       1  UNL1        0.2105
@<TRIPOS>BOND
     1    22    23    1
     2    23    24   ar
     3    24    25   ar
     4    25    26   ar
     5    26    27   ar
     6    27    28    1
     7    27    29   ar
     8    29    21    1
     9    21    19    1
    10    19     1    1
    11     1     2   ar
    12     2     3   ar
    13     3    12    1
    14    12    13   ar
    15    13    14   ar
    16    14    15   ar
    17    15    16   ar
    18    16    17   ar
    19    17    18    2
    20     3     4   ar
    21     4     5   ar
    22     5     6   ar
    23     6     7    1
    24     6     8   ar
    25     8     9    1
    26     8    10   ar
    27    10    30    1
    28    30    31    1
    29    31    32    1
    30    10    11   ar
    31    29    23   ar
    32    11     1   ar
    33    17    12   ar
    34    11     5   ar
    35    19    20    1
    36    32    33    1
