@<TRIPOS>MOLECULE
*****
 39 44 0 0 0
SMALL
GASTEIGER

@<TRIPOS>ATOM
      1 N           4.8015   -3.0176   20.5078 N.am    1  UNL1       -0.2754
      2 C           3.7084   -1.9921   20.5666 C.3     1  UNL1        0.1202
      3 C           3.0976   -1.1538   21.6503 C.ar    1  UNL1        0.0005
      4 C           2.0363   -0.3457   20.9643 C.ar    1  UNL1        0.0205
      5 C           1.2044    0.6223   21.7521 C.ar    1  UNL1        0.1524
      6 N           1.4337    0.7823   23.2258 N.ar    1  UNL1       -0.2399
      7 C           2.4950   -0.0258   23.9118 C.ar    1  UNL1        0.0983
      8 C           3.3269   -0.9939   23.1240 C.ar    1  UNL1        0.0188
      9 C           4.2621   -1.6060   24.1245 C.2     1  UNL1        0.0527
     10 C           3.9141   -0.9547   25.4302 C.2     1  UNL1        0.1911
     11 N           4.6593   -1.3289   26.6770 N.2     1  UNL1       -0.0723
     12 C           5.7524   -2.3544   26.6182 C.cat   1  UNL1        0.3804
     13 N           6.1003   -3.0057   25.3126 N.pl3   1  UNL1       -0.1554
     14 C           7.1333   -4.0432   24.9862 C.2     1  UNL1        0.2413
     15 N           7.0487   -4.3356   23.5174 N.2     1  UNL1       -0.2277
     16 C           5.9660   -3.4697   22.9821 C.3     1  UNL1        0.2204
     17 C           5.7367   -3.6297   21.5083 C.2     1  UNL1        0.2519
     18 O           6.6588   -4.6383   20.8901 O.2     1  UNL1       -0.2726
     19 C           5.3552   -2.6315   24.0657 C.3     1  UNL1        0.1964
     20 C           0.1430    1.4305   21.0662 C.3     1  UNL1        0.4348
     21 F          -0.9183    2.2386   20.3803 F       1  UNL1       -0.1644
     22 F          -0.1804    0.2593   20.1867 F       1  UNL1       -0.1644
     23 F           0.4664    2.6018   21.9457 F       1  UNL1       -0.1644
     24 C           5.8191   -2.7817   18.1290 C.3     1  UNL1        0.0215
     25 C           5.0080   -3.5578   19.1238 C.3     1  UNL1        0.0758
     26 C           4.4033   -4.8742   18.7346 C.3     1  UNL1        0.0215
     27 N           6.4975   -2.7287   27.8651 N.pl3   1  UNL1       -0.2203
     28 H           6.8867   -3.6286   27.9547 H       1  UNL1        0.2456
     29 C           6.6498   -1.7318   28.9756 C.3     1  UNL1        0.1927
     30 C           6.0632   -2.0182   30.3262 C.ar    1  UNL1        0.0412
     31 C           6.6644   -3.0835   31.1944 C.ar    1  UNL1        0.1391
     32 F           7.8521   -3.8624   30.7119 F       1  UNL1       -0.2044
     33 C           6.0780   -3.3699   32.5449 C.ar    1  UNL1        0.0325
     34 C           4.8903   -2.5909   33.0273 C.ar    1  UNL1        0.0389
     35 C           4.2891   -1.5256   32.1591 C.ar    1  UNL1        0.1346
     36 C           4.8756   -1.2393   30.8086 C.ar    1  UNL1        0.0168
     37 C           4.0746   -0.1381   30.1794 C.3     1  UNL1        0.0766
     38 C           2.9931    0.2561   31.1411 C.3     1  UNL1        0.2101
     39 O           3.1257   -0.6015   32.3646 O.3     1  UNL1       -0.4754
@<TRIPOS>BOND
     1    24    25    1
     2    25    26    1
     3    25     1    1
     4     1     2    1
     5     2     3    1
     6     3     4   ar
     7     4     5   ar
     8     5    20    1
     9    20    21    1
    10    20    22    1
    11    20    23    1
    12     5     6   ar
    13     6     7   ar
    14     7     8   ar
    15     8     9    1
    16     9    10    2
    17    10    11    1
    18    11    12    2
    19    12    27    1
    20    27    29    1
    21    29    30    1
    22    30    31   ar
    23    31    32    1
    24    31    33   ar
    25    33    34   ar
    26    34    35   ar
    27    35    36   ar
    28    36    37    1
    29    37    38    1
    30    38    39    1
    31    12    13    1
    32    13    14    1
    33    14    15    2
    34    15    16    1
    35    16    17    1
    36    17    18    2
    37    16    19    1
    38    17     1   am
    39     8     3   ar
    40    19     9    1
    41    36    30   ar
    42    19    13    1
    43    39    35    1
    44    27    28    1
@<TRIPOS>MOLECULE
*****
 39 44 0 0 0
SMALL
GASTEIGER

@<TRIPOS>ATOM
      1 N          -0.0665    1.6236   27.1288 N.am    1  UNL1       -0.2754
      2 C          -1.3289    2.3918   26.8711 C.3     1  UNL1        0.1202
      3 C          -1.9273    3.0801   25.6802 C.ar    1  UNL1        0.0005
      4 C          -3.2285    3.6427   26.1703 C.ar    1  UNL1        0.0205
      5 C          -4.1137    4.4105   25.2339 C.ar    1  UNL1        0.1524
      6 N          -3.6976    4.6158   23.8074 N.ar    1  UNL1       -0.2399
      7 C          -2.3963    4.0532   23.3174 C.ar    1  UNL1        0.0983
      8 C          -1.5112    3.2853   24.2538 C.ar    1  UNL1        0.0188
      9 C          -0.3243    2.8873   23.4273 C.2     1  UNL1        0.0527
     10 C          -0.5951    3.4491   22.0632 C.2     1  UNL1        0.1911
     11 N           0.3964    3.2428   20.9567 N.2     1  UNL1       -0.0723
     12 C           1.6587    2.4746   21.2144 C.cat   1  UNL1        0.3804
     13 N           1.9296    1.9128   22.5786 N.pl3   1  UNL1       -0.1554
     14 C           3.0949    1.1201   23.0919 C.2     1  UNL1        0.2413
     15 N           2.8472    0.8163   24.5397 N.2     1  UNL1       -0.2277
     16 C           1.5365    1.4308   24.8759 C.3     1  UNL1        0.2204
     17 C           1.1204    1.2256   26.3024 C.2     1  UNL1        0.2519
     18 O           2.1274    0.4374   27.0863 O.2     1  UNL1       -0.2726
     19 C           0.9380    2.1191   23.6850 C.3     1  UNL1        0.1964
     20 C          -5.4150    4.9732   25.7239 C.3     1  UNL1        0.4348
     21 F          -6.7162    5.5358   26.2140 F       1  UNL1       -0.1644
     22 F          -5.0074    4.6839   27.1382 F       1  UNL1       -0.1644
     23 F          -5.8226    5.2624   24.3097 F       1  UNL1       -0.1644
     24 C           0.7202    1.9816   29.5789 C.3     1  UNL1        0.0215
     25 C           0.0321    1.1401   28.5453 C.3     1  UNL1        0.0758
     26 C          -0.5573   -0.1851   28.9282 C.3     1  UNL1        0.0215
     27 N           2.6502    2.2683   20.1079 N.pl3   1  UNL1       -0.2203
     28 H           3.4877    2.7858   20.0944 H       1  UNL1        0.2456
     29 C           2.3659    1.2736   19.0218 C.3     1  UNL1        0.1927
     30 C           3.1417   -0.0086   18.9571 C.ar    1  UNL1        0.0412
     31 C           2.6273   -1.2325   19.6554 C.ar    1  UNL1        0.1391
     32 F           1.3371   -1.1742   20.4183 F       1  UNL1       -0.2044
     33 C           3.4031   -2.5147   19.5908 C.ar    1  UNL1        0.0325
     34 C           4.6933   -2.5729   18.8279 C.ar    1  UNL1        0.0389
     35 C           5.2077   -1.3491   18.1296 C.ar    1  UNL1        0.1346
     36 C           4.4319   -0.0669   18.1942 C.ar    1  UNL1        0.0168
     37 C           5.1830    0.9693   17.4119 C.3     1  UNL1        0.0766
     38 C           6.4230    0.3276   16.8638 C.3     1  UNL1        0.2101
     39 O           6.4383   -1.1053   17.3073 O.3     1  UNL1       -0.4754
@<TRIPOS>BOND
     1    24    25    1
     2    25    26    1
     3    25     1    1
     4     1     2    1
     5     2     3    1
     6     3     4   ar
     7     4     5   ar
     8     5    20    1
     9    20    21    1
    10    20    22    1
    11    20    23    1
    12     5     6   ar
    13     6     7   ar
    14     7     8   ar
    15     8     9    1
    16     9    10    2
    17    10    11    1
    18    11    12    2
    19    12    27    1
    20    27    29    1
    21    29    30    1
    22    30    31   ar
    23    31    32    1
    24    31    33   ar
    25    33    34   ar
    26    34    35   ar
    27    35    36   ar
    28    36    37    1
    29    37    38    1
    30    38    39    1
    31    12    13    1
    32    13    14    1
    33    14    15    2
    34    15    16    1
    35    16    17    1
    36    17    18    2
    37    16    19    1
    38    17     1   am
    39     8     3   ar
    40    19     9    1
    41    36    30   ar
    42    19    13    1
    43    39    35    1
    44    27    28    1
@<TRIPOS>MOLECULE
*****
 39 44 0 0 0
SMALL
GASTEIGER

@<TRIPOS>ATOM
      1 N           3.4855   -0.2963   24.7817 N.am    1  UNL1       -0.2754
      2 C           3.7279   -1.1166   23.5494 C.3     1  UNL1        0.1202
      3 C           3.1352   -1.1625   22.1722 C.ar    1  UNL1        0.0005
      4 C           3.8854   -2.2506   21.4628 C.ar    1  UNL1        0.0205
      5 C           3.5550   -2.5832   20.0380 C.ar    1  UNL1        0.1524
      6 N           2.4746   -1.8277   19.3225 N.ar    1  UNL1       -0.2399
      7 C           1.7244   -0.7397   20.0319 C.ar    1  UNL1        0.0983
      8 C           2.0547   -0.4070   21.4567 C.ar    1  UNL1        0.0188
      9 C           1.1193    0.7072   21.8222 C.2     1  UNL1        0.0527
     10 C           0.3048    0.9513   20.5865 C.2     1  UNL1        0.1911
     11 N          -0.7521    2.0157   20.5830 N.2     1  UNL1       -0.0723
     12 C          -0.9945    2.8360   21.8153 C.cat   1  UNL1        0.3804
     13 N          -0.1800    2.5919   23.0509 N.pl3   1  UNL1       -0.1554
     14 C          -0.2214    3.2607   24.3930 C.2     1  UNL1        0.2413
     15 N           0.8181    2.6189   25.2631 N.2     1  UNL1       -0.2277
     16 C           1.4695    1.5734   24.4317 C.3     1  UNL1        0.2204
     17 C           2.5500    0.8179   25.1471 C.2     1  UNL1        0.2519
     18 O           2.7395    1.2867   26.5593 O.2     1  UNL1       -0.2726
     19 C           0.8769    1.5275   23.0544 C.3     1  UNL1        0.1964
     20 C           4.3052   -3.6713   19.3285 C.3     1  UNL1        0.4348
     21 F           5.0554   -4.7594   18.6191 F       1  UNL1       -0.1644
     22 F           5.6038   -3.0245   19.7095 F       1  UNL1       -0.1644
     23 F           3.0067   -4.3182   18.9475 F       1  UNL1       -0.1644
     24 C           3.9231   -1.6599   26.9494 C.3     1  UNL1        0.0215
     25 C           4.3909   -0.6804   25.9142 C.3     1  UNL1        0.0758
     26 C           5.7643   -0.0849   26.0115 C.3     1  UNL1        0.0215
     27 N          -2.0515    3.9004   21.8117 N.pl3   1  UNL1       -0.2203
     28 H          -1.8306    4.8143   22.1036 H       1  UNL1        0.2456
     29 C          -3.4448    3.5723   21.3635 C.3     1  UNL1        0.1927
     30 C          -4.6171    3.9550   22.2176 C.ar    1  UNL1        0.0412
     31 C          -4.6375    3.5871   23.6716 C.ar    1  UNL1        0.1391
     32 F          -3.4856    2.8365   24.2716 F       1  UNL1       -0.2044
     33 C          -5.8097    3.9697   24.5257 C.ar    1  UNL1        0.0325
     34 C          -6.9615    4.7203   23.9257 C.ar    1  UNL1        0.0389
     35 C          -6.9411    5.0881   22.4716 C.ar    1  UNL1        0.1346
     36 C          -5.7689    4.7055   21.6176 C.ar    1  UNL1        0.0168
     37 C          -6.0279    5.2014   20.2258 C.3     1  UNL1        0.0766
     38 C          -7.3601    5.8905   20.2197 C.3     1  UNL1        0.2101
     39 O          -7.9245    5.8205   21.6077 O.3     1  UNL1       -0.4754
@<TRIPOS>BOND
     1    24    25    1
     2    25    26    1
     3    25     1    1
     4     1     2    1
     5     2     3    1
     6     3     4   ar
     7     4     5   ar
     8     5    20    1
     9    20    21    1
    10    20    22    1
    11    20    23    1
    12     5     6   ar
    13     6     7   ar
    14     7     8   ar
    15     8     9    1
    16     9    10    2
    17    10    11    1
    18    11    12    2
    19    12    27    1
    20    27    29    1
    21    29    30    1
    22    30    31   ar
    23    31    32    1
    24    31    33   ar
    25    33    34   ar
    26    34    35   ar
    27    35    36   ar
    28    36    37    1
    29    37    38    1
    30    38    39    1
    31    12    13    1
    32    13    14    1
    33    14    15    2
    34    15    16    1
    35    16    17    1
    36    17    18    2
    37    16    19    1
    38    17     1   am
    39     8     3   ar
    40    19     9    1
    41    36    30   ar
    42    19    13    1
    43    39    35    1
    44    27    28    1
@<TRIPOS>MOLECULE
*****
 39 44 0 0 0
SMALL
GASTEIGER

@<TRIPOS>ATOM
      1 N           3.2198    0.0069   25.0572 N.am    1  UNL1       -0.2754
      2 C           3.6236   -0.8943   23.9282 C.3     1  UNL1        0.1202
      3 C           3.1831   -1.0750   22.5057 C.ar    1  UNL1        0.0005
      4 C           4.0462   -2.1783   21.9692 C.ar    1  UNL1        0.0205
      5 C           3.8825   -2.6359   20.5502 C.ar    1  UNL1        0.1524
      6 N           2.8557   -1.9902   19.6676 N.ar    1  UNL1       -0.2399
      7 C           1.9927   -0.8869   20.2041 C.ar    1  UNL1        0.0983
      8 C           2.1564   -0.4293   21.6231 C.ar    1  UNL1        0.0188
      9 C           1.1448    0.6646   21.7974 C.2     1  UNL1        0.0527
     10 C           0.4576    0.7731   20.4686 C.2     1  UNL1        0.1911
     11 N          -0.6335    1.7829   20.2688 N.2     1  UNL1       -0.0723
     12 C          -1.0373    2.6841   21.3979 C.cat   1  UNL1        0.3804
     13 N          -0.3500    2.5755   22.7267 N.pl3   1  UNL1       -0.1554
     14 C          -0.5599    3.3440   23.9977 C.2     1  UNL1        0.2413
     15 N           0.4053    2.8215   25.0201 N.2     1  UNL1       -0.2277
     16 C           1.1815    1.7465   24.3490 C.3     1  UNL1        0.2204
     17 C           2.2083    1.1008   25.2315 C.2     1  UNL1        0.2519
     18 O           2.2281    1.6863   26.6124 O.2     1  UNL1       -0.2726
     19 C           0.7410    1.5658   22.9265 C.3     1  UNL1        0.1964
     20 C           4.7455   -3.7392   20.0136 C.3     1  UNL1        0.4348
     21 F           5.6085   -4.8425   19.4771 F       1  UNL1       -0.1644
     22 F           4.1653   -3.5283   18.6466 F       1  UNL1       -0.1644
     23 F           5.3258   -3.9502   21.3806 F       1  UNL1       -0.1644
     24 C           5.2746    0.5269   26.5596 C.3     1  UNL1        0.0215
     25 C           4.0139   -0.2447   26.3047 C.3     1  UNL1        0.0758
     26 C           3.5471   -1.2680   27.2972 C.3     1  UNL1        0.0215
     27 N          -2.1284    3.6939   21.1980 N.pl3   1  UNL1       -0.2203
     28 H          -1.9695    4.6403   21.4177 H       1  UNL1        0.2456
     29 C          -3.4616    3.2617   20.6635 C.3     1  UNL1        0.1927
     30 C          -4.7187    3.8945   21.1826 C.ar    1  UNL1        0.0412
     31 C          -5.6717    4.5579   20.2330 C.ar    1  UNL1        0.1391
     32 F          -5.3676    4.5885   18.7645 F       1  UNL1       -0.2044
     33 C          -6.9287    5.1907   20.7520 C.ar    1  UNL1        0.0325
     34 C          -7.2328    5.1601   22.2205 C.ar    1  UNL1        0.0389
     35 C          -6.2798    4.4966   23.1701 C.ar    1  UNL1        0.1346
     36 C          -5.0227    3.8638   22.6511 C.ar    1  UNL1        0.0168
     37 C          -4.2780    3.2872   23.8185 C.3     1  UNL1        0.0766
     38 C          -5.0747    3.5636   25.0589 C.3     1  UNL1        0.2101
     39 O          -6.3119    4.3111   24.6582 O.3     1  UNL1       -0.4754
@<TRIPOS>BOND
     1    24    25    1
     2    25    26    1
     3    25     1    1
     4     1     2    1
     5     2     3    1
     6     3     4   ar
     7     4     5   ar
     8     5    20    1
     9    20    21    1
    10    20    22    1
    11    20    23    1
    12     5     6   ar
    13     6     7   ar
    14     7     8   ar
    15     8     9    1
    16     9    10    2
    17    10    11    1
    18    11    12    2
    19    12    27    1
    20    27    29    1
    21    29    30    1
    22    30    31   ar
    23    31    32    1
    24    31    33   ar
    25    33    34   ar
    26    34    35   ar
    27    35    36   ar
    28    36    37    1
    29    37    38    1
    30    38    39    1
    31    12    13    1
    32    13    14    1
    33    14    15    2
    34    15    16    1
    35    16    17    1
    36    17    18    2
    37    16    19    1
    38    17     1   am
    39     8     3   ar
    40    19     9    1
    41    36    30   ar
    42    19    13    1
    43    39    35    1
    44    27    28    1
@<TRIPOS>MOLECULE
*****
 39 44 0 0 0
SMALL
GASTEIGER

@<TRIPOS>ATOM
      1 N           2.3525    1.2583   20.3913 N.am    1  UNL1       -0.2754
      2 C           2.8612   -0.1117   20.0531 C.3     1  UNL1        0.1202
      3 C           3.3896   -1.2720   20.8435 C.ar    1  UNL1        0.0005
      4 C           3.7109   -2.3230   19.8227 C.ar    1  UNL1        0.0205
      5 C           4.2707   -3.6448   20.2578 C.ar    1  UNL1        0.1524
      6 N           4.5091   -3.9156   21.7138 N.ar    1  UNL1       -0.2399
      7 C           4.1878   -2.8646   22.7346 C.ar    1  UNL1        0.0983
      8 C           3.6280   -1.5428   22.2995 C.ar    1  UNL1        0.0188
      9 C           3.4369   -0.7656   23.5681 C.2     1  UNL1        0.0527
     10 C           3.8977   -1.6851   24.6599 C.2     1  UNL1        0.1911
     11 N           3.8499   -1.2347   26.0899 N.2     1  UNL1       -0.0723
     12 C           3.3411    0.1353   26.4280 C.cat   1  UNL1        0.3804
     13 N           2.8803    1.0549   25.3362 N.pl3   1  UNL1       -0.1554
     14 C           2.3366    2.4513   25.4034 C.2     1  UNL1        0.2413
     15 N           2.0338    2.8986   24.0041 N.2     1  UNL1       -0.2277
     16 C           2.3998    1.7647   23.1159 C.3     1  UNL1        0.2204
     17 C           2.1614    2.0355   21.6599 C.2     1  UNL1        0.2519
     18 O           1.6001    3.4048   21.4152 O.2     1  UNL1       -0.2726
     19 C           2.9282    0.6044   23.9063 C.3     1  UNL1        0.1964
     20 C           4.5921   -4.6958   19.2370 C.3     1  UNL1        0.4348
     21 F           4.9135   -5.7469   18.2162 F       1  UNL1       -0.1644
     22 F           6.0221   -4.6983   19.6898 F       1  UNL1       -0.1644
     23 F           3.1621   -4.6934   18.7842 F       1  UNL1       -0.1644
     24 C           0.5509    1.8780   18.6249 C.3     1  UNL1        0.0215
     25 C           1.9375    2.0328   19.1756 C.3     1  UNL1        0.0758
     26 C           2.9093    2.9620   18.5104 C.3     1  UNL1        0.0215
     27 N           3.2933    0.5857   27.8580 N.pl3   1  UNL1       -0.2203
     28 H           4.0203    1.1393   28.2244 H       1  UNL1        0.2456
     29 C           2.1377    0.1928   28.7299 C.3     1  UNL1        0.1927
     30 C           1.9243    0.8787   30.0467 C.ar    1  UNL1        0.0412
     31 C           0.9061    1.9738   30.1657 C.ar    1  UNL1        0.1391
     32 F           0.1013    2.3828   28.9678 F       1  UNL1       -0.2044
     33 C           0.6928    2.6597   31.4824 C.ar    1  UNL1        0.0325
     34 C           1.4976    2.2506   32.6802 C.ar    1  UNL1        0.0389
     35 C           2.5158    1.1556   32.5613 C.ar    1  UNL1        0.1346
     36 C           2.7292    0.4696   31.2445 C.ar    1  UNL1        0.0168
     37 C           3.7962   -0.5682   31.4301 C.3     1  UNL1        0.0766
     38 C           4.2422   -0.5237   32.8614 C.3     1  UNL1        0.2101
     39 O           3.4509    0.5416   33.5606 O.3     1  UNL1       -0.4754
@<TRIPOS>BOND
     1    24    25    1
     2    25    26    1
     3    25     1    1
     4     1     2    1
     5     2     3    1
     6     3     4   ar
     7     4     5   ar
     8     5    20    1
     9    20    21    1
    10    20    22    1
    11    20    23    1
    12     5     6   ar
    13     6     7   ar
    14     7     8   ar
    15     8     9    1
    16     9    10    2
    17    10    11    1
    18    11    12    2
    19    12    27    1
    20    27    29    1
    21    29    30    1
    22    30    31   ar
    23    31    32    1
    24    31    33   ar
    25    33    34   ar
    26    34    35   ar
    27    35    36   ar
    28    36    37    1
    29    37    38    1
    30    38    39    1
    31    12    13    1
    32    13    14    1
    33    14    15    2
    34    15    16    1
    35    16    17    1
    36    17    18    2
    37    16    19    1
    38    17     1   am
    39     8     3   ar
    40    19     9    1
    41    36    30   ar
    42    19    13    1
    43    39    35    1
    44    27    28    1
@<TRIPOS>MOLECULE
*****
 39 44 0 0 0
SMALL
GASTEIGER

@<TRIPOS>ATOM
      1 N          -2.8477    3.7369   23.6567 N.am    1  UNL1       -0.2754
      2 C          -2.2473    3.2348   24.9363 C.3     1  UNL1        0.1202
      3 C          -0.9958    2.4927   25.3013 C.ar    1  UNL1        0.0005
      4 C          -1.0605    2.3316   26.7911 C.ar    1  UNL1        0.0205
      5 C           0.0441    1.6232   27.5175 C.ar    1  UNL1        0.1524
      6 N           1.2136    1.0758   26.7541 N.ar    1  UNL1       -0.2399
      7 C           1.2783    1.2370   25.2642 C.ar    1  UNL1        0.0983
      8 C           0.1736    1.9454   24.5378 C.ar    1  UNL1        0.0188
      9 C           0.5760    1.9134   23.0931 C.2     1  UNL1        0.0527
     10 C           1.8889    1.1884   23.0717 C.2     1  UNL1        0.1911
     11 N           2.6014    0.9655   21.7707 N.2     1  UNL1       -0.0723
     12 C           2.0010    1.4675   20.4911 C.cat   1  UNL1        0.3804
     13 N           0.6881    2.1925   20.5125 N.pl3   1  UNL1       -0.1554
     14 C          -0.1155    2.7860   19.3934 C.2     1  UNL1        0.2413
     15 N          -1.3532    3.3941   19.9833 N.2     1  UNL1       -0.2277
     16 C          -1.2760    3.1575   21.4485 C.3     1  UNL1        0.2204
     17 C          -2.4454    3.7049   22.2119 C.2     1  UNL1        0.2519
     18 O          -3.4476    4.3782   21.3219 O.2     1  UNL1       -0.2726
     19 C          -0.0244    2.4155   21.8134 C.3     1  UNL1        0.1964
     20 C          -0.0206    1.4620   29.0075 C.3     1  UNL1        0.4348
     21 F          -0.0852    1.3009   30.4974 F       1  UNL1       -0.1644
     22 F           0.3168    2.9134   29.1791 F       1  UNL1       -0.1644
     23 F          -0.3579    0.0106   28.8359 F       1  UNL1       -0.1644
     24 C          -4.1828    5.8964   24.2076 C.3     1  UNL1        0.0215
     25 C          -4.1579    4.4346   23.8723 C.3     1  UNL1        0.0758
     26 C          -5.4432    3.6706   23.7527 C.3     1  UNL1        0.0215
     27 N           2.7136    1.2446   19.1901 N.pl3   1  UNL1       -0.2203
     28 H           3.1582    1.9971   18.7371 H       1  UNL1        0.2456
     29 C           2.7488   -0.1250   18.5794 C.3     1  UNL1        0.1927
     30 C           4.0596   -0.8305   18.3950 C.ar    1  UNL1        0.0412
     31 C           5.2302   -0.0973   17.8101 C.ar    1  UNL1        0.1391
     32 F           5.0899    1.3415   17.4096 F       1  UNL1       -0.2044
     33 C           6.5410   -0.8027   17.6256 C.ar    1  UNL1        0.0325
     34 C           6.6813   -2.2414   18.0261 C.ar    1  UNL1        0.0389
     35 C           5.5107   -2.9747   18.6110 C.ar    1  UNL1        0.1346
     36 C           4.1999   -2.2692   18.7954 C.ar    1  UNL1        0.0168
     37 C           3.2291   -3.2439   19.3935 C.3     1  UNL1        0.0766
     38 C           3.9399   -4.5516   19.5787 C.3     1  UNL1        0.2101
     39 O           5.3500   -4.3853   19.0951 O.3     1  UNL1       -0.4754
@<TRIPOS>BOND
     1    24    25    1
     2    25    26    1
     3    25     1    1
     4     1     2    1
     5     2     3    1
     6     3     4   ar
     7     4     5   ar
     8     5    20    1
     9    20    21    1
    10    20    22    1
    11    20    23    1
    12     5     6   ar
    13     6     7   ar
    14     7     8   ar
    15     8     9    1
    16     9    10    2
    17    10    11    1
    18    11    12    2
    19    12    27    1
    20    27    29    1
    21    29    30    1
    22    30    31   ar
    23    31    32    1
    24    31    33   ar
    25    33    34   ar
    26    34    35   ar
    27    35    36   ar
    28    36    37    1
    29    37    38    1
    30    38    39    1
    31    12    13    1
    32    13    14    1
    33    14    15    2
    34    15    16    1
    35    16    17    1
    36    17    18    2
    37    16    19    1
    38    17     1   am
    39     8     3   ar
    40    19     9    1
    41    36    30   ar
    42    19    13    1
    43    39    35    1
    44    27    28    1
@<TRIPOS>MOLECULE
*****
 39 44 0 0 0
SMALL
GASTEIGER

@<TRIPOS>ATOM
      1 N          -3.2539    4.0713   23.7893 N.am    1  UNL1       -0.2754
      2 C          -2.6026    3.4920   25.0101 C.3     1  UNL1        0.1202
      3 C          -1.3346    2.7369   25.2786 C.ar    1  UNL1        0.0005
      4 C          -1.3416    2.4795   26.7563 C.ar    1  UNL1        0.0205
      5 C          -0.2067    1.7335   27.3929 C.ar    1  UNL1        0.1524
      6 N           0.9352    1.2449   26.5519 N.ar    1  UNL1       -0.2399
      7 C           0.9422    1.5023   25.0742 C.ar    1  UNL1        0.0983
      8 C          -0.1928    2.2482   24.4375 C.ar    1  UNL1        0.0188
      9 C           0.1542    2.3124   22.9796 C.2     1  UNL1        0.0527
     10 C           1.4687    1.5996   22.8616 C.2     1  UNL1        0.1911
     11 N           2.1319    1.4661   21.5229 N.2     1  UNL1       -0.0723
     12 C           1.4807    2.0454   20.3021 C.cat   1  UNL1        0.3804
     13 N           0.1662    2.7582   20.4201 N.pl3   1  UNL1       -0.1554
     14 C          -0.6823    3.4169   19.3730 C.2     1  UNL1        0.2413
     15 N          -1.8994    3.9769   20.0475 N.2     1  UNL1       -0.2277
     16 C          -1.7651    3.6469   21.4903 C.3     1  UNL1        0.2204
     17 C          -2.9070    4.1355   22.3313 C.2     1  UNL1        0.2519
     18 O          -3.9456    4.8577   21.5254 O.2     1  UNL1       -0.2726
     19 C          -0.4971    2.8917   21.7588 C.3     1  UNL1        0.1964
     20 C          -0.2136    1.4761   28.8707 C.3     1  UNL1        0.4348
     21 F          -0.2204    1.2187   30.3484 F       1  UNL1       -0.1644
     22 F           1.1092    2.1717   28.9980 F       1  UNL1       -0.1644
     23 F          -1.5364    0.7804   28.7434 F       1  UNL1       -0.1644
     24 C          -5.8317    3.9522   24.0901 C.3     1  UNL1        0.0215
     25 C          -4.5581    4.7444   24.0992 C.3     1  UNL1        0.0758
     26 C          -4.5886    6.2098   24.4182 C.3     1  UNL1        0.0215
     27 N           2.1440    1.9119   18.9633 N.pl3   1  UNL1       -0.2203
     28 H           2.5901    2.6889   18.5553 H       1  UNL1        0.2456
     29 C           2.1276    0.5946   18.2462 C.3     1  UNL1        0.1927
     30 C           3.1628   -0.4441   18.5618 C.ar    1  UNL1        0.0412
     31 C           2.8328   -1.5734   19.4923 C.ar    1  UNL1        0.1391
     32 F           1.4675   -1.6640   20.1072 F       1  UNL1       -0.2044
     33 C           3.8679   -2.6121   19.8079 C.ar    1  UNL1        0.0325
     34 C           5.2331   -2.5214   19.1930 C.ar    1  UNL1        0.0389
     35 C           5.5631   -1.3921   18.2626 C.ar    1  UNL1        0.1346
     36 C           4.5279   -0.3535   17.9470 C.ar    1  UNL1        0.0168
     37 C           5.1389    0.6373   17.0009 C.3     1  UNL1        0.0766
     38 C           6.5516    0.2110   16.7318 C.3     1  UNL1        0.2101
     39 O           6.8138   -1.0432   17.5116 O.3     1  UNL1       -0.4754
@<TRIPOS>BOND
     1    24    25    1
     2    25    26    1
     3    25     1    1
     4     1     2    1
     5     2     3    1
     6     3     4   ar
     7     4     5   ar
     8     5    20    1
     9    20    21    1
    10    20    22    1
    11    20    23    1
    12     5     6   ar
    13     6     7   ar
    14     7     8   ar
    15     8     9    1
    16     9    10    2
    17    10    11    1
    18    11    12    2
    19    12    27    1
    20    27    29    1
    21    29    30    1
    22    30    31   ar
    23    31    32    1
    24    31    33   ar
    25    33    34   ar
    26    34    35   ar
    27    35    36   ar
    28    36    37    1
    29    37    38    1
    30    38    39    1
    31    12    13    1
    32    13    14    1
    33    14    15    2
    34    15    16    1
    35    16    17    1
    36    17    18    2
    37    16    19    1
    38    17     1   am
    39     8     3   ar
    40    19     9    1
    41    36    30   ar
    42    19    13    1
    43    39    35    1
    44    27    28    1
@<TRIPOS>MOLECULE
*****
 39 44 0 0 0
SMALL
GASTEIGER

@<TRIPOS>ATOM
      1 N           6.3113   -3.4929   25.5367 N.am    1  UNL1       -0.2754
      2 C           5.8807   -3.7542   24.1238 C.3     1  UNL1        0.1202
      3 C           5.0373   -3.0254   23.1200 C.ar    1  UNL1        0.0005
      4 C           5.0455   -3.8976   21.8997 C.ar    1  UNL1        0.0205
      5 C           4.2915   -3.4779   20.6728 C.ar    1  UNL1        0.1524
      6 N           3.5293   -2.1860   20.6662 N.ar    1  UNL1       -0.2399
      7 C           3.5211   -1.3138   21.8865 C.ar    1  UNL1        0.0983
      8 C           4.2751   -1.7335   23.1134 C.ar    1  UNL1        0.0188
      9 C           4.0406   -0.6352   24.1079 C.2     1  UNL1        0.0527
     10 C           3.1653    0.3530   23.3957 C.2     1  UNL1        0.1911
     11 N           2.7205    1.6024   24.0964 N.2     1  UNL1       -0.0723
     12 C           3.1511    1.8636   25.5094 C.cat   1  UNL1        0.3804
     13 N           4.0264    0.8755   26.2216 N.pl3   1  UNL1       -0.1554
     14 C           4.5887    0.8969   27.6120 C.2     1  UNL1        0.2413
     15 N           5.4005   -0.3498   27.8030 N.2     1  UNL1       -0.2277
     16 C           5.3146   -1.1027   26.5246 C.3     1  UNL1        0.2204
     17 C           6.0768   -2.3947   26.5312 C.2     1  UNL1        0.2519
     18 O           6.7663   -2.6477   27.8391 O.2     1  UNL1       -0.2726
     19 C           4.4712   -0.3739   25.5208 C.3     1  UNL1        0.1964
     20 C           4.2997   -4.3501   19.4525 C.3     1  UNL1        0.4348
     21 F           4.3080   -5.2222   18.2322 F       1  UNL1       -0.1644
     22 F           5.7744   -4.5686   19.6186 F       1  UNL1       -0.1644
     23 F           2.8251   -4.1315   19.2863 F       1  UNL1       -0.1644
     24 C           8.6670   -4.5290   25.8933 C.3     1  UNL1        0.0215
     25 C           7.1802   -4.5865   26.0835 C.3     1  UNL1        0.0758
     26 C           6.5624   -5.7377   26.8206 C.3     1  UNL1        0.0215
     27 N           2.7062    3.1131   26.2101 N.pl3   1  UNL1       -0.2203
     28 H           3.3499    3.8388   26.3785 H       1  UNL1        0.2456
     29 C           1.2808    3.2570   26.6542 C.3     1  UNL1        0.1927
     30 C           0.6753    2.2383   27.5739 C.ar    1  UNL1        0.0412
     31 C          -0.3573    1.2810   27.0569 C.ar    1  UNL1        0.1391
     32 F          -0.7844    1.3423   25.6203 F       1  UNL1       -0.2044
     33 C          -0.9628    0.2623   27.9765 C.ar    1  UNL1        0.0325
     34 C          -0.5357    0.2010   29.4131 C.ar    1  UNL1        0.0389
     35 C           0.4968    1.1584   29.9301 C.ar    1  UNL1        0.1346
     36 C           1.1023    2.1770   29.0105 C.ar    1  UNL1        0.0168
     37 C           2.0909    2.9838   29.7990 C.3     1  UNL1        0.0766
     38 C           2.0964    2.4638   31.2059 C.3     1  UNL1        0.2101
     39 O           1.1112    1.3356   31.2869 O.3     1  UNL1       -0.4754
@<TRIPOS>BOND
     1    24    25    1
     2    25    26    1
     3    25     1    1
     4     1     2    1
     5     2     3    1
     6     3     4   ar
     7     4     5   ar
     8     5    20    1
     9    20    21    1
    10    20    22    1
    11    20    23    1
    12     5     6   ar
    13     6     7   ar
    14     7     8   ar
    15     8     9    1
    16     9    10    2
    17    10    11    1
    18    11    12    2
    19    12    27    1
    20    27    29    1
    21    29    30    1
    22    30    31   ar
    23    31    32    1
    24    31    33   ar
    25    33    34   ar
    26    34    35   ar
    27    35    36   ar
    28    36    37    1
    29    37    38    1
    30    38    39    1
    31    12    13    1
    32    13    14    1
    33    14    15    2
    34    15    16    1
    35    16    17    1
    36    17    18    2
    37    16    19    1
    38    17     1   am
    39     8     3   ar
    40    19     9    1
    41    36    30   ar
    42    19    13    1
    43    39    35    1
    44    27    28    1
@<TRIPOS>MOLECULE
*****
 39 44 0 0 0
SMALL
GASTEIGER

@<TRIPOS>ATOM
      1 N           2.0311    0.9561   21.3819 N.am    1  UNL1       -0.2754
      2 C           2.5806   -0.3273   20.8334 C.3     1  UNL1        0.1202
      3 C           3.3552   -1.4788   21.4028 C.ar    1  UNL1        0.0005
      4 C           3.5582   -2.4177   20.2508 C.ar    1  UNL1        0.0205
      5 C           4.3070   -3.7016   20.4527 C.ar    1  UNL1        0.1524
      6 N           4.8529   -4.0466   21.8066 N.ar    1  UNL1       -0.2399
      7 C           4.6499   -3.1076   22.9586 C.ar    1  UNL1        0.0983
      8 C           3.9011   -1.8237   22.7567 C.ar    1  UNL1        0.0188
      9 C           3.8986   -1.1601   24.1020 C.2     1  UNL1        0.0527
     10 C           4.6461   -2.1005   25.0002 C.2     1  UNL1        0.1911
     11 N           4.8441   -1.7576   26.4469 N.2     1  UNL1       -0.0723
     12 C           4.2946   -0.4742   26.9955 C.cat   1  UNL1        0.3804
     13 N           3.5471    0.4663   26.0973 N.pl3   1  UNL1       -0.1554
     14 C           2.9073    1.7911   26.3899 C.2     1  UNL1        0.2413
     15 N           2.2943    2.3006   25.1193 N.2     1  UNL1       -0.2277
     16 C           2.5745    1.2748   24.0811 C.3     1  UNL1        0.2204
     17 C           2.0286    1.6197   22.7272 C.2     1  UNL1        0.2519
     18 O           1.3120    2.9374   22.7159 O.2     1  UNL1       -0.2726
     19 C           3.3491    0.1233   24.6506 C.3     1  UNL1        0.1964
     20 C           4.5099   -4.6407   19.3007 C.3     1  UNL1        0.4348
     21 F           4.7129   -5.5796   18.1487 F       1  UNL1       -0.1644
     22 F           5.4970   -3.6863   18.6967 F       1  UNL1       -0.1644
     23 F           3.5229   -5.5950   19.9046 F       1  UNL1       -0.1644
     24 C          -0.1690    1.6362   20.1792 C.3     1  UNL1        0.0215
     25 C           1.3165    1.7659   20.3410 C.3     1  UNL1        0.0758
     26 C           2.0875    2.7055   19.4619 C.3     1  UNL1        0.0215
     27 N           4.4926   -0.1312   28.4423 N.pl3   1  UNL1       -0.2203
     28 H           3.7481    0.2445   28.9655 H       1  UNL1        0.2456
     29 C           5.8249   -0.3608   29.0920 C.3     1  UNL1        0.1927
     30 C           6.0167   -1.5240   30.0195 C.ar    1  UNL1        0.0412
     31 C           6.8586   -2.6907   29.5953 C.ar    1  UNL1        0.1391
     32 F           7.5088   -2.6942   28.2435 F       1  UNL1       -0.2044
     33 C           7.0503   -3.8538   30.5228 C.ar    1  UNL1        0.0325
     34 C           6.4001   -3.8503   31.8745 C.ar    1  UNL1        0.0389
     35 C           5.5582   -2.6836   32.2987 C.ar    1  UNL1        0.1346
     36 C           5.3665   -1.5204   31.3713 C.ar    1  UNL1        0.0168
     37 C           4.4879   -0.5184   32.0598 C.3     1  UNL1        0.0766
     38 C           4.1367   -1.0623   33.4128 C.3     1  UNL1        0.2101
     39 O           4.7981   -2.4004   33.5605 O.3     1  UNL1       -0.4754
@<TRIPOS>BOND
     1    24    25    1
     2    25    26    1
     3    25     1    1
     4     1     2    1
     5     2     3    1
     6     3     4   ar
     7     4     5   ar
     8     5    20    1
     9    20    21    1
    10    20    22    1
    11    20    23    1
    12     5     6   ar
    13     6     7   ar
    14     7     8   ar
    15     8     9    1
    16     9    10    2
    17    10    11    1
    18    11    12    2
    19    12    27    1
    20    27    29    1
    21    29    30    1
    22    30    31   ar
    23    31    32    1
    24    31    33   ar
    25    33    34   ar
    26    34    35   ar
    27    35    36   ar
    28    36    37    1
    29    37    38    1
    30    38    39    1
    31    12    13    1
    32    13    14    1
    33    14    15    2
    34    15    16    1
    35    16    17    1
    36    17    18    2
    37    16    19    1
    38    17     1   am
    39     8     3   ar
    40    19     9    1
    41    36    30   ar
    42    19    13    1
    43    39    35    1
    44    27    28    1
