@<TRIPOS>MOLECULE
*****
 35 37 0 0 0
SMALL
GASTEIGER

@<TRIPOS>ATOM
      1 C          -9.5815  -20.8329   24.4728 C.3     1  UNL1        0.1152
      2 N          -9.6836  -19.5254   23.7447 N.am    1  UNL1       -0.2729
      3 C          -9.8637  -18.2506   24.5142 C.2     1  UNL1        0.2459
      4 O          -9.9416  -18.2831   26.0118 O.2     1  UNL1       -0.2730
      5 C          -9.9659  -16.9430   23.7861 C.3     1  UNL1        0.1738
      6 N          -9.4485  -15.6875   24.4231 N.pl3   1  UNL1       -0.3253
      7 H         -10.0435  -14.9112   24.5354 H       1  UNL1        0.1473
      8 C          -8.0245  -15.6146   24.8891 C.ar    1  UNL1        0.0447
      9 C          -7.7196  -15.4907   26.3525 C.ar    1  UNL1        0.0143
     10 C          -6.2957  -15.4179   26.8183 C.ar    1  UNL1        0.0010
     11 C          -5.1766  -15.4689   25.8207 C.ar    1  UNL1       -0.0028
     12 C          -5.4815  -15.5927   24.3573 C.ar    1  UNL1       -0.0036
     13 C          -6.9055  -15.6656   23.8915 C.ar    1  UNL1        0.0114
     14 C          -4.3625  -15.6437   23.3597 C.3     1  UNL1        0.1174
     15 N          -3.5895  -16.9142   23.1641 N.3     1  UNL1       -0.1788
     16 H          -4.2731  -17.6510   22.9901 H       1  UNL1        0.1488
     17 S          -2.5646  -17.0081   22.0729 S.O2    1  UNL1        0.0429
     18 C          -1.5397  -17.1019   20.9816 C.3     1  UNL1        0.1957
     19 O          -2.3463  -18.4551   22.4023 O.2     1  UNL1       -0.1574
     20 O          -2.7829  -15.5611   21.7434 O.2     1  UNL1       -0.1574
     21 C          -9.6057  -19.4929   22.2471 C.3     1  UNL1        0.1139
     22 C          -8.2700  -19.4404   21.5665 C.ar    1  UNL1       -0.0029
     23 C          -7.0209  -19.2661   22.3785 C.ar    1  UNL1       -0.0026
     24 C          -5.6852  -19.2136   21.6978 C.ar    1  UNL1       -0.0003
     25 C          -5.5987  -19.3355   20.2053 C.ar    1  UNL1       -0.0000
     26 C          -6.8478  -19.5098   19.3934 C.ar    1  UNL1       -0.0003
     27 C          -8.1835  -19.5623   20.0739 C.ar    1  UNL1       -0.0026
     28 C         -10.8634  -19.5128   21.4300 C.3     1  UNL1        0.0968
     29 N         -11.4953  -18.2240   20.9944 N.3     1  UNL1       -0.2689
     30 C         -12.6643  -17.5497   21.6492 C.3     1  UNL1        0.0748
     31 C         -12.9607  -16.2922   20.8870 C.3     1  UNL1        0.0480
     32 C         -11.9749  -16.1894   19.7611 C.3     1  UNL1        0.1278
     33 O         -11.9066  -15.0863   18.7469 O.3     1  UNL1       -0.3830
     34 C         -11.0692  -17.3833   19.8274 C.3     1  UNL1        0.1017
     35 H         -11.1792  -15.2597   18.1291 H       1  UNL1        0.2104
@<TRIPOS>BOND
     1     1     2    1
     2     2     3   am
     3     3     4    2
     4     3     5    1
     5     5     6    1
     6     6     8    1
     7     8     9   ar
     8     9    10   ar
     9    10    11   ar
    10    11    12   ar
    11    12    14    1
    12    14    15    1
    13    15    17    1
    14    17    18    1
    15    17    19    2
    16    17    20    2
    17    12    13   ar
    18     2    21    1
    19    21    28    1
    20    28    29    1
    21    29    30    1
    22    30    31    1
    23    31    32    1
    24    32    33    1
    25    32    34    1
    26    21    22    1
    27    22    23   ar
    28    23    24   ar
    29    24    25   ar
    30    25    26   ar
    31    26    27   ar
    32    13     8   ar
    33    34    29    1
    34    27    22   ar
    35     6     7    1
    36    15    16    1
    37    33    35    1
@<TRIPOS>MOLECULE
*****
 35 37 0 0 0
SMALL
GASTEIGER

@<TRIPOS>ATOM
      1 C         -11.8066  -16.1888   19.6174 C.3     1  UNL1        0.1152
      2 N         -10.7755  -16.6217   20.6170 N.am    1  UNL1       -0.2729
      3 C          -9.6517  -15.6982   20.9830 C.2     1  UNL1        0.2459
      4 O          -9.5589  -14.3418   20.3493 O.2     1  UNL1       -0.2730
      5 C          -8.6205  -16.1310   21.9827 C.3     1  UNL1        0.1738
      6 N          -8.3853  -15.3147   23.2190 N.pl3   1  UNL1       -0.3253
      7 H          -9.0230  -14.6082   23.4710 H       1  UNL1        0.1473
      8 C          -7.1786  -15.5748   24.0712 C.ar    1  UNL1        0.0447
      9 C          -7.1648  -15.1363   25.5056 C.ar    1  UNL1        0.0143
     10 C          -5.9581  -15.3963   26.3577 C.ar    1  UNL1        0.0010
     11 C          -4.7652  -16.0950   25.7755 C.ar    1  UNL1       -0.0028
     12 C          -4.7790  -16.5335   24.3412 C.ar    1  UNL1       -0.0036
     13 C          -5.9857  -16.2734   23.4890 C.ar    1  UNL1        0.0114
     14 C          -3.5861  -17.2321   23.7590 C.3     1  UNL1        0.1174
     15 N          -3.5797  -17.6251   22.3114 N.3     1  UNL1       -0.1788
     16 H          -4.3950  -17.1862   21.8835 H       1  UNL1        0.1488
     17 S          -2.4016  -17.2854   21.4473 S.O2    1  UNL1        0.0429
     18 C          -1.2235  -16.9457   20.5832 C.3     1  UNL1        0.1957
     19 O          -2.5956  -15.8302   21.7549 O.2     1  UNL1       -0.1574
     20 O          -2.2076  -18.7407   21.1397 O.2     1  UNL1       -0.1574
     21 C         -10.8683  -17.9781   21.2508 C.3     1  UNL1        0.1139
     22 C         -11.6898  -18.1720   22.4907 C.ar    1  UNL1       -0.0029
     23 C         -11.0835  -18.8242   23.6977 C.ar    1  UNL1       -0.0026
     24 C         -11.9052  -19.0182   24.9377 C.ar    1  UNL1       -0.0003
     25 C         -13.3330  -18.5599   24.9705 C.ar    1  UNL1       -0.0000
     26 C         -13.9393  -17.9077   23.7634 C.ar    1  UNL1       -0.0003
     27 C         -13.1178  -17.7137   22.5235 C.ar    1  UNL1       -0.0026
     28 C         -10.1395  -19.1405   20.6446 C.3     1  UNL1        0.0968
     29 N          -8.6750  -19.3281   20.9091 N.3     1  UNL1       -0.2689
     30 C          -8.0583  -19.7148   22.2206 C.3     1  UNL1        0.0748
     31 C          -6.5721  -19.7876   22.0306 C.3     1  UNL1        0.0480
     32 C          -6.2703  -19.4457   20.6016 C.3     1  UNL1        0.1278
     33 O          -4.9081  -19.3965   19.9756 O.3     1  UNL1       -0.3830
     34 C          -7.5699  -19.1617   19.9084 C.3     1  UNL1        0.1017
     35 H          -4.9904  -19.1501   19.0411 H       1  UNL1        0.2104
@<TRIPOS>BOND
     1     1     2    1
     2     2     3   am
     3     3     4    2
     4     3     5    1
     5     5     6    1
     6     6     8    1
     7     8     9   ar
     8     9    10   ar
     9    10    11   ar
    10    11    12   ar
    11    12    14    1
    12    14    15    1
    13    15    17    1
    14    17    18    1
    15    17    19    2
    16    17    20    2
    17    12    13   ar
    18     2    21    1
    19    21    28    1
    20    28    29    1
    21    29    30    1
    22    30    31    1
    23    31    32    1
    24    32    33    1
    25    32    34    1
    26    21    22    1
    27    22    23   ar
    28    23    24   ar
    29    24    25   ar
    30    25    26   ar
    31    26    27   ar
    32    13     8   ar
    33    34    29    1
    34    27    22   ar
    35     6     7    1
    36    15    16    1
    37    33    35    1
@<TRIPOS>MOLECULE
*****
 35 37 0 0 0
SMALL
GASTEIGER

@<TRIPOS>ATOM
      1 C         -10.0126  -18.7963   25.7312 C.3     1  UNL1        0.1152
      2 N          -9.6349  -18.4390   24.3242 N.am    1  UNL1       -0.2729
      3 C          -9.0566  -19.4824   23.4149 C.2     1  UNL1        0.2459
      4 O          -8.8560  -20.8832   23.9126 O.2     1  UNL1       -0.2730
      5 C          -8.6788  -19.1251   22.0079 C.3     1  UNL1        0.1738
      6 N          -7.4131  -18.3658   21.7410 N.pl3   1  UNL1       -0.3253
      7 H          -7.4010  -17.3848   21.8229 H       1  UNL1        0.1473
      8 C          -6.1657  -19.1011   21.3492 C.ar    1  UNL1        0.0447
      9 C          -6.2252  -20.1750   20.3037 C.ar    1  UNL1        0.0143
     10 C          -4.9779  -20.9103   19.9120 C.ar    1  UNL1        0.0010
     11 C          -3.6710  -20.5717   20.5659 C.ar    1  UNL1       -0.0028
     12 C          -3.6115  -19.4978   21.6114 C.ar    1  UNL1       -0.0036
     13 C          -4.8589  -18.7625   22.0031 C.ar    1  UNL1        0.0114
     14 C          -2.3047  -19.1592   22.2653 C.3     1  UNL1        0.1174
     15 N          -1.3884  -18.1535   21.6338 N.3     1  UNL1       -0.1788
     16 H          -0.4380  -18.5026   21.7574 H       1  UNL1        0.1488
     17 S          -1.5383  -17.8105   20.1812 S.O2    1  UNL1        0.0429
     18 C          -1.6881  -17.4676   18.7286 C.3     1  UNL1        0.1957
     19 O          -2.4734  -16.6943   20.5412 O.2     1  UNL1       -0.1574
     20 O          -0.6032  -18.9268   19.8212 O.2     1  UNL1       -0.1574
     21 C          -9.8355  -17.0383   23.8265 C.3     1  UNL1        0.1139
     22 C         -10.6646  -16.7891   22.6016 C.ar    1  UNL1       -0.0029
     23 C         -12.0228  -17.4131   22.4756 C.ar    1  UNL1       -0.0026
     24 C         -12.8520  -17.1638   21.2507 C.ar    1  UNL1       -0.0003
     25 C         -12.3229  -16.2906   20.1518 C.ar    1  UNL1       -0.0000
     26 C         -10.9647  -15.6666   20.2778 C.ar    1  UNL1       -0.0003
     27 C         -10.1356  -15.9158   21.5027 C.ar    1  UNL1       -0.0026
     28 C          -9.2069  -15.8867   24.5537 C.3     1  UNL1        0.0968
     29 N          -7.7140  -15.7446   24.5853 N.3     1  UNL1       -0.2689
     30 C          -6.8699  -15.5781   25.8140 C.3     1  UNL1        0.0748
     31 C          -5.4373  -15.4747   25.3818 C.3     1  UNL1        0.0480
     32 C          -5.3959  -15.5772   23.8859 C.3     1  UNL1        0.1278
     33 O          -4.1638  -15.5225   23.0321 O.3     1  UNL1       -0.3830
     34 C          -6.8030  -15.7441   23.3935 C.3     1  UNL1        0.1017
     35 H          -4.4128  -15.6122   22.0989 H       1  UNL1        0.2104
@<TRIPOS>BOND
     1     1     2    1
     2     2     3   am
     3     3     4    2
     4     3     5    1
     5     5     6    1
     6     6     8    1
     7     8     9   ar
     8     9    10   ar
     9    10    11   ar
    10    11    12   ar
    11    12    14    1
    12    14    15    1
    13    15    17    1
    14    17    18    1
    15    17    19    2
    16    17    20    2
    17    12    13   ar
    18     2    21    1
    19    21    28    1
    20    28    29    1
    21    29    30    1
    22    30    31    1
    23    31    32    1
    24    32    33    1
    25    32    34    1
    26    21    22    1
    27    22    23   ar
    28    23    24   ar
    29    24    25   ar
    30    25    26   ar
    31    26    27   ar
    32    13     8   ar
    33    34    29    1
    34    27    22   ar
    35     6     7    1
    36    15    16    1
    37    33    35    1
@<TRIPOS>MOLECULE
*****
 35 37 0 0 0
SMALL
GASTEIGER

@<TRIPOS>ATOM
      1 C          -8.0232  -15.2188   21.6351 C.3     1  UNL1        0.1152
      2 N          -8.2159  -16.4557   22.4615 N.am    1  UNL1       -0.2729
      3 C          -7.8002  -17.7915   21.9204 C.2     1  UNL1        0.2459
      4 O          -7.1917  -17.8904   20.5529 O.2     1  UNL1       -0.2730
      5 C          -7.9930  -19.0284   22.7468 C.3     1  UNL1        0.1738
      6 N          -7.3093  -20.3052   22.3565 N.pl3   1  UNL1       -0.3253
      7 H          -7.7560  -21.1692   22.5085 H       1  UNL1        0.1473
      8 C          -5.9448  -20.2656   21.7345 C.ar    1  UNL1        0.0447
      9 C          -5.6779  -21.0159   20.4634 C.ar    1  UNL1        0.0143
     10 C          -4.3135  -20.9762   19.8416 C.ar    1  UNL1        0.0010
     11 C          -3.2160  -20.1863   20.4908 C.ar    1  UNL1       -0.0028
     12 C          -3.4829  -19.4361   21.7619 C.ar    1  UNL1       -0.0036
     13 C          -4.8473  -19.4757   22.3838 C.ar    1  UNL1        0.0114
     14 C          -2.3854  -18.6462   22.4112 C.3     1  UNL1        0.1174
     15 N          -1.1680  -18.2650   21.6223 N.3     1  UNL1       -0.1788
     16 H          -0.5446  -19.0722   21.6343 H       1  UNL1        0.1488
     17 S          -1.3044  -17.8447   20.1888 S.O2    1  UNL1        0.0429
     18 C          -1.4409  -17.4244   18.7554 C.3     1  UNL1        0.1957
     19 O          -0.2800  -18.8660   19.7919 O.2     1  UNL1       -0.1574
     20 O          -2.3288  -16.8234   20.5858 O.2     1  UNL1       -0.1574
     21 C          -8.8245  -16.3568   23.8289 C.3     1  UNL1        0.1139
     22 C          -7.9794  -15.9453   24.9979 C.ar    1  UNL1       -0.0029
     23 C          -8.5855  -15.8567   26.3672 C.ar    1  UNL1       -0.0026
     24 C          -7.7404  -15.4452   27.5362 C.ar    1  UNL1       -0.0003
     25 C          -6.2893  -15.1221   27.3359 C.ar    1  UNL1       -0.0000
     26 C          -5.6833  -15.2107   25.9666 C.ar    1  UNL1       -0.0003
     27 C          -6.5283  -15.6222   24.7976 C.ar    1  UNL1       -0.0026
     28 C         -10.2780  -16.6694   24.0274 C.3     1  UNL1        0.0968
     29 N         -11.1773  -16.8412   22.8392 N.3     1  UNL1       -0.2689
     30 C         -12.0205  -18.0447   22.5382 C.3     1  UNL1        0.0748
     31 C         -12.7556  -17.7869   21.2564 C.3     1  UNL1        0.0480
     32 C         -12.3667  -16.4240   20.7651 C.3     1  UNL1        0.1278
     33 O         -12.8657  -15.7618   19.5151 O.3     1  UNL1       -0.3830
     34 C         -11.3913  -15.8394   21.7433 C.3     1  UNL1        0.1017
     35 H         -12.4592  -14.8853   19.4292 H       1  UNL1        0.2104
@<TRIPOS>BOND
     1     1     2    1
     2     2     3   am
     3     3     4    2
     4     3     5    1
     5     5     6    1
     6     6     8    1
     7     8     9   ar
     8     9    10   ar
     9    10    11   ar
    10    11    12   ar
    11    12    14    1
    12    14    15    1
    13    15    17    1
    14    17    18    1
    15    17    19    2
    16    17    20    2
    17    12    13   ar
    18     2    21    1
    19    21    28    1
    20    28    29    1
    21    29    30    1
    22    30    31    1
    23    31    32    1
    24    32    33    1
    25    32    34    1
    26    21    22    1
    27    22    23   ar
    28    23    24   ar
    29    24    25   ar
    30    25    26   ar
    31    26    27   ar
    32    13     8   ar
    33    34    29    1
    34    27    22   ar
    35     6     7    1
    36    15    16    1
    37    33    35    1
@<TRIPOS>MOLECULE
*****
 35 37 0 0 0
SMALL
GASTEIGER

@<TRIPOS>ATOM
      1 C         -11.0872  -17.7841   19.4342 C.3     1  UNL1        0.1152
      2 N         -10.3090  -18.0478   20.6891 N.am    1  UNL1       -0.2729
      3 C          -9.2795  -19.1383   20.7180 C.2     1  UNL1        0.2459
      4 O          -9.0282  -19.9652   19.4920 O.2     1  UNL1       -0.2730
      5 C          -8.5012  -19.4020   21.9730 C.3     1  UNL1        0.1738
      6 N          -7.2249  -18.6585   22.2342 N.pl3   1  UNL1       -0.3253
      7 H          -7.2415  -17.8154   22.7422 H       1  UNL1        0.1473
      8 C          -5.9232  -19.1996   21.7213 C.ar    1  UNL1        0.0447
      9 C          -5.9180  -20.2854   20.6865 C.ar    1  UNL1        0.0143
     10 C          -4.6164  -20.8264   20.1737 C.ar    1  UNL1        0.0010
     11 C          -3.3200  -20.2817   20.6958 C.ar    1  UNL1       -0.0028
     12 C          -3.3252  -19.1959   21.7306 C.ar    1  UNL1       -0.0036
     13 C          -4.6268  -18.6549   22.2434 C.ar    1  UNL1        0.0114
     14 C          -2.0288  -18.6512   22.2527 C.3     1  UNL1        0.1174
     15 N          -1.2168  -17.7118   21.4112 N.3     1  UNL1       -0.1788
     16 H          -0.2369  -17.9456   21.5709 H       1  UNL1        0.1488
     17 S          -1.4162  -17.6733   19.9250 S.O2    1  UNL1        0.0429
     18 C          -1.6156  -17.6347   18.4388 C.3     1  UNL1        0.1957
     19 O          -0.3296  -18.6929   19.7528 O.2     1  UNL1       -0.1574
     20 O          -2.5028  -16.6537   20.0972 O.2     1  UNL1       -0.1574
     21 C         -10.5603  -17.2209   21.9152 C.3     1  UNL1        0.1139
     22 C         -11.5367  -17.6932   22.9512 C.ar    1  UNL1       -0.0029
     23 C         -12.9840  -17.3134   22.8461 C.ar    1  UNL1       -0.0026
     24 C         -13.9605  -17.7858   23.8822 C.ar    1  UNL1       -0.0003
     25 C         -13.4897  -18.6379   25.0233 C.ar    1  UNL1       -0.0000
     26 C         -12.0424  -19.0178   25.1283 C.ar    1  UNL1       -0.0003
     27 C         -11.0660  -18.5455   24.0923 C.ar    1  UNL1       -0.0026
     28 C          -9.8351  -15.9217   22.1052 C.3     1  UNL1        0.0968
     29 N          -8.8064  -15.7885   23.1887 N.3     1  UNL1       -0.2689
     30 C          -9.0167  -16.0808   24.6449 C.3     1  UNL1        0.0748
     31 C          -7.7271  -15.8125   25.3625 C.3     1  UNL1        0.0480
     32 C          -6.7197  -15.3544   24.3499 C.3     1  UNL1        0.1278
     33 O          -5.2954  -14.9773   24.6312 O.3     1  UNL1       -0.3830
     34 C          -7.3868  -15.3395   23.0064 C.3     1  UNL1        0.1017
     35 H          -4.8602  -14.7179   23.8041 H       1  UNL1        0.2104
@<TRIPOS>BOND
     1     1     2    1
     2     2     3   am
     3     3     4    2
     4     3     5    1
     5     5     6    1
     6     6     8    1
     7     8     9   ar
     8     9    10   ar
     9    10    11   ar
    10    11    12   ar
    11    12    14    1
    12    14    15    1
    13    15    17    1
    14    17    18    1
    15    17    19    2
    16    17    20    2
    17    12    13   ar
    18     2    21    1
    19    21    28    1
    20    28    29    1
    21    29    30    1
    22    30    31    1
    23    31    32    1
    24    32    33    1
    25    32    34    1
    26    21    22    1
    27    22    23   ar
    28    23    24   ar
    29    24    25   ar
    30    25    26   ar
    31    26    27   ar
    32    13     8   ar
    33    34    29    1
    34    27    22   ar
    35     6     7    1
    36    15    16    1
    37    33    35    1
@<TRIPOS>MOLECULE
*****
 35 37 0 0 0
SMALL
GASTEIGER

@<TRIPOS>ATOM
      1 C         -10.2693  -16.1626   21.4051 C.3     1  UNL1        0.1152
      2 N          -9.6484  -17.4281   21.9179 N.am    1  UNL1       -0.2729
      3 C          -9.2733  -18.5207   20.9610 C.2     1  UNL1        0.2459
      4 O          -9.5192  -18.3478   19.4914 O.2     1  UNL1       -0.2730
      5 C          -8.6523  -19.7862   21.4737 C.3     1  UNL1        0.1738
      6 N          -7.4212  -19.7248   22.3284 N.pl3   1  UNL1       -0.3253
      7 H          -7.5010  -19.5586   23.2954 H       1  UNL1        0.1473
      8 C          -6.0682  -19.9167   21.7096 C.ar    1  UNL1        0.0447
      9 C          -5.9157  -20.7803   20.4926 C.ar    1  UNL1        0.0143
     10 C          -4.5629  -20.9721   19.8739 C.ar    1  UNL1        0.0010
     11 C          -3.3625  -20.3004   20.4721 C.ar    1  UNL1       -0.0028
     12 C          -3.5150  -19.4369   21.6891 C.ar    1  UNL1       -0.0036
     13 C          -4.8678  -19.2450   22.3078 C.ar    1  UNL1        0.0114
     14 C          -2.3146  -18.7652   22.2873 C.3     1  UNL1        0.1174
     15 N          -1.6699  -17.6111   21.5785 N.3     1  UNL1       -0.1788
     16 H          -0.7260  -17.5243   21.9551 H       1  UNL1        0.1488
     17 S          -1.5402  -17.6265   20.0842 S.O2    1  UNL1        0.0429
     18 C          -1.4105  -17.6419   18.5899 C.3     1  UNL1        0.1957
     19 O          -2.7297  -16.7196   19.9715 O.2     1  UNL1       -0.1574
     20 O          -0.3507  -18.5334   20.1968 O.2     1  UNL1       -0.1574
     21 C          -9.4025  -17.6010   23.3874 C.3     1  UNL1        0.1139
     22 C          -8.3673  -16.7637   24.0783 C.ar    1  UNL1       -0.0029
     23 C          -7.1171  -16.3659   23.3512 C.ar    1  UNL1       -0.0026
     24 C          -6.0819  -15.5285   24.0421 C.ar    1  UNL1       -0.0003
     25 C          -6.2970  -15.0890   25.4600 C.ar    1  UNL1       -0.0000
     26 C          -7.5472  -15.4869   26.1871 C.ar    1  UNL1       -0.0003
     27 C          -8.5824  -16.3242   25.4963 C.ar    1  UNL1       -0.0026
     28 C         -10.1917  -18.6113   24.1662 C.3     1  UNL1        0.0968
     29 N         -11.6786  -18.4626   24.2967 N.3     1  UNL1       -0.2689
     30 C         -12.6032  -17.9012   23.2575 C.3     1  UNL1        0.0748
     31 C         -13.9980  -17.9408   23.8079 C.3     1  UNL1        0.0480
     32 C         -13.9355  -18.5267   25.1874 C.3     1  UNL1        0.1278
     33 O         -15.1016  -18.7508   26.1038 O.3     1  UNL1       -0.3830
     34 C         -12.5020  -18.8492   25.4895 C.3     1  UNL1        0.1017
     35 H         -14.7892  -19.1413   26.9350 H       1  UNL1        0.2104
@<TRIPOS>BOND
     1     1     2    1
     2     2     3   am
     3     3     4    2
     4     3     5    1
     5     5     6    1
     6     6     8    1
     7     8     9   ar
     8     9    10   ar
     9    10    11   ar
    10    11    12   ar
    11    12    14    1
    12    14    15    1
    13    15    17    1
    14    17    18    1
    15    17    19    2
    16    17    20    2
    17    12    13   ar
    18     2    21    1
    19    21    28    1
    20    28    29    1
    21    29    30    1
    22    30    31    1
    23    31    32    1
    24    32    33    1
    25    32    34    1
    26    21    22    1
    27    22    23   ar
    28    23    24   ar
    29    24    25   ar
    30    25    26   ar
    31    26    27   ar
    32    13     8   ar
    33    34    29    1
    34    27    22   ar
    35     6     7    1
    36    15    16    1
    37    33    35    1
@<TRIPOS>MOLECULE
*****
 35 37 0 0 0
SMALL
GASTEIGER

@<TRIPOS>ATOM
      1 C          -8.4533  -15.3523   26.2134 C.3     1  UNL1        0.1152
      2 N          -7.7244  -15.8323   24.9935 N.am    1  UNL1       -0.2729
      3 C          -6.2417  -15.6356   24.8799 C.2     1  UNL1        0.2459
      4 O          -5.4879  -14.9590   25.9862 O.2     1  UNL1       -0.2730
      5 C          -5.5128  -16.1157   23.6599 C.3     1  UNL1        0.1738
      6 N          -4.4404  -17.1566   23.7881 N.pl3   1  UNL1       -0.3253
      7 H          -3.8789  -17.1879   24.5961 H       1  UNL1        0.1473
      8 C          -4.2236  -18.1498   22.6851 C.ar    1  UNL1        0.0447
      9 C          -2.8320  -18.5771   22.3234 C.ar    1  UNL1        0.0143
     10 C          -2.6152  -19.5702   21.2205 C.ar    1  UNL1        0.0010
     11 C          -3.7900  -20.1361   20.4791 C.ar    1  UNL1       -0.0028
     12 C          -5.1816  -19.7089   20.8408 C.ar    1  UNL1       -0.0036
     13 C          -5.3984  -18.7157   21.9437 C.ar    1  UNL1        0.0114
     14 C          -6.3564  -20.2748   20.0995 C.3     1  UNL1        0.1174
     15 N          -7.2461  -19.3692   19.3005 N.3     1  UNL1       -0.1788
     16 H          -7.0011  -19.5059   18.3199 H       1  UNL1        0.1488
     17 S          -8.7367  -19.5057   19.3975 S.O2    1  UNL1        0.0429
     18 C         -10.2273  -19.6423   19.4945 C.3     1  UNL1        0.1957
     19 O          -8.6834  -20.7161   18.5131 O.2     1  UNL1       -0.1574
     20 O          -8.7900  -18.2954   20.2819 O.2     1  UNL1       -0.1574
     21 C          -8.4782  -16.5089   23.8872 C.3     1  UNL1        0.1139
     22 C          -8.9201  -17.9338   24.0429 C.ar    1  UNL1       -0.0029
     23 C          -8.4004  -18.9865   23.1091 C.ar    1  UNL1       -0.0026
     24 C          -8.8423  -20.4115   23.2649 C.ar    1  UNL1       -0.0003
     25 C          -9.8038  -20.7838   24.3543 C.ar    1  UNL1       -0.0000
     26 C         -10.3235  -19.7311   25.2880 C.ar    1  UNL1       -0.0003
     27 C          -9.8816  -18.3062   25.1323 C.ar    1  UNL1       -0.0026
     28 C          -8.7902  -15.7606   22.6252 C.3     1  UNL1        0.0968
     29 N         -10.1141  -15.9530   21.9469 N.3     1  UNL1       -0.2689
     30 C         -11.3303  -16.5896   22.5516 C.3     1  UNL1        0.0748
     31 C         -12.4223  -16.5726   21.5233 C.3     1  UNL1        0.0480
     32 C         -11.8809  -15.9255   20.2831 C.3     1  UNL1        0.1278
     33 O         -12.6339  -15.7008   19.0053 O.3     1  UNL1       -0.3830
     34 C         -10.4544  -15.5426   20.5448 C.3     1  UNL1        0.1017
     35 H         -12.0547  -15.2643   18.3612 H       1  UNL1        0.2104
@<TRIPOS>BOND
     1     1     2    1
     2     2     3   am
     3     3     4    2
     4     3     5    1
     5     5     6    1
     6     6     8    1
     7     8     9   ar
     8     9    10   ar
     9    10    11   ar
    10    11    12   ar
    11    12    14    1
    12    14    15    1
    13    15    17    1
    14    17    18    1
    15    17    19    2
    16    17    20    2
    17    12    13   ar
    18     2    21    1
    19    21    28    1
    20    28    29    1
    21    29    30    1
    22    30    31    1
    23    31    32    1
    24    32    33    1
    25    32    34    1
    26    21    22    1
    27    22    23   ar
    28    23    24   ar
    29    24    25   ar
    30    25    26   ar
    31    26    27   ar
    32    13     8   ar
    33    34    29    1
    34    27    22   ar
    35     6     7    1
    36    15    16    1
    37    33    35    1
@<TRIPOS>MOLECULE
*****
 35 37 0 0 0
SMALL
GASTEIGER

@<TRIPOS>ATOM
      1 C          -8.5994  -15.3364   25.7844 C.3     1  UNL1        0.1152
      2 N          -7.8114  -15.8820   24.6306 N.am    1  UNL1       -0.2729
      3 C          -6.3222  -15.7067   24.5899 C.2     1  UNL1        0.2459
      4 O          -5.6212  -14.9860   25.7031 O.2     1  UNL1       -0.2730
      5 C          -5.5340  -16.2523   23.4361 C.3     1  UNL1        0.1738
      6 N          -4.8291  -17.5699   23.5656 N.pl3   1  UNL1       -0.3253
      7 H          -4.4385  -17.8364   24.4291 H       1  UNL1        0.1473
      8 C          -4.7193  -18.4815   22.3794 C.ar    1  UNL1        0.0447
      9 C          -5.7642  -19.5309   22.1407 C.ar    1  UNL1        0.0143
     10 C          -5.6543  -20.4424   20.9546 C.ar    1  UNL1        0.0010
     11 C          -4.4996  -20.3046   20.0072 C.ar    1  UNL1       -0.0028
     12 C          -3.4547  -19.2553   20.2459 C.ar    1  UNL1       -0.0036
     13 C          -3.5645  -18.3437   21.4320 C.ar    1  UNL1        0.0114
     14 C          -2.2999  -19.1175   19.2985 C.3     1  UNL1        0.1174
     15 N          -1.5533  -17.8196   19.2098 N.3     1  UNL1       -0.1788
     16 H          -2.1783  -17.0956   19.5643 H       1  UNL1        0.1488
     17 S          -0.2475  -17.6548   19.9292 S.O2    1  UNL1        0.0429
     18 C           1.0584  -17.4900   20.6487 C.3     1  UNL1        0.1957
     19 O          -0.6248  -16.2492   20.2922 O.2     1  UNL1       -0.1574
     20 O           0.1299  -19.0605   19.5662 O.2     1  UNL1       -0.1574
     21 C          -8.5124  -16.6027   23.5175 C.3     1  UNL1        0.1139
     22 C          -9.2275  -17.8923   23.7922 C.ar    1  UNL1       -0.0029
     23 C          -8.5354  -19.2005   23.5475 C.ar    1  UNL1       -0.0026
     24 C          -9.2506  -20.4902   23.8223 C.ar    1  UNL1       -0.0003
     25 C         -10.6576  -20.4716   24.3416 C.ar    1  UNL1       -0.0000
     26 C         -11.3497  -19.1635   24.5862 C.ar    1  UNL1       -0.0003
     27 C         -10.6346  -17.8739   24.3115 C.ar    1  UNL1       -0.0026
     28 C          -8.4984  -16.0338   22.1296 C.3     1  UNL1        0.0968
     29 N          -9.6321  -16.3203   21.1902 N.3     1  UNL1       -0.2689
     30 C         -10.0506  -17.6749   20.7005 C.3     1  UNL1        0.0748
     31 C         -11.2235  -17.4943   19.7831 C.3     1  UNL1        0.0480
     32 C         -11.5300  -16.0280   19.7058 C.3     1  UNL1        0.1278
     33 O         -12.6273  -15.3978   18.9003 O.3     1  UNL1       -0.3830
     34 C         -10.5465  -15.3023   20.5754 C.3     1  UNL1        0.1017
     35 H         -12.6087  -14.4361   19.0252 H       1  UNL1        0.2104
@<TRIPOS>BOND
     1     1     2    1
     2     2     3   am
     3     3     4    2
     4     3     5    1
     5     5     6    1
     6     6     8    1
     7     8     9   ar
     8     9    10   ar
     9    10    11   ar
    10    11    12   ar
    11    12    14    1
    12    14    15    1
    13    15    17    1
    14    17    18    1
    15    17    19    2
    16    17    20    2
    17    12    13   ar
    18     2    21    1
    19    21    28    1
    20    28    29    1
    21    29    30    1
    22    30    31    1
    23    31    32    1
    24    32    33    1
    25    32    34    1
    26    21    22    1
    27    22    23   ar
    28    23    24   ar
    29    24    25   ar
    30    25    26   ar
    31    26    27   ar
    32    13     8   ar
    33    34    29    1
    34    27    22   ar
    35     6     7    1
    36    15    16    1
    37    33    35    1
@<TRIPOS>MOLECULE
*****
 35 37 0 0 0
SMALL
GASTEIGER

@<TRIPOS>ATOM
      1 C          -8.4097  -15.6090   22.4213 C.3     1  UNL1        0.1152
      2 N          -8.6200  -17.0568   22.7521 N.am    1  UNL1       -0.2729
      3 C          -7.9827  -18.1194   21.9069 C.2     1  UNL1        0.2459
      4 O          -7.1350  -17.7343   20.7308 O.2     1  UNL1       -0.2730
      5 C          -8.1929  -19.5674   22.2377 C.3     1  UNL1        0.1738
      6 N          -7.0259  -20.4244   22.6295 N.pl3   1  UNL1       -0.3253
      7 H          -7.0927  -21.0198   23.4107 H       1  UNL1        0.1473
      8 C          -5.7570  -20.3742   21.8310 C.ar    1  UNL1        0.0447
      9 C          -5.6894  -21.0384   20.4878 C.ar    1  UNL1        0.0143
     10 C          -4.4205  -20.9882   19.6894 C.ar    1  UNL1        0.0010
     11 C          -3.2194  -20.2738   20.2341 C.ar    1  UNL1       -0.0028
     12 C          -3.2870  -19.6096   21.5773 C.ar    1  UNL1       -0.0036
     13 C          -4.5558  -19.6598   22.3757 C.ar    1  UNL1        0.0114
     14 C          -2.0858  -18.8951   22.1221 C.3     1  UNL1        0.1174
     15 N          -1.5170  -17.7172   21.3880 N.3     1  UNL1       -0.1788
     16 H          -0.5413  -17.6352   21.6741 H       1  UNL1        0.1488
     17 S          -1.5323  -17.6892   19.8884 S.O2    1  UNL1        0.0429
     18 C          -1.5477  -17.6613   18.3887 C.3     1  UNL1        0.1957
     19 O          -2.7226  -16.7768   19.9176 O.2     1  UNL1       -0.1574
     20 O          -0.3421  -18.6016   19.8591 O.2     1  UNL1       -0.1574
     21 C          -9.4677  -17.4420   23.9282 C.3     1  UNL1        0.1139
     22 C         -10.9540  -17.5699   23.7716 C.ar    1  UNL1       -0.0029
     23 C         -11.6732  -16.7490   22.7426 C.ar    1  UNL1       -0.0026
     24 C         -13.1595  -16.8770   22.5860 C.ar    1  UNL1       -0.0003
     25 C         -13.9266  -17.8258   23.4585 C.ar    1  UNL1       -0.0000
     26 C         -13.2074  -18.6467   24.4875 C.ar    1  UNL1       -0.0003
     27 C         -11.7212  -18.5188   24.6441 C.ar    1  UNL1       -0.0026
     28 C          -8.8291  -17.6992   25.2608 C.3     1  UNL1        0.0968
     29 N          -7.9687  -16.6473   25.8958 N.3     1  UNL1       -0.2689
     30 C          -8.1842  -16.0281   27.2449 C.3     1  UNL1        0.0748
     31 C          -7.0905  -15.0280   27.4761 C.3     1  UNL1        0.0480
     32 C          -6.1990  -15.0290   26.2697 C.3     1  UNL1        0.1278
     33 O          -4.9789  -14.1785   26.0743 O.3     1  UNL1       -0.3830
     34 C          -6.7417  -16.0297   25.2930 C.3     1  UNL1        0.1017
     35 H          -4.5845  -14.3727   25.2097 H       1  UNL1        0.2104
@<TRIPOS>BOND
     1     1     2    1
     2     2     3   am
     3     3     4    2
     4     3     5    1
     5     5     6    1
     6     6     8    1
     7     8     9   ar
     8     9    10   ar
     9    10    11   ar
    10    11    12   ar
    11    12    14    1
    12    14    15    1
    13    15    17    1
    14    17    18    1
    15    17    19    2
    16    17    20    2
    17    12    13   ar
    18     2    21    1
    19    21    28    1
    20    28    29    1
    21    29    30    1
    22    30    31    1
    23    31    32    1
    24    32    33    1
    25    32    34    1
    26    21    22    1
    27    22    23   ar
    28    23    24   ar
    29    24    25   ar
    30    25    26   ar
    31    26    27   ar
    32    13     8   ar
    33    34    29    1
    34    27    22   ar
    35     6     7    1
    36    15    16    1
    37    33    35    1
